@<TRIPOS>MOLECULE
X40
   41    43     1     0     0
SMALL
bcc


@<TRIPOS>ATOM
      1 N01        -0.1620    1.3910    0.1630 nc        1 X40     -0.573000
      2 N02        -2.0940    0.4300    1.3330 n4        1 X40     -0.589100
      3 N03         5.2690   -0.5970    4.5450 nb        1 X40     -0.620000
      4 N04         2.0310    2.2210   -0.6230 n4        1 X40     -0.800300
      5 N05        -6.7610   -1.7850   -2.9030 n4        1 X40     -0.809500
      6 C06         1.7420    0.6110    1.3290 cd        1 X40     -0.260000
      7 C07         1.2140    1.4090    0.2730 cc        1 X40      0.435200
      8 C08        -0.6520    0.5880    1.1520 cd        1 X40      0.304300
      9 C09        -2.8040   -0.1660    0.1830 ca        1 X40      0.048600
     10 C10         3.2000    0.5090    1.6580 c         1 X40      0.645300
     11 C11         3.5830   -0.2670    2.8210 ca        1 X40     -0.355900
     12 C12         2.8310   -1.3370    3.3480 ca        1 X40     -0.086000
     13 C13         3.2940   -2.0090    4.4670 ca        1 X40     -0.224300
     14 C14         4.5280   -1.6000    5.0420 ca        1 X40      0.499200
     15 C15         4.8150    0.0500    3.4550 ca        1 X40      0.519200
     16 C16        -3.1590   -1.5260    0.2160 ca        1 X40     -0.113000
     17 C17        -3.8790   -2.0660   -0.8500 ca        1 X40      0.026500
     18 C18        -4.2550   -1.2820   -1.9540 ca        1 X40     -0.430500
     19 C19        -3.8890    0.0740   -1.9600 ca        1 X40      0.026500
     20 C20        -3.1670    0.6410   -0.9080 ca        1 X40     -0.113000
     21 O21         3.9930    1.1400    0.9450 o         1 X40     -0.516100
     22 O22        -4.8100   -3.3490   -3.2720 o         1 X40     -0.519800
     23 O23        -4.8180   -1.1740   -4.4000 o         1 X40     -0.519800
     24 S24         0.5360   -0.1270    2.1480 ss        1 X40      0.404700
     25 S25        -4.9480   -1.9830   -3.2970 sy        1 X40      1.448200
     26 HN02       -2.2520   -0.1600    2.1670 hn        1 X40      0.492300
     27 HN04        2.0960    3.1810   -0.2480 hn        1 X40      0.502133
     28 HN0A        2.9930    1.8160   -0.6620 hn        1 X40      0.502133
     29 HN05       -6.9630   -1.3260   -2.0170 hn        1 X40      0.480467
     30 HN0B       -7.2270   -2.7010   -2.8770 hn        1 X40      0.480467
     31 H12         1.9180   -1.7060    2.8460 ha        1 X40      0.102000
     32 H13         2.7460   -2.8590    4.9020 ha        1 X40      0.182000
     33 H14         4.9390   -2.1150    5.9370 h4        1 X40      0.081100
     34 H15         5.4610    0.8640    3.0650 h4        1 X40      0.071100
     35 H16        -2.8890   -2.1860    1.0610 ha        1 X40      0.193500
     36 H17        -4.1310   -3.1490   -0.8240 ha        1 X40      0.208000
     37 H19        -4.1500    0.7170   -2.8280 ha        1 X40      0.208000
     38 H20        -2.8930    1.7110   -0.9590 ha        1 X40      0.193500
     39 H022       -2.5060    1.3680    1.5120 hn        1 X40      0.492300
     40 H043        1.6280    2.2510   -1.5700 hn        1 X40      0.502133
     41 H053       -7.2330   -1.2410   -3.6360 hn        1 X40      0.480467
@<TRIPOS>BOND
     1    1    7 1   
     2    1    8 2   
     3    2    8 1   
     4    2    9 1   
     5    2   26 1   
     6    2   39 1   
     7    3   14 ar  
     8    3   15 ar  
     9    4    7 1   
    10    4   27 1   
    11    4   28 1   
    12    4   40 1   
    13    5   25 1   
    14    5   29 1   
    15    5   30 1   
    16    5   41 1   
    17    6    7 2   
    18    6   10 1   
    19    6   24 1   
    20    8   24 1   
    21    9   16 ar  
    22    9   20 ar  
    23   10   11 1   
    24   10   21 2   
    25   11   12 ar  
    26   11   15 ar  
    27   12   13 ar  
    28   12   31 1   
    29   13   14 ar  
    30   13   32 1   
    31   14   33 1   
    32   15   34 1   
    33   16   17 ar  
    34   16   35 1   
    35   17   18 ar  
    36   17   36 1   
    37   18   19 ar  
    38   18   25 1   
    39   19   20 ar  
    40   19   37 1   
    41   20   38 1   
    42   22   25 2   
    43   23   25 2   
@<TRIPOS>SUBSTRUCTURE
     1 X40         1 TEMP              0 ****  ****    0 ROOT
