@<TRIPOS>MOLECULE
X41
   97    96     1     0     0
SMALL
bcc


@<TRIPOS>ATOM
      1 O1          3.4570   -2.3830    0.9970 o         1 X41     -0.848000
      2 O2          2.8880   -4.1310    2.8800 o         1 X41     -0.848000
      3 P1          2.5290   -3.0540    1.9320 p5        1 X41      1.438800
      4 O3          1.8230   -1.9320    2.8920 oh        1 X41     -0.784400
      5 O4          1.1800   -3.5450    1.1290 os        1 X41     -0.592200
      6 C1          0.5160   -2.6110    0.3290 c3        1 X41      0.192400
      7 C2          0.4680   -3.1050   -1.1270 c3        1 X41      0.121100
      8 C3         -0.9110   -3.0020   -1.7800 c3        1 X41      0.150400
      9 O5         -1.4490   -1.7070   -1.5770 os        1 X41     -0.477900
     10 C4         -2.7020   -1.4650   -2.1900 c2        1 X41      0.432100
     11 O6         -3.1700   -2.4650   -2.8030 o         1 X41     -0.574000
     12 C5         -3.1780   -0.1790   -2.0040 c2        1 X41     -0.602200
     13 C6         -4.4550    0.2530   -2.5690 c3        1 X41      0.076800
     14 C7         -5.4330    0.7110   -1.4930 c3        1 X41     -0.084400
     15 C8         -6.7390    1.1920   -2.0890 c3        1 X41     -0.078400
     16 C9         -7.7090    1.6430   -1.0170 c3        1 X41     -0.080400
     17 C10        -9.0140    2.1240   -1.6140 c3        1 X41     -0.077400
     18 C11        -9.9800    2.5720   -0.5360 c3        1 X41     -0.055200
     19 C12       -11.2670    3.0540   -1.0900 c2        1 X41     -0.150200
     20 C13       -12.2660    3.5390   -0.3440 c2        1 X41     -0.201200
     21 C14       -12.2040    3.6560    1.1310 c3        1 X41     -0.045200
     22 C15       -13.4900    4.1990    1.7200 c3        1 X41     -0.075400
     23 C16       -13.4000    4.3070    3.2270 c3        1 X41     -0.082400
     24 C17       -14.6760    4.8460    3.8210 c3        1 X41     -0.090100
     25 O7          1.4010   -2.2670   -1.8460 os        1 X41     -0.405900
     26 C18         2.2890   -2.8430   -2.6890 c         1 X41      0.648100
     27 O8          2.1500   -4.0160   -3.0580 o         1 X41     -0.592000
     28 C19         3.3840   -1.8940   -3.0900 c3        1 X41     -0.121400
     29 C20         4.5010   -1.9560   -2.0670 c3        1 X41     -0.111400
     30 C21         5.5070   -0.8480   -2.2860 c3        1 X41     -0.061400
     31 C22         6.5770   -0.8880   -1.2150 c3        1 X41     -0.087400
     32 C23         7.5370    0.2740   -1.3470 c3        1 X41     -0.074400
     33 C24         8.6070    0.2250   -0.2770 c3        1 X41     -0.080400
     34 C25         9.5620    1.3930   -0.3970 c3        1 X41     -0.077400
     35 C26        10.6300    1.3420    0.6740 c3        1 X41     -0.079400
     36 C27        11.5860    2.5100    0.5560 c3        1 X41     -0.078400
     37 C28        12.6540    2.4590    1.6280 c3        1 X41     -0.079400
     38 C29        13.6090    3.6260    1.5110 c3        1 X41     -0.078400
     39 C30        14.6770    3.5760    2.5830 c3        1 X41     -0.081400
     40 C31        15.6320    4.7360    2.4710 c3        1 X41     -0.091100
     41 H2          1.0340   -1.6140    0.3830 h1        1 X41      0.051700
     42 H3         -0.5420   -2.5100    0.6970 h1        1 X41      0.051700
     43 H4          0.8020   -4.1780   -1.1800 h1        1 X41      0.074700
     44 H5         -0.8260   -3.2120   -2.8790 h1        1 X41      0.030700
     45 H6         -1.5900   -3.7670   -1.3160 h1        1 X41      0.030700
     46 H7          1.5100   -2.3140    3.7030 ho        1 X41      0.419000
     47 H8         -2.5940    0.5400   -1.4300 ha        1 X41      0.099000
     48 H9         -4.9270   -0.5810   -3.1570 hc        1 X41     -0.008800
     49 H10        -4.3090    1.1160   -3.2820 hc        1 X41     -0.008800
     50 H11        -5.6280   -0.1390   -0.7900 hc        1 X41      0.028700
     51 H12        -4.9660    1.5360   -0.8940 hc        1 X41      0.028700
     52 H13        -6.5410    2.0420   -2.7940 hc        1 X41      0.026700
     53 H14        -7.2020    0.3660   -2.6900 hc        1 X41      0.026700
     54 H15        -7.9080    0.7920   -0.3130 hc        1 X41      0.034700
     55 H16        -7.2440    2.4670   -0.4140 hc        1 X41      0.034700
     56 H17        -8.8140    2.9750   -2.3170 hc        1 X41      0.035200
     57 H18        -9.4780    1.3000   -2.2160 hc        1 X41      0.035200
     58 H19       -10.1760    1.7180    0.1700 hc        1 X41      0.048200
     59 H20        -9.5070    3.3900    0.0750 hc        1 X41      0.048200
     60 H21       -11.3720    2.9920   -2.1860 ha        1 X41      0.119000
     61 H22       -13.2000    3.8800   -0.8170 ha        1 X41      0.111000
     62 H23       -11.9820    2.6470    1.5780 hc        1 X41      0.049200
     63 H24       -11.3470    4.3270    1.4170 hc        1 X41      0.049200
     64 H25       -13.7070    5.2090    1.2830 hc        1 X41      0.036200
     65 H26       -14.3440    3.5270    1.4420 hc        1 X41      0.036200
     66 H27       -13.1810    3.2950    3.6620 hc        1 X41      0.041200
     67 H28       -12.5430    4.9760    3.5030 hc        1 X41      0.041200
     68 H29       -15.5370    4.1790    3.5780 hc        1 X41      0.028033
     69 H30       -14.5880    4.9180    4.9320 hc        1 X41      0.028033
     70 H31       -14.8980    5.8640    3.4190 hc        1 X41      0.028033
     71 H32         2.9660   -0.8550   -3.1410 hc        1 X41      0.052200
     72 H33         3.7550   -2.1820   -4.1070 hc        1 X41      0.052200
     73 H34         5.0130   -2.9510   -2.1320 hc        1 X41      0.097700
     74 H35         4.0640   -1.8780   -1.0240 hc        1 X41      0.097700
     75 H36         4.9840    0.1450   -2.2540 hc        1 X41      0.019200
     76 H37         5.9770   -0.9430   -3.3000 hc        1 X41      0.019200
     77 H38         7.1420   -1.8550   -1.2860 hc        1 X41      0.059700
     78 H39         6.0840   -0.8700   -0.2050 hc        1 X41      0.059700
     79 H40         6.9710    1.2390   -1.2680 hc        1 X41      0.027700
     80 H41         8.0180    0.2560   -2.3610 hc        1 X41      0.027700
     81 H42         9.1760   -0.7380   -0.3590 hc        1 X41      0.043700
     82 H43         8.1210    0.2360    0.7350 hc        1 X41      0.043700
     83 H44         8.9910    2.3550   -0.3130 hc        1 X41      0.033700
     84 H45        10.0450    1.3830   -1.4100 hc        1 X41      0.033700
     85 H46        11.2010    0.3800    0.5910 hc        1 X41      0.040200
     86 H47        10.1460    1.3520    1.6870 hc        1 X41      0.040200
     87 H48        11.0150    3.4720    0.6400 hc        1 X41      0.036200
     88 H49        12.0690    2.5010   -0.4560 hc        1 X41      0.036200
     89 H50        13.2240    1.4960    1.5450 hc        1 X41      0.039700
     90 H51        12.1700    2.4690    2.6410 hc        1 X41      0.039700
     91 H52        13.0390    4.5890    1.5950 hc        1 X41      0.037200
     92 H53        14.0930    3.6170    0.4990 hc        1 X41      0.037200
     93 H54        15.2450    2.6110    2.4990 hc        1 X41      0.038200
     94 H55        14.1910    3.5840    3.5950 hc        1 X41      0.038200
     95 H56        16.4100    4.6800    3.2700 hc        1 X41      0.028367
     96 H57        16.1440    4.7310    1.4780 hc        1 X41      0.028367
     97 H58        15.0870    5.7060    2.5770 hc        1 X41      0.028367
@<TRIPOS>BOND
     1    1    3 1   
     2    2    3 1   
     3    3    4 1   
     4    3    5 1   
     5    4   46 1   
     6    5    6 1   
     7    6    7 1   
     8    6   41 1   
     9    6   42 1   
    10    7    8 1   
    11    7   25 1   
    12    7   43 1   
    13    8    9 1   
    14    8   44 1   
    15    8   45 1   
    16    9   10 1   
    17   10   11 1   
    18   10   12 2   
    19   12   13 1   
    20   12   47 1   
    21   13   14 1   
    22   13   48 1   
    23   13   49 1   
    24   14   15 1   
    25   14   50 1   
    26   14   51 1   
    27   15   16 1   
    28   15   52 1   
    29   15   53 1   
    30   16   17 1   
    31   16   54 1   
    32   16   55 1   
    33   17   18 1   
    34   17   56 1   
    35   17   57 1   
    36   18   19 1   
    37   18   58 1   
    38   18   59 1   
    39   19   20 2   
    40   19   60 1   
    41   20   21 1   
    42   20   61 1   
    43   21   22 1   
    44   21   62 1   
    45   21   63 1   
    46   22   23 1   
    47   22   64 1   
    48   22   65 1   
    49   23   24 1   
    50   23   66 1   
    51   23   67 1   
    52   24   68 1   
    53   24   69 1   
    54   24   70 1   
    55   25   26 1   
    56   26   27 2   
    57   26   28 1   
    58   28   29 1   
    59   28   71 1   
    60   28   72 1   
    61   29   30 1   
    62   29   73 1   
    63   29   74 1   
    64   30   31 1   
    65   30   75 1   
    66   30   76 1   
    67   31   32 1   
    68   31   77 1   
    69   31   78 1   
    70   32   33 1   
    71   32   79 1   
    72   32   80 1   
    73   33   34 1   
    74   33   81 1   
    75   33   82 1   
    76   34   35 1   
    77   34   83 1   
    78   34   84 1   
    79   35   36 1   
    80   35   85 1   
    81   35   86 1   
    82   36   37 1   
    83   36   87 1   
    84   36   88 1   
    85   37   38 1   
    86   37   89 1   
    87   37   90 1   
    88   38   39 1   
    89   38   91 1   
    90   38   92 1   
    91   39   40 1   
    92   39   93 1   
    93   39   94 1   
    94   40   95 1   
    95   40   96 1   
    96   40   97 1   
@<TRIPOS>SUBSTRUCTURE
     1 X41         1 TEMP              0 ****  ****    0 ROOT
