@<TRIPOS>MOLECULE
X41
   97    96     1     0     0
SMALL
bcc


@<TRIPOS>ATOM
      1 O1         -1.9140    1.0930   -1.1900 o         1 X41     -0.841000
      2 O2         -0.4130    0.4600    0.8750 o         1 X41     -0.841000
      3 P1         -0.9100    0.2580   -0.5020 p5        1 X41      1.431800
      4 O3         -1.3790   -1.3120   -0.5360 oh        1 X41     -0.792400
      5 O4          0.4080    0.1190   -1.4900 os        1 X41     -0.591200
      6 C1          1.5020   -0.6100   -1.0240 c3        1 X41      0.187400
      7 C2          1.7150   -1.8530   -1.9060 c3        1 X41      0.118100
      8 C3          3.1630   -2.3280   -1.9870 c3        1 X41      0.148400
      9 O5          3.6820   -2.5430   -0.6870 os        1 X41     -0.475900
     10 C4          5.0000   -3.0590   -0.6380 c2        1 X41      0.430100
     11 O6          5.5360   -3.1920   -1.7740 o         1 X41     -0.575000
     12 C5          5.4520   -3.3210    0.6420 c2        1 X41     -0.599200
     13 C6          6.7910   -3.8580    0.8850 c3        1 X41      0.076800
     14 C7          7.6290   -2.9320    1.7590 c3        1 X41     -0.084400
     15 C8          9.0000   -3.5120    2.0380 c3        1 X41     -0.077400
     16 C9          9.8320   -2.5880    2.9010 c3        1 X41     -0.080400
     17 C10        11.2020   -3.1690    3.1800 c3        1 X41     -0.077400
     18 C11        12.0290   -2.2390    4.0430 c3        1 X41     -0.055200
     19 C12        13.3760   -2.7810    4.3370 c2        1 X41     -0.151200
     20 C13        14.2780   -2.1650    5.1080 c2        1 X41     -0.201200
     21 C14        14.0360   -0.8600    5.7670 c3        1 X41     -0.045200
     22 C15        15.2410   -0.3780    6.5480 c3        1 X41     -0.075400
     23 C16        14.9680    0.9560    7.2100 c3        1 X41     -0.082400
     24 C17        16.1620    1.4420    7.9900 c3        1 X41     -0.090100
     25 O7          0.8880   -2.8830   -1.3170 os        1 X41     -0.417900
     26 C18         0.1650   -3.6860   -2.1350 c         1 X41      0.652100
     27 O8          0.3890   -3.7210   -3.3500 o         1 X41     -0.585000
     28 C19        -0.8810   -4.4460   -1.3720 c3        1 X41     -0.147400
     29 C20        -1.4270   -5.6030   -2.1770 c3        1 X41     -0.073400
     30 C21        -2.5700   -6.2760   -1.4480 c3        1 X41     -0.079400
     31 C22        -3.1170   -7.4420   -2.2440 c3        1 X41     -0.078400
     32 C23        -4.2640   -8.1130   -1.5190 c3        1 X41     -0.079400
     33 C24        -4.8110   -9.2790   -2.3150 c3        1 X41     -0.078400
     34 C25        -5.9590   -9.9500   -1.5900 c3        1 X41     -0.079400
     35 C26        -6.5060  -11.1160   -2.3860 c3        1 X41     -0.078400
     36 C27        -7.6530  -11.7870   -1.6610 c3        1 X41     -0.079400
     37 C28        -8.2000  -12.9520   -2.4570 c3        1 X41     -0.079400
     38 C29        -9.3480  -13.6230   -1.7320 c3        1 X41     -0.079400
     39 C30        -9.8960  -14.7890   -2.5260 c3        1 X41     -0.080400
     40 C31       -11.0380  -15.4600   -1.8090 c3        1 X41     -0.091100
     41 H2          1.3570   -0.9050    0.0510 h1        1 X41      0.051700
     42 H3          2.4240    0.0290   -1.1160 h1        1 X41      0.051700
     43 H4          1.3540   -1.6390   -2.9510 h1        1 X41      0.071700
     44 H5          3.7740   -1.5450   -2.5120 h1        1 X41      0.030700
     45 H6          3.2120   -3.2800   -2.5800 h1        1 X41      0.030700
     46 H7         -0.7770   -1.8730   -0.0600 ho        1 X41      0.427000
     47 H8          4.8060   -3.1290    1.4990 ha        1 X41      0.101000
     48 H9          7.3290   -4.0270   -0.0860 hc        1 X41     -0.008300
     49 H10         6.7350   -4.8560    1.4090 hc        1 X41     -0.008300
     50 H11         7.7350   -1.9420    1.2460 hc        1 X41      0.029700
     51 H12         7.0950   -2.7490    2.7270 hc        1 X41      0.029700
     52 H13         9.5310   -3.6970    1.0670 hc        1 X41      0.026200
     53 H14         8.8920   -4.5050    2.5480 hc        1 X41      0.026200
     54 H15         9.2990   -2.4010    3.8710 hc        1 X41      0.034700
     55 H16         9.9410   -1.5960    2.3890 hc        1 X41      0.034700
     56 H17        11.0920   -4.1600    3.6920 hc        1 X41      0.035200
     57 H18        11.7340   -3.3550    2.2100 hc        1 X41      0.035200
     58 H19        11.4870   -2.0430    5.0100 hc        1 X41      0.048700
     59 H20        12.1330   -1.2440    3.5290 hc        1 X41      0.048700
     60 H21        13.6140   -3.7530    3.8720 ha        1 X41      0.119000
     61 H22        15.2640   -2.6210    5.2870 ha        1 X41      0.110000
     62 H23        13.7600   -0.0940    4.9910 hc        1 X41      0.049200
     63 H24        13.1520   -0.9490    6.4570 hc        1 X41      0.049200
     64 H25        16.1220   -0.2830    5.8610 hc        1 X41      0.036200
     65 H26        15.5110   -1.1370    7.3300 hc        1 X41      0.036200
     66 H27        14.6950    1.7120    6.4270 hc        1 X41      0.041200
     67 H28        14.0840    0.8590    7.8950 hc        1 X41      0.041200
     68 H29        17.0460    1.5690    7.3190 hc        1 X41      0.028033
     69 H30        16.4330    0.7140    8.7910 hc        1 X41      0.028033
     70 H31        15.9390    2.4260    8.4690 hc        1 X41      0.028033
     71 H32        -0.4410   -4.8050   -0.4060 hc        1 X41      0.089700
     72 H33        -1.6940   -3.7060   -1.1240 hc        1 X41      0.089700
     73 H34        -1.7750   -5.2290   -3.1760 hc        1 X41      0.049200
     74 H35        -0.6090   -6.3450   -2.3720 hc        1 X41      0.049200
     75 H36        -2.2170   -6.6370   -0.4460 hc        1 X41      0.040700
     76 H37        -3.3870   -5.5300   -1.2610 hc        1 X41      0.040700
     77 H38        -2.3000   -8.1870   -2.4290 hc        1 X41      0.037700
     78 H39        -3.4660   -7.0790   -3.2470 hc        1 X41      0.037700
     79 H40        -5.0800   -7.3660   -1.3350 hc        1 X41      0.038700
     80 H41        -3.9140   -8.4740   -0.5160 hc        1 X41      0.038700
     81 H42        -3.9940  -10.0250   -2.4980 hc        1 X41      0.037200
     82 H43        -5.1600   -8.9180   -3.3180 hc        1 X41      0.037200
     83 H44        -6.7750   -9.2030   -1.4070 hc        1 X41      0.038700
     84 H45        -5.6090  -10.3100   -0.5870 hc        1 X41      0.038700
     85 H46        -5.6890  -11.8620   -2.5690 hc        1 X41      0.037700
     86 H47        -6.8550  -10.7550   -3.3890 hc        1 X41      0.037700
     87 H48        -7.3040  -12.1470   -0.6570 hc        1 X41      0.038700
     88 H49        -8.4700  -11.0400   -1.4780 hc        1 X41      0.038700
     89 H50        -7.3830  -13.6990   -2.6400 hc        1 X41      0.038200
     90 H51        -8.5490  -12.5920   -3.4600 hc        1 X41      0.038200
     91 H52        -8.9990  -13.9840   -0.7280 hc        1 X41      0.038700
     92 H53       -10.1650  -12.8760   -1.5490 hc        1 X41      0.038700
     93 H54        -9.0770  -15.5340   -2.7100 hc        1 X41      0.037700
     94 H55       -10.2420  -14.4270   -3.5300 hc        1 X41      0.037700
     95 H56       -11.8740  -14.7400   -1.6390 hc        1 X41      0.029700
     96 H57       -11.4270  -16.3160   -2.4110 hc        1 X41      0.029700
     97 H58       -10.7060  -15.8500   -0.8160 hc        1 X41      0.029700
@<TRIPOS>BOND
     1    1    3 1   
     2    2    3 1   
     3    3    4 1   
     4    3    5 1   
     5    4   46 1   
     6    5    6 1   
     7    6    7 1   
     8    6   41 1   
     9    6   42 1   
    10    7    8 1   
    11    7   25 1   
    12    7   43 1   
    13    8    9 1   
    14    8   44 1   
    15    8   45 1   
    16    9   10 1   
    17   10   11 1   
    18   10   12 2   
    19   12   13 1   
    20   12   47 1   
    21   13   14 1   
    22   13   48 1   
    23   13   49 1   
    24   14   15 1   
    25   14   50 1   
    26   14   51 1   
    27   15   16 1   
    28   15   52 1   
    29   15   53 1   
    30   16   17 1   
    31   16   54 1   
    32   16   55 1   
    33   17   18 1   
    34   17   56 1   
    35   17   57 1   
    36   18   19 1   
    37   18   58 1   
    38   18   59 1   
    39   19   20 2   
    40   19   60 1   
    41   20   21 1   
    42   20   61 1   
    43   21   22 1   
    44   21   62 1   
    45   21   63 1   
    46   22   23 1   
    47   22   64 1   
    48   22   65 1   
    49   23   24 1   
    50   23   66 1   
    51   23   67 1   
    52   24   68 1   
    53   24   69 1   
    54   24   70 1   
    55   25   26 1   
    56   26   27 2   
    57   26   28 1   
    58   28   29 1   
    59   28   71 1   
    60   28   72 1   
    61   29   30 1   
    62   29   73 1   
    63   29   74 1   
    64   30   31 1   
    65   30   75 1   
    66   30   76 1   
    67   31   32 1   
    68   31   77 1   
    69   31   78 1   
    70   32   33 1   
    71   32   79 1   
    72   32   80 1   
    73   33   34 1   
    74   33   81 1   
    75   33   82 1   
    76   34   35 1   
    77   34   83 1   
    78   34   84 1   
    79   35   36 1   
    80   35   85 1   
    81   35   86 1   
    82   36   37 1   
    83   36   87 1   
    84   36   88 1   
    85   37   38 1   
    86   37   89 1   
    87   37   90 1   
    88   38   39 1   
    89   38   91 1   
    90   38   92 1   
    91   39   40 1   
    92   39   93 1   
    93   39   94 1   
    94   40   95 1   
    95   40   96 1   
    96   40   97 1   
@<TRIPOS>SUBSTRUCTURE
     1 X41         1 TEMP              0 ****  ****    0 ROOT
