@<TRIPOS>MOLECULE
X41
   97    96     1     0     0
SMALL
bcc


@<TRIPOS>ATOM
      1 O1          2.1530   -1.0340    0.4600 o         1 X41     -0.915500
      2 O2          3.7360    0.9360    0.1660 o         1 X41     -0.915500
      3 P1          3.5210   -0.5450    0.0800 p5        1 X41      1.323900
      4 O3          4.6850   -1.4210    0.4880 o         1 X41     -0.915500
      5 O4          3.5750   -0.8350   -1.6410 os        1 X41     -0.564200
      6 C1          2.4090   -0.6020   -2.3050 c3        1 X41      0.234400
      7 C2          2.0970   -1.6810   -3.3780 c3        1 X41      0.091100
      8 C3          3.2990   -2.1090   -4.2180 c3        1 X41      0.144400
      9 O5          4.1010   -3.0390   -3.4970 os        1 X41     -0.457900
     10 C4          5.3640   -2.6150   -3.1170 c         1 X41      0.697100
     11 O6          5.9970   -1.9630   -3.9580 o         1 X41     -0.613000
     12 C5          5.7380   -3.0630   -1.7590 c3        1 X41     -0.217400
     13 C6          7.2150   -2.9590   -1.4720 c3        1 X41     -0.037400
     14 C7          7.4380   -2.9260    0.0270 c3        1 X41     -0.115400
     15 C8          8.8620   -2.5510    0.3710 c3        1 X41     -0.064400
     16 C9          9.0430   -2.4500    1.8710 c3        1 X41     -0.083400
     17 C10        10.4590   -2.0560    2.2350 c3        1 X41     -0.075400
     18 C11        10.6230   -1.9300    3.7350 c3        1 X41     -0.058200
     19 C12        12.0060   -1.5760    4.1300 c2        1 X41     -0.145200
     20 C13        12.4300   -1.5110    5.3970 c2        1 X41     -0.207200
     21 C14        11.5620   -1.7930    6.5640 c3        1 X41     -0.045200
     22 C15        12.2700   -1.5450    7.8800 c3        1 X41     -0.074400
     23 C16        11.3590   -1.8350    9.0550 c3        1 X41     -0.083400
     24 C17        12.0550   -1.5920   10.3690 c3        1 X41     -0.090100
     25 O7          1.5600   -2.8070   -2.6600 os        1 X41     -0.348900
     26 C18         0.7700   -3.6840   -3.3090 c         1 X41      0.630100
     27 O8          0.4580   -3.5150   -4.4990 o         1 X41     -0.623000
     28 C19         0.3500   -4.8190   -2.4170 c3        1 X41     -0.139400
     29 C20        -1.0450   -5.2960   -2.7530 c3        1 X41     -0.074400
     30 C21        -1.4090   -6.5170   -1.9350 c3        1 X41     -0.079400
     31 C22        -2.8130   -6.9880   -2.2490 c3        1 X41     -0.077400
     32 C23        -3.1790   -8.2100   -1.4350 c3        1 X41     -0.079400
     33 C24        -4.5830   -8.6810   -1.7470 c3        1 X41     -0.078400
     34 C25        -4.9480   -9.9040   -0.9330 c3        1 X41     -0.079400
     35 C26        -6.3530  -10.3740   -1.2450 c3        1 X41     -0.078400
     36 C27        -6.7170  -11.5970   -0.4300 c3        1 X41     -0.079400
     37 C28        -8.1210  -12.0680   -0.7420 c3        1 X41     -0.078400
     38 C29        -8.4860  -13.2900    0.0730 c3        1 X41     -0.079400
     39 C30        -9.8900  -13.7620   -0.2380 c3        1 X41     -0.080400
     40 C31       -10.2580  -14.9790    0.5710 c3        1 X41     -0.091100
     41 H2          2.4700    0.3560   -2.9110 h1        1 X41      0.012700
     42 H3          1.5370   -0.5530   -1.5900 h1        1 X41      0.012700
     43 H4          1.3060   -1.2910   -4.0780 h1        1 X41      0.023700
     44 H5          3.8870   -1.2000   -4.5080 h1        1 X41      0.042700
     45 H6          2.9530   -2.6660   -5.1310 h1        1 X41      0.042700
     46 H7          5.1510   -2.3490   -1.0280 hc        1 X41      0.152700
     47 H8          5.3490   -4.0920   -1.5640 hc        1 X41      0.152700
     48 H9          7.6150   -2.0180   -1.9350 hc        1 X41      0.013200
     49 H10         7.7740   -3.8180   -1.9290 hc        1 X41      0.013200
     50 H11         6.7050   -2.1840    0.4790 hc        1 X41      0.090700
     51 H12         7.1970   -3.9290    0.4650 hc        1 X41      0.090700
     52 H13         9.1130   -1.5650   -0.1020 hc        1 X41      0.016700
     53 H14         9.5760   -3.3100   -0.0450 hc        1 X41      0.016700
     54 H15         8.7930   -3.4340    2.3470 hc        1 X41      0.050200
     55 H16         8.3190   -1.6930    2.2760 hc        1 X41      0.050200
     56 H17        11.1780   -2.8210    1.8400 hc        1 X41      0.030700
     57 H18        10.7130   -1.0790    1.7460 hc        1 X41      0.030700
     58 H19        10.3280   -2.8970    4.2280 hc        1 X41      0.052700
     59 H20         9.9150   -1.1450    4.1220 hc        1 X41      0.052700
     60 H21        12.7000   -1.3530    3.3020 ha        1 X41      0.116000
     61 H22        13.4710   -1.2360    5.6250 ha        1 X41      0.107000
     62 H23        10.6380   -1.1530    6.5070 hc        1 X41      0.051200
     63 H24        11.2130   -2.8610    6.5210 hc        1 X41      0.051200
     64 H25        12.6140   -0.4780    7.9270 hc        1 X41      0.033700
     65 H26        13.1840   -2.1910    7.9450 hc        1 X41      0.033700
     66 H27        10.4450   -1.1880    8.9870 hc        1 X41      0.042700
     67 H28        11.0120   -2.9010    9.0040 hc        1 X41      0.042700
     68 H29        12.3860   -0.5280   10.4490 hc        1 X41      0.026700
     69 H30        12.9560   -2.2450   10.4660 hc        1 X41      0.026700
     70 H31        11.3670   -1.8110   11.2210 hc        1 X41      0.026700
     71 H32         1.0960   -5.6460   -2.5580 hc        1 X41      0.084200
     72 H33         0.4130   -4.4820   -1.3470 hc        1 X41      0.084200
     73 H34        -1.7790   -4.4730   -2.5510 hc        1 X41      0.047200
     74 H35        -1.1060   -5.5330   -3.8480 hc        1 X41      0.047200
     75 H36        -0.6800   -7.3430   -2.1450 hc        1 X41      0.040700
     76 H37        -1.3280   -6.2740   -0.8430 hc        1 X41      0.040700
     77 H38        -2.8950   -7.2250   -3.3420 hc        1 X41      0.036700
     78 H39        -3.5420   -6.1620   -2.0350 hc        1 X41      0.036700
     79 H40        -3.0960   -7.9710   -0.3420 hc        1 X41      0.039200
     80 H41        -2.4490   -9.0360   -1.6480 hc        1 X41      0.039200
     81 H42        -4.6660   -8.9190   -2.8400 hc        1 X41      0.036700
     82 H43        -5.3120   -7.8550   -1.5330 hc        1 X41      0.036700
     83 H44        -4.8660   -9.6650    0.1610 hc        1 X41      0.039200
     84 H45        -4.2190  -10.7290   -1.1460 hc        1 X41      0.039200
     85 H46        -6.4350  -10.6120   -2.3380 hc        1 X41      0.037700
     86 H47        -7.0820   -9.5490   -1.0310 hc        1 X41      0.037700
     87 H48        -5.9880  -12.4220   -0.6440 hc        1 X41      0.038700
     88 H49        -6.6340  -11.3580    0.6630 hc        1 X41      0.038700
     89 H50        -8.2040  -12.3060   -1.8350 hc        1 X41      0.038200
     90 H51        -8.8510  -11.2420   -0.5270 hc        1 X41      0.038200
     91 H52        -7.7570  -14.1160   -0.1420 hc        1 X41      0.039200
     92 H53        -8.4030  -13.0520    1.1660 hc        1 X41      0.039200
     93 H54        -9.9720  -13.9980   -1.3320 hc        1 X41      0.037200
     94 H55       -10.6180  -12.9340   -0.0240 hc        1 X41      0.037200
     95 H56       -10.2060  -14.7560    1.6640 hc        1 X41      0.029700
     96 H57       -11.2960  -15.3100    0.3270 hc        1 X41      0.029700
     97 H58        -9.5580  -15.8230    0.3530 hc        1 X41      0.029700
@<TRIPOS>BOND
     1    1    3 1   
     2    2    3 1   
     3    3    4 1   
     4    3    5 1   
     5    5    6 1   
     6    6    7 1   
     7    6   41 1   
     8    6   42 1   
     9    7    8 1   
    10    7   25 1   
    11    7   43 1   
    12    8    9 1   
    13    8   44 1   
    14    8   45 1   
    15    9   10 1   
    16   10   11 2   
    17   10   12 1   
    18   12   13 1   
    19   12   46 1   
    20   12   47 1   
    21   13   14 1   
    22   13   48 1   
    23   13   49 1   
    24   14   15 1   
    25   14   50 1   
    26   14   51 1   
    27   15   16 1   
    28   15   52 1   
    29   15   53 1   
    30   16   17 1   
    31   16   54 1   
    32   16   55 1   
    33   17   18 1   
    34   17   56 1   
    35   17   57 1   
    36   18   19 1   
    37   18   58 1   
    38   18   59 1   
    39   19   20 2   
    40   19   60 1   
    41   20   21 1   
    42   20   61 1   
    43   21   22 1   
    44   21   62 1   
    45   21   63 1   
    46   22   23 1   
    47   22   64 1   
    48   22   65 1   
    49   23   24 1   
    50   23   66 1   
    51   23   67 1   
    52   24   68 1   
    53   24   69 1   
    54   24   70 1   
    55   25   26 1   
    56   26   27 2   
    57   26   28 1   
    58   28   29 1   
    59   28   71 1   
    60   28   72 1   
    61   29   30 1   
    62   29   73 1   
    63   29   74 1   
    64   30   31 1   
    65   30   75 1   
    66   30   76 1   
    67   31   32 1   
    68   31   77 1   
    69   31   78 1   
    70   32   33 1   
    71   32   79 1   
    72   32   80 1   
    73   33   34 1   
    74   33   81 1   
    75   33   82 1   
    76   34   35 1   
    77   34   83 1   
    78   34   84 1   
    79   35   36 1   
    80   35   85 1   
    81   35   86 1   
    82   36   37 1   
    83   36   87 1   
    84   36   88 1   
    85   37   38 1   
    86   37   89 1   
    87   37   90 1   
    88   38   39 1   
    89   38   91 1   
    90   38   92 1   
    91   39   40 1   
    92   39   93 1   
    93   39   94 1   
    94   40   95 1   
    95   40   96 1   
    96   40   97 1   
@<TRIPOS>SUBSTRUCTURE
     1 X41         1 TEMP              0 ****  ****    0 ROOT
