@<TRIPOS>MOLECULE
X42
   40    42     1     0     0
SMALL
bcc


@<TRIPOS>ATOM
      1 N01         0.4670   -0.7160   -0.5710 nc        1 X42     -0.714000
      2 N02        -1.5740   -0.7780    0.7590 nu        1 X42     -0.681300
      3 N03         2.7320   -0.4490   -1.3860 nv        1 X42     -0.925500
      4 N04        -6.5220    2.1200   -2.1600 nz        1 X42     -0.779500
      5 C05         2.1450   -0.0870    0.9880 cd        1 X42     -0.411000
      6 C06         1.8340   -0.4290   -0.3620 cc        1 X42      0.701200
      7 C07        -0.1920   -0.5600    0.5980 cd        1 X42      0.568300
      8 C08        -2.5340   -0.4670   -0.1640 ca        1 X42      0.321600
      9 C09         3.4800    0.1640    1.4980 c         1 X42      0.638300
     10 C10         3.5860    0.4520    2.9500 ca        1 X42     -0.141600
     11 C11         4.6430   -0.1110    3.6730 ca        1 X42     -0.089000
     12 C12         4.7600    0.1300    5.0430 ca        1 X42     -0.102000
     13 C13         3.8380    0.9380    5.7010 ca        1 X42     -0.136000
     14 C14         2.7850    1.5190    4.9680 ca        1 X42      0.126900
     15 C15         2.6580    1.2790    3.5890 ca        1 X42     -0.164000
     16 C16        -3.8580   -0.9980   -0.0000 ca        1 X42     -0.215000
     17 C17        -4.8590   -0.6650   -0.8740 ca        1 X42      0.052000
     18 C18        -4.6510    0.2170   -1.9690 ca        1 X42     -0.658500
     19 C19        -3.3370    0.7420   -2.1160 ca        1 X42      0.052000
     20 C20        -2.3150    0.4280   -1.2580 ca        1 X42     -0.215000
     21 O21         4.4900    0.1050    0.7800 o         1 X42     -0.545100
     22 O22        -6.8980   -0.2880   -2.9520 o         1 X42     -0.580800
     23 O23        -5.3760    1.0890   -4.2040 o         1 X42     -0.580800
     24 F24         1.8870    2.3180    5.5920 f         1 X42     -0.133900
     25 S25         0.7650   -0.0700    1.9330 ss        1 X42      0.048700
     26 S26        -5.7780    0.5140   -3.0170 sy        1 X42      1.518200
     27 HN02       -1.8090   -1.4490    1.4660 hn        1 X42      0.469800
     28 HN03        3.6970   -0.3400   -1.1580 hn        1 X42      0.462800
     29 HN0A        2.4820   -0.8430   -2.2600 hn        1 X42      0.462800
     30 HN04       -7.5020    1.9720   -1.9340 hn        1 X42      0.445800
     31 HN0B       -6.4620    2.9120   -2.7930 hn        1 X42      0.445800
     32 H11         5.3850   -0.7360    3.1500 ha        1 X42      0.161000
     33 H12         5.5930   -0.3180    5.6070 ha        1 X42      0.154000
     34 H13         3.9250    1.1360    6.7800 ha        1 X42      0.162000
     35 H15         1.8570    1.7880    3.0280 ha        1 X42      0.150000
     36 H16        -4.0720   -1.6950    0.8280 ha        1 X42      0.178000
     37 H17        -5.8630   -1.1130   -0.7420 ha        1 X42      0.165000
     38 H19        -3.1330    1.4170   -2.9700 ha        1 X42      0.165000
     39 H20        -1.3170    0.8670   -1.4280 ha        1 X42      0.178000
     40 H043       -6.0310    2.3560   -1.3070 hn        1 X42      0.445800
@<TRIPOS>BOND
     1    1    6 1   
     2    1    7 2   
     3    2    7 1   
     4    2    8 1   
     5    2   27 1   
     6    3    6 1   
     7    3   28 1   
     8    3   29 1   
     9    4   26 1   
    10    4   30 1   
    11    4   31 1   
    12    4   40 1   
    13    5    6 2   
    14    5    9 1   
    15    5   25 1   
    16    7   25 1   
    17    8   16 ar  
    18    8   20 ar  
    19    9   10 1   
    20    9   21 2   
    21   10   11 ar  
    22   10   15 ar  
    23   11   12 ar  
    24   11   32 1   
    25   12   13 ar  
    26   12   33 1   
    27   13   14 ar  
    28   13   34 1   
    29   14   15 ar  
    30   14   24 1   
    31   15   35 1   
    32   16   17 ar  
    33   16   36 1   
    34   17   18 ar  
    35   17   37 1   
    36   18   19 ar  
    37   18   26 1   
    38   19   20 ar  
    39   19   38 1   
    40   20   39 1   
    41   22   26 2   
    42   23   26 2   
@<TRIPOS>SUBSTRUCTURE
     1 X42         1 TEMP              0 ****  ****    0 ROOT
