@<TRIPOS>MOLECULE
X42
   40    42     1     0     0
SMALL
bcc


@<TRIPOS>ATOM
      1 N01         0.4570   -0.7270   -0.5580 nc        1 X42     -0.714000
      2 N02        -1.5820   -0.7580    0.7770 nh        1 X42     -0.681300
      3 N03         2.7220   -0.4860   -1.3810 nh        1 X42     -0.925500
      4 N04        -6.5180    2.1180   -2.1860 n4        1 X42     -0.779500
      5 C05         2.1430   -0.0930    0.9900 cd        1 X42     -0.411000
      6 C06         1.8260   -0.4480   -0.3560 cc        1 X42      0.701200
      7 C07        -0.1990   -0.5520    0.6100 cd        1 X42      0.569300
      8 C08        -2.5410   -0.4570   -0.1500 ca        1 X42      0.321600
      9 C09         3.4810    0.1520    1.4940 c         1 X42      0.638300
     10 C10         3.5930    0.4540    2.9430 ca        1 X42     -0.141600
     11 C11         4.6470   -0.1100    3.6700 ca        1 X42     -0.089000
     12 C12         4.7690    0.1440    5.0370 ca        1 X42     -0.102000
     13 C13         3.8550    0.9660    5.6890 ca        1 X42     -0.136000
     14 C14         2.8050    1.5480    4.9530 ca        1 X42      0.126900
     15 C15         2.6730    1.2950    3.5760 ca        1 X42     -0.164000
     16 C16        -3.8690   -0.9760    0.0270 ca        1 X42     -0.215000
     17 C17        -4.8690   -0.6520   -0.8510 ca        1 X42      0.052000
     18 C18        -4.6580    0.2080   -1.9630 ca        1 X42     -0.658500
     19 C19        -3.3410    0.7220   -2.1210 ca        1 X42      0.052000
     20 C20        -2.3190    0.4170   -1.2600 ca        1 X42     -0.215000
     21 O21         4.4900    0.0780    0.7750 o         1 X42     -0.545100
     22 O22        -6.9100   -0.3010   -2.9320 o         1 X42     -0.580800
     23 O23        -5.3810    1.0420   -4.2120 o         1 X42     -0.580800
     24 F24         1.9150    2.3610    5.5700 f         1 X42     -0.133900
     25 S25         0.7650   -0.0550    1.9380 ss        1 X42      0.048700
     26 S26        -5.7850    0.4920   -3.0140 sy        1 X42      1.518200
     27 HN02       -1.8200   -1.4130    1.4980 hn        1 X42      0.469800
     28 HN03        3.6880   -0.3820   -1.1560 hn        1 X42      0.462800
     29 HN0A        2.4670   -0.8880   -2.2500 hn        1 X42      0.462800
     30 HN04       -6.4540    2.8970   -2.8340 hn        1 X42      0.445800
     31 HN0B       -6.0230    2.3680   -1.3380 hn        1 X42      0.445800
     32 H11         5.3830   -0.7460    3.1520 ha        1 X42      0.161000
     33 H12         5.6000   -0.3050    5.6040 ha        1 X42      0.154000
     34 H13         3.9460    1.1740    6.7650 ha        1 X42      0.162000
     35 H15         1.8750    1.8050    3.0120 ha        1 X42      0.150000
     36 H16        -4.0850   -1.6560    0.8680 ha        1 X42      0.178000
     37 H17        -5.8760   -1.0920   -0.7080 ha        1 X42      0.165000
     38 H19        -3.1340    1.3800   -2.9880 ha        1 X42      0.165000
     39 H20        -1.3190    0.8470   -1.4400 ha        1 X42      0.178000
     40 H043       -7.4970    1.9800   -1.9550 hn        1 X42      0.445800
@<TRIPOS>BOND
     1    1    6 1   
     2    1    7 2   
     3    2    7 1   
     4    2    8 1   
     5    2   27 1   
     6    3    6 1   
     7    3   28 1   
     8    3   29 1   
     9    4   26 1   
    10    4   30 1   
    11    4   31 1   
    12    4   40 1   
    13    5    6 2   
    14    5    9 1   
    15    5   25 1   
    16    7   25 1   
    17    8   16 ar  
    18    8   20 ar  
    19    9   10 1   
    20    9   21 2   
    21   10   11 ar  
    22   10   15 ar  
    23   11   12 ar  
    24   11   32 1   
    25   12   13 ar  
    26   12   33 1   
    27   13   14 ar  
    28   13   34 1   
    29   14   15 ar  
    30   14   24 1   
    31   15   35 1   
    32   16   17 ar  
    33   16   36 1   
    34   17   18 ar  
    35   17   37 1   
    36   18   19 ar  
    37   18   26 1   
    38   19   20 ar  
    39   19   38 1   
    40   20   39 1   
    41   22   26 2   
    42   23   26 2   
@<TRIPOS>SUBSTRUCTURE
     1 X42         1 TEMP              0 ****  ****    0 ROOT
