@<TRIPOS>MOLECULE
X42
   39    41     1     0     0
SMALL
bcc


@<TRIPOS>ATOM
      1 N01         0.0980    1.3690   -0.0100 nc        1 X42     -0.750000
      2 N02        -0.6450   -0.9500   -0.1610 nh        1 X42     -0.713300
      3 N03         1.3860    3.3980    0.2490 nh        1 X42     -0.934500
      4 N04        -6.9810   -1.2040    1.1610 n3        1 X42     -1.026700
      5 C05         2.4750    1.1920    0.0850 cd        1 X42     -0.421000
      6 C06         1.3330    2.0450    0.1080 cc        1 X42      0.727200
      7 C07         0.3230    0.0430   -0.0880 cd        1 X42      0.689300
      8 C08        -2.0320   -0.7170   -0.1520 ca        1 X42      0.207600
      9 C09         3.8440    1.6360    0.1000 c         1 X42      0.642300
     10 C10         4.8930    0.5830    0.0250 ca        1 X42     -0.128600
     11 C11         6.0090    0.8030   -0.7920 ca        1 X42     -0.097000
     12 C12         7.0050   -0.1660   -0.8910 ca        1 X42     -0.112000
     13 C13         6.9120   -1.3540   -0.1730 ca        1 X42     -0.148000
     14 C14         5.7990   -1.5680    0.6610 ca        1 X42      0.119900
     15 C15         4.7850   -0.5980    0.7620 ca        1 X42     -0.150000
     16 C16        -2.8680   -1.5490   -0.9390 ca        1 X42     -0.183500
     17 C17        -4.2450   -1.4010   -0.8870 ca        1 X42      0.005500
     18 C18        -4.8460   -0.4370   -0.0690 ca        1 X42     -0.411500
     19 C19        -4.0150    0.3860    0.6990 ca        1 X42      0.005500
     20 C20        -2.6320    0.2580    0.6740 ca        1 X42     -0.183500
     21 O21         4.1700    2.8370    0.1390 o         1 X42     -0.582100
     22 O22        -7.0450   -0.7490   -1.2530 o         1 X42     -0.659800
     23 O23        -6.8150    1.0900    0.2990 o         1 X42     -0.659800
     24 F24         5.7020   -2.7160    1.3750 f         1 X42     -0.138900
     25 S25         1.9990   -0.4250   -0.0190 ss        1 X42     -0.110300
     26 S26        -6.5210   -0.2480   -0.0410 sy        1 X42      1.531200
     27 HN02       -0.3560   -1.7620   -0.6680 hn        1 X42      0.442800
     28 HN03        0.5660    3.9440    0.1520 hn        1 X42      0.459300
     29 HN0A        2.2800    3.8350    0.2430 hn        1 X42      0.459300
     30 HN04       -7.0740   -0.9000    2.0970 hn        1 X42      0.446800
     31 HN0B       -7.2290   -2.1530    1.0410 hn        1 X42      0.446800
     32 H11         6.0920    1.7520   -1.3450 ha        1 X42      0.156000
     33 H12         7.8780    0.0100   -1.5400 ha        1 X42      0.143000
     34 H13         7.6950   -2.1230   -0.2430 ha        1 X42      0.151000
     35 H15         3.9340   -0.7740    1.4410 ha        1 X42      0.160000
     36 H16        -2.4340   -2.3150   -1.5990 ha        1 X42      0.152500
     37 H17        -4.8840   -2.0400   -1.5230 ha        1 X42      0.155500
     38 H19        -4.4710    1.1690    1.3320 ha        1 X42      0.155500
     39 H20        -2.0220    0.9220    1.3050 ha        1 X42      0.152500
@<TRIPOS>BOND
     1    1    6 1   
     2    1    7 2   
     3    2    7 1   
     4    2    8 1   
     5    2   27 1   
     6    3    6 1   
     7    3   28 1   
     8    3   29 1   
     9    4   26 1   
    10    4   30 1   
    11    4   31 1   
    12    5    6 2   
    13    5    9 1   
    14    5   25 1   
    15    7   25 1   
    16    8   16 ar  
    17    8   20 ar  
    18    9   10 1   
    19    9   21 2   
    20   10   11 ar  
    21   10   15 ar  
    22   11   12 ar  
    23   11   32 1   
    24   12   13 ar  
    25   12   33 1   
    26   13   14 ar  
    27   13   34 1   
    28   14   15 ar  
    29   14   24 1   
    30   15   35 1   
    31   16   17 ar  
    32   16   36 1   
    33   17   18 ar  
    34   17   37 1   
    35   18   19 ar  
    36   18   26 1   
    37   19   20 ar  
    38   19   38 1   
    39   20   39 1   
    40   22   26 2   
    41   23   26 2   
@<TRIPOS>SUBSTRUCTURE
     1 X42         1 TEMP              0 ****  ****    0 ROOT
