@<TRIPOS>MOLECULE
X42
   42    44     1     0     0
SMALL
bcc


@<TRIPOS>ATOM
      1 N01         0.0590   -1.5310    0.0340 nc        1 X42     -0.584000
      2 N02        -1.8550   -0.6690    1.3000 n4        1 X42     -0.590100
      3 N03         2.2670   -2.2370   -0.8590 n4        1 X42     -0.801300
      4 N04        -6.7650    1.5500   -2.6430 n4        1 X42     -0.808500
      5 C05         1.9710   -0.6790    1.1150 cd        1 X42     -0.290000
      6 C06         1.4390   -1.4890    0.0800 cc        1 X42      0.441200
      7 C07        -0.4160   -0.7590    1.0560 cd        1 X42      0.290300
      8 C08        -2.6340   -0.0460    0.2100 ca        1 X42      0.050600
      9 C09         3.4080   -0.4810    1.4490 c         1 X42      0.630300
     10 C10         3.5760    0.3190    2.6680 ca        1 X42     -0.161600
     11 C11         4.5660    0.0010    3.5890 ca        1 X42     -0.048000
     12 C12         4.6230    0.6900    4.8160 ca        1 X42     -0.049000
     13 C13         3.6940    1.6700    5.1200 ca        1 X42     -0.112000
     14 C14         2.7070    2.0200    4.1630 ca        1 X42      0.202900
     15 C15         2.6500    1.3610    2.9200 ca        1 X42     -0.295000
     16 C16        -2.9970   -0.8080   -0.9130 ca        1 X42     -0.114500
     17 C17        -3.7790   -0.2200   -1.9080 ca        1 X42      0.026500
     18 C18        -4.2060    1.1150   -1.8140 ca        1 X42     -0.434500
     19 C19        -3.8280    1.8540   -0.6810 ca        1 X42      0.026500
     20 C20        -3.0490    1.2920    0.3300 ca        1 X42     -0.114500
     21 O21         4.2850   -1.0190    0.7730 o         1 X42     -0.475100
     22 O22        -4.8560    1.1110   -4.2410 o         1 X42     -0.521300
     23 O23        -4.9010    3.2200   -2.9980 o         1 X42     -0.521300
     24 F24         1.8310    3.0080    4.4260 f         1 X42     -0.099900
     25 S25         0.7860    0.0110    2.0050 ss        1 X42      0.432700
     26 S26        -4.9780    1.8520   -3.0910 sy        1 X42      1.450200
     27 HN02       -1.9970   -0.1250    2.1660 hn        1 X42      0.489800
     28 HN03        3.2720   -2.0640   -0.6380 hn        1 X42      0.500133
     29 HN0A        2.0750   -1.9340   -1.8250 hn        1 X42      0.500133
     30 HN04       -7.2690    2.4410   -2.5500 hn        1 X42      0.479467
     31 HN0B       -6.9110    1.0360   -1.7760 hn        1 X42      0.479467
     32 H11         5.3050   -0.7910    3.3680 ha        1 X42      0.188000
     33 H12         5.4240    0.4420    5.5390 ha        1 X42      0.199000
     34 H13         3.7260    2.2110    6.0850 ha        1 X42      0.204000
     35 H15         2.1090    1.8710    2.1000 ha        1 X42      0.161000
     36 H16        -2.6750   -1.8600   -1.0330 ha        1 X42      0.193500
     37 H17        -4.0410   -0.8270   -2.8020 ha        1 X42      0.207000
     38 H19        -4.1280    2.9210   -0.5860 ha        1 X42      0.207000
     39 H20        -2.7800    1.9160    1.2020 ha        1 X42      0.193500
     40 H022       -2.2250   -1.6280    1.4490 hn        1 X42      0.489800
     41 H033        2.0720   -3.2470   -0.7770 hn        1 X42      0.500133
     42 H043       -7.2400    1.0250   -3.3870 hn        1 X42      0.479467
@<TRIPOS>BOND
     1    1    6 1   
     2    1    7 2   
     3    2    7 1   
     4    2    8 1   
     5    2   27 1   
     6    2   40 1   
     7    3    6 1   
     8    3   28 1   
     9    3   29 1   
    10    3   41 1   
    11    4   26 1   
    12    4   30 1   
    13    4   31 1   
    14    4   42 1   
    15    5    6 2   
    16    5    9 1   
    17    5   25 1   
    18    7   25 1   
    19    8   16 ar  
    20    8   20 ar  
    21    9   10 1   
    22    9   21 2   
    23   10   11 ar  
    24   10   15 ar  
    25   11   12 ar  
    26   11   32 1   
    27   12   13 ar  
    28   12   33 1   
    29   13   14 ar  
    30   13   34 1   
    31   14   15 ar  
    32   14   24 1   
    33   15   35 1   
    34   16   17 ar  
    35   16   36 1   
    36   17   18 ar  
    37   17   37 1   
    38   18   19 ar  
    39   18   26 1   
    40   19   20 ar  
    41   19   38 1   
    42   20   39 1   
    43   22   26 2   
    44   23   26 2   
@<TRIPOS>SUBSTRUCTURE
     1 X42         1 TEMP              0 ****  ****    0 ROOT
