@<TRIPOS>MOLECULE
X43
   41    35     1     0     0
SMALL
bcc


@<TRIPOS>ATOM
      1 N1         -0.1320    0.0790   -2.2700 n2        1 X43     -0.227000
      2 C2          1.4360    0.1300   -2.3240 c1        1 X43      0.214000
      3 N3          2.2290    0.1180   -3.5020 n2        1 X43     -0.642000
      4 C4          1.9350    0.1820   -0.9710 c1        1 X43     -0.608000
      5 C5          3.3880    0.2610   -0.5600 c1        1 X43      0.363000
      6 C6          4.0890   -0.9680   -0.0270 c2        1 X43     -0.141000
      7 C7          5.3970   -0.8780    0.4220 c2        1 X43     -0.023000
      8 C8          6.0580   -2.0130    0.8640 c1        1 X43     -0.138000
      9 C9          5.4100   -3.2380    0.8570 c1        1 X43     -0.099000
     10 C10         4.1020   -3.3280    0.4080 c1        1 X43     -0.099000
     11 C11         3.4420   -2.1930   -0.0340 c1        1 X43     -0.071000
     12 O12         3.9710    1.3260   -0.5940 o         1 X43     -0.337000
     13 S13         0.7350    0.1660   -0.0300 ss        1 X43      0.451000
     14 C14        -0.5380    0.1000   -0.9000 c1        1 X43     -0.064000
     15 N15        -1.8710   -0.0160   -0.4230 n2        1 X43     -0.236000
     16 C16        -2.5950    1.1470   -0.0490 c2        1 X43      0.122000
     17 N17         7.3750   -1.9110    1.3790 no        1 X43      0.569000
     18 O18         7.9020   -0.8150    1.4970 o         1 X43     -0.354500
     19 O19         8.0520   -3.0380    1.7510 o         1 X43     -0.354500
     20 C20        -3.1310    0.5830    1.0970 c2        1 X43     -0.204000
     21 C21        -4.4680    0.7790    1.4060 c1        1 X43      0.007000
     22 C22        -5.2690    1.5410    0.5690 c1        1 X43     -0.851000
     23 C23        -4.7320    2.1060   -0.5770 c1        1 X43      0.003000
     24 C24        -3.3950    1.9090   -0.8870 c1        1 X43     -0.157000
     25 S25        -7.0010    1.7100    0.9120 s4        1 X43      2.086800
     26 O26        -7.7640    1.8140   -0.3000 o         1 X43     -0.546400
     27 O27        -7.5400    0.5050    1.4790 o         1 X43     -0.546400
     28 N28        -7.2620    2.9990    1.8940 n2        1 X43     -0.642000
     29 HN3         3.1360    0.2120   -3.4430 hn        1 X43      0.250000
     30 HN3A        1.8350   -0.0140   -4.3160 hn        1 X43      0.250000
     31 H7          5.8540   -0.0150    0.4270 ha        1 X43      0.187000
     32 H9          5.8740   -4.0380    1.1690 ha        1 X43      0.163000
     33 H10         3.6450   -4.1910    0.4030 ha        1 X43      0.163000
     34 H11         2.5200   -2.2560   -0.3510 ha        1 X43      0.157000
     35 HN15       -2.2630   -0.8370   -0.3600 hn        1 X43      0.241000
     36 H20        -2.5680    0.0470    1.6870 ha        1 X43      0.140000
     37 H21        -4.8460    0.3810    2.2140 ha        1 X43      0.157000
     38 H23        -5.2960    2.6420   -1.1670 ha        1 X43      0.157000
     39 H24        -3.0170    2.3070   -1.6940 ha        1 X43      0.164000
     40 HN28       -7.6710    3.7480    1.5660 hn        1 X43      0.250000
     41 HN2A       -7.0270    2.9560    2.7770 hn        1 X43      0.250000
@<TRIPOS>BOND
     1    1    2 1   
     2    1   14 1   
     3    2    4 1   
     4    3   29 1   
     5    3   30 1   
     6    4   13 1   
     7    5    6 1   
     8    5   12 1   
     9    6    7 1   
    10    6   11 1   
    11    7    8 1   
    12    7   31 1   
    13    8   17 1   
    14    9   10 1   
    15    9   32 1   
    16   10   33 1   
    17   11   34 1   
    18   13   14 1   
    19   15   16 1   
    20   15   35 1   
    21   16   20 1   
    22   16   24 1   
    23   17   18 1   
    24   17   19 1   
    25   20   21 1   
    26   20   36 1   
    27   21   37 1   
    28   22   23 1   
    29   22   25 1   
    30   23   38 1   
    31   24   39 1   
    32   25   26 1   
    33   25   27 1   
    34   28   40 1   
    35   28   41 1   
@<TRIPOS>SUBSTRUCTURE
     1 X43         1 TEMP              0 ****  ****    0 ROOT
