@<TRIPOS>MOLECULE
X43
   41    43     1     0     0
SMALL
bcc


@<TRIPOS>ATOM
      1 N1          0.3490   -0.1340   -0.4820 nc        1 X43     -0.754000
      2 C2          1.7480   -0.2350   -0.2980 cc        1 X43      0.739200
      3 N3          2.5920   -0.2890   -1.3600 nh        1 X43     -0.934500
      4 C4          2.1630   -0.2800    1.0650 cd        1 X43     -0.424000
      5 C5          3.5270   -0.3490    1.5120 c         1 X43      0.643300
      6 C6          3.7550   -0.3560    2.9840 ca        1 X43     -0.160600
      7 C7          4.7840    0.4380    3.5020 ca        1 X43     -0.023000
      8 C8          5.0120    0.4410    4.8860 ca        1 X43     -0.183200
      9 C9          4.2410   -0.3550    5.7490 ca        1 X43     -0.054000
     10 C10         3.2340   -1.1530    5.2120 ca        1 X43     -0.145000
     11 C11         2.9880   -1.1540    3.8380 ca        1 X43     -0.072000
     12 O12         4.5010   -0.3780    0.7380 o         1 X43     -0.577100
     13 S13         0.8200   -0.1910    2.0910 ss        1 X43     -0.143300
     14 C14        -0.2560   -0.0920    0.7200 cd        1 X43      0.711300
     15 N15        -1.6150    0.0530    0.9500 nh        1 X43     -0.715300
     16 C16        -2.6030    0.1070   -0.0500 ca        1 X43      0.205600
     17 N17         6.0900    1.2970    5.4490 no        1 X43      0.314200
     18 O18         6.7270    1.9960    4.7080 o         1 X43     -0.204500
     19 O19         6.2930    1.2680    6.6340 o         1 X43     -0.204500
     20 C20        -3.8650   -0.4850    0.2110 ca        1 X43     -0.181500
     21 C21        -4.8870   -0.3850   -0.7200 ca        1 X43      0.005500
     22 C22        -4.7080    0.2940   -1.9310 ca        1 X43     -0.406500
     23 C23        -3.4590    0.8710   -2.1840 ca        1 X43      0.005500
     24 C24        -2.4170    0.7940   -1.2680 ca        1 X43     -0.181500
     25 S25        -5.9510    0.3770   -3.0700 sy        1 X43      1.531200
     26 O26        -5.3720    0.5020   -4.3510 o         1 X43     -0.658300
     27 O27        -6.8280   -0.7060   -2.8450 o         1 X43     -0.658300
     28 N28        -6.7000    1.7430   -2.6980 n3        1 X43     -1.027700
     29 HN3         3.5700   -0.3570   -1.1890 hn        1 X43      0.463800
     30 HN3A        2.2470   -0.2550   -2.2870 hn        1 X43      0.463800
     31 H7          5.4090    1.0450    2.8200 ha        1 X43      0.188000
     32 H9          4.4350   -0.3490    6.8350 ha        1 X43      0.173000
     33 H10         2.6320   -1.7890    5.8780 ha        1 X43      0.151000
     34 H11         2.1930   -1.8010    3.4250 ha        1 X43      0.155000
     35 HN15       -1.9230   -0.2940    1.8350 hn        1 X43      0.444800
     36 H20        -4.0440   -1.0320    1.1490 ha        1 X43      0.153000
     37 H21        -5.8580   -0.8720   -0.5140 ha        1 X43      0.156500
     38 H23        -3.2910    1.3900   -3.1460 ha        1 X43      0.156500
     39 H24        -1.4570    1.2760   -1.5100 ha        1 X43      0.153000
     40 HN28       -6.4710    2.6190   -3.0960 hn        1 X43      0.447300
     41 HN2A       -7.4610    1.7970   -2.0700 hn        1 X43      0.447300
@<TRIPOS>BOND
     1    1    2 1   
     2    1   14 2   
     3    2    3 1   
     4    2    4 2   
     5    3   29 1   
     6    3   30 1   
     7    4    5 1   
     8    4   13 1   
     9    5    6 1   
    10    5   12 2   
    11    6    7 ar  
    12    6   11 ar  
    13    7    8 ar  
    14    7   31 1   
    15    8    9 ar  
    16    8   17 1   
    17    9   10 ar  
    18    9   32 1   
    19   10   11 ar  
    20   10   33 1   
    21   11   34 1   
    22   13   14 1   
    23   14   15 1   
    24   15   16 1   
    25   15   35 1   
    26   16   20 ar  
    27   16   24 ar  
    28   17   18 1   
    29   17   19 1   
    30   20   21 ar  
    31   20   36 1   
    32   21   22 ar  
    33   21   37 1   
    34   22   23 ar  
    35   22   25 1   
    36   23   24 ar  
    37   23   38 1   
    38   24   39 1   
    39   25   26 2   
    40   25   27 2   
    41   25   28 1   
    42   28   40 1   
    43   28   41 1   
@<TRIPOS>SUBSTRUCTURE
     1 X43         1 TEMP              0 ****  ****    0 ROOT
