@<TRIPOS>MOLECULE
X43
   42    44     1     0     0
SMALL
bcc


@<TRIPOS>ATOM
      1 N1          0.2490    1.0240   -0.2920 nc        1 X43     -0.721000
      2 C2          1.6520    0.8810   -0.2050 cc        1 X43      0.708200
      3 N3          2.4660    1.1910   -1.2510 nv        1 X43     -0.924500
      4 C4          2.0960    0.3610    1.0470 cd        1 X43     -0.413000
      5 C5          3.4840    0.2110    1.4360 c         1 X43      0.639300
      6 C6          3.7370   -0.2950    2.8090 ca        1 X43     -0.175600
      7 C7          4.7390    0.3170    3.5690 ca        1 X43     -0.019000
      8 C8          4.9880   -0.1470    4.8690 ca        1 X43     -0.178200
      9 C9          4.2710   -1.2310    5.4000 ca        1 X43     -0.044000
     10 C10         3.2920   -1.8420    4.6190 ca        1 X43     -0.139000
     11 C11         3.0210   -1.3780    3.3320 ca        1 X43     -0.082000
     12 O12         4.4260    0.5180    0.6890 o         1 X43     -0.539100
     13 S13         0.7960    0.0080    2.0420 ss        1 X43      0.027700
     14 C14        -0.3050    0.5910    0.8600 cd        1 X43      0.590300
     15 N15        -1.6850    0.6070    1.1290 nu        1 X43     -0.687300
     16 C16        -2.6750    0.3940    0.2080 ca        1 X43      0.320600
     17 N17         6.0340    0.5180    5.6960 no        1 X43      0.314200
     18 O18         6.6090    1.4680    5.2430 o         1 X43     -0.192500
     19 O19         6.2610    0.0850    6.7930 o         1 X43     -0.192500
     20 C20        -4.0280    0.7330    0.5480 ca        1 X43     -0.213500
     21 C21        -5.0530    0.4840   -0.3250 ca        1 X43      0.051500
     22 C22        -4.8410   -0.1140   -1.5970 ca        1 X43     -0.652500
     23 C23        -3.4990   -0.4650   -1.9130 ca        1 X43      0.051500
     24 C24        -2.4520   -0.2260   -1.0620 ca        1 X43     -0.213500
     25 S25        -6.0310   -0.4570   -2.5600 sy        1 X43      1.515200
     26 O26        -5.7530   -1.3390   -3.5830 o         1 X43     -0.579300
     27 O27        -7.2960   -0.3600   -2.0190 o         1 X43     -0.579300
     28 N28        -6.0250    1.2040   -3.5960 nz        1 X43     -0.780500
     29 HN3         2.1080    1.6780   -2.0370 hn        1 X43      0.464300
     30 HN3A        3.4520    1.1590   -1.1010 hn        1 X43      0.464300
     31 H7          5.3280    1.1510    3.1420 ha        1 X43      0.191000
     32 H9          4.4850   -1.5960    6.4210 ha        1 X43      0.182000
     33 H10         2.7360   -2.7040    5.0220 ha        1 X43      0.157000
     34 H11         2.2600   -1.8910    2.7180 ha        1 X43      0.146000
     35 HN15       -1.9390    1.0440    1.9940 hn        1 X43      0.470800
     36 H20        -4.2490    1.1960    1.5250 ha        1 X43      0.178500
     37 H21        -6.0890    0.7450   -0.0310 ha        1 X43      0.166000
     38 H23        -3.3010   -0.9690   -2.8800 ha        1 X43      0.166000
     39 H24        -1.4350   -0.5300   -1.3620 ha        1 X43      0.178500
     40 HN28       -5.8730    1.0010   -4.5800 hn        1 X43      0.447467
     41 HN2A       -6.9210    1.6740   -3.5080 hn        1 X43      0.447467
     42 H283       -5.3000    1.8410   -3.2880 hn        1 X43      0.447467
@<TRIPOS>BOND
     1    1    2 1   
     2    1   14 2   
     3    2    3 1   
     4    2    4 2   
     5    3   29 1   
     6    3   30 1   
     7    4    5 1   
     8    4   13 1   
     9    5    6 1   
    10    5   12 2   
    11    6    7 ar  
    12    6   11 ar  
    13    7    8 ar  
    14    7   31 1   
    15    8    9 ar  
    16    8   17 1   
    17    9   10 ar  
    18    9   32 1   
    19   10   11 ar  
    20   10   33 1   
    21   11   34 1   
    22   13   14 1   
    23   14   15 1   
    24   15   16 1   
    25   15   35 1   
    26   16   20 ar  
    27   16   24 ar  
    28   17   18 1   
    29   17   19 1   
    30   20   21 ar  
    31   20   36 1   
    32   21   22 ar  
    33   21   37 1   
    34   22   23 ar  
    35   22   25 1   
    36   23   24 ar  
    37   23   38 1   
    38   24   39 1   
    39   25   26 2   
    40   25   27 2   
    41   25   28 1   
    42   28   40 1   
    43   28   41 1   
    44   28   42 1   
@<TRIPOS>SUBSTRUCTURE
     1 X43         1 TEMP              0 ****  ****    0 ROOT
