@<TRIPOS>MOLECULE
X43
   42    44     1     0     0
SMALL
bcc


@<TRIPOS>ATOM
      1 N1          0.2470    1.0260   -0.2930 nc        1 X43     -0.721000
      2 C2          1.6510    0.8900   -0.2020 cc        1 X43      0.708200
      3 N3          2.4660    1.2020   -1.2460 nh        1 X43     -0.924500
      4 C4          2.0940    0.3740    1.0530 cd        1 X43     -0.413000
      5 C5          3.4810    0.2310    1.4460 c         1 X43      0.639300
      6 C6          3.7320   -0.2730    2.8200 ca        1 X43     -0.175600
      7 C7          4.7290    0.3460    3.5830 ca        1 X43     -0.019000
      8 C8          4.9760   -0.1160    4.8840 ca        1 X43     -0.178200
      9 C9          4.2620   -1.2030    5.4150 ca        1 X43     -0.044000
     10 C10         3.2880   -1.8200    4.6300 ca        1 X43     -0.139000
     11 C11         3.0200   -1.3580    3.3430 ca        1 X43     -0.082000
     12 O12         4.4240    0.5410    0.7010 o         1 X43     -0.539100
     13 S13         0.7920    0.0170    2.0440 ss        1 X43      0.027700
     14 C14        -0.3080    0.5930    0.8580 cd        1 X43      0.590300
     15 N15        -1.6890    0.6030    1.1220 nh        1 X43     -0.687300
     16 C16        -2.6750    0.3850    0.1990 ca        1 X43      0.320600
     17 N17         6.0160    0.5540    5.7140 no        1 X43      0.314200
     18 O18         6.5880    1.5070    5.2610 o         1 X43     -0.192500
     19 O19         6.2410    0.1240    6.8120 o         1 X43     -0.192500
     20 C20        -4.0300    0.7180    0.5350 ca        1 X43     -0.213500
     21 C21        -5.0520    0.4640   -0.3410 ca        1 X43      0.051500
     22 C22        -4.8330   -0.1340   -1.6110 ca        1 X43     -0.652500
     23 C23        -3.4900   -0.4790   -1.9240 ca        1 X43      0.051500
     24 C24        -2.4460   -0.2340   -1.0700 ca        1 X43     -0.213500
     25 S25        -6.0200   -0.4840   -2.5770 sy        1 X43      1.515200
     26 O26        -5.7350   -1.3650   -3.5990 o         1 X43     -0.579300
     27 O27        -7.2870   -0.3920   -2.0400 o         1 X43     -0.579300
     28 N28        -6.0190    1.1760   -3.6150 n4        1 X43     -0.780500
     29 HN3         3.4520    1.1750   -1.0930 hn        1 X43      0.464300
     30 HN3A        2.1100    1.6860   -2.0330 hn        1 X43      0.464300
     31 H7          5.3150    1.1820    3.1570 ha        1 X43      0.191000
     32 H9          4.4750   -1.5650    6.4360 ha        1 X43      0.182000
     33 H10         2.7350   -2.6830    5.0330 ha        1 X43      0.157000
     34 H11         2.2630   -1.8750    2.7270 ha        1 X43      0.146000
     35 HN15       -1.9480    1.0390    1.9860 hn        1 X43      0.470800
     36 H20        -4.2570    1.1810    1.5110 ha        1 X43      0.178500
     37 H21        -6.0900    0.7200   -0.0500 ha        1 X43      0.166000
     38 H23        -3.2870   -0.9830   -2.8890 ha        1 X43      0.166000
     39 H24        -1.4260   -0.5340   -1.3670 ha        1 X43      0.178500
     40 HN28       -5.8630    0.9730   -4.5980 hn        1 X43      0.447467
     41 HN2A       -5.2980    1.8170   -3.3050 hn        1 X43      0.447467
     42 H283       -6.9180    1.6430   -3.5300 hn        1 X43      0.447467
@<TRIPOS>BOND
     1    1    2 1   
     2    1   14 2   
     3    2    3 1   
     4    2    4 2   
     5    3   29 1   
     6    3   30 1   
     7    4    5 1   
     8    4   13 1   
     9    5    6 1   
    10    5   12 2   
    11    6    7 ar  
    12    6   11 ar  
    13    7    8 ar  
    14    7   31 1   
    15    8    9 ar  
    16    8   17 1   
    17    9   10 ar  
    18    9   32 1   
    19   10   11 ar  
    20   10   33 1   
    21   11   34 1   
    22   13   14 1   
    23   14   15 1   
    24   15   16 1   
    25   15   35 1   
    26   16   20 ar  
    27   16   24 ar  
    28   17   18 1   
    29   17   19 1   
    30   20   21 ar  
    31   20   36 1   
    32   21   22 ar  
    33   21   37 1   
    34   22   23 ar  
    35   22   25 1   
    36   23   24 ar  
    37   23   38 1   
    38   24   39 1   
    39   25   26 2   
    40   25   27 2   
    41   25   28 1   
    42   28   40 1   
    43   28   41 1   
    44   28   42 1   
@<TRIPOS>SUBSTRUCTURE
     1 X43         1 TEMP              0 ****  ****    0 ROOT
