@<TRIPOS>MOLECULE
X43
   41    43     1     0     0
SMALL
bcc


@<TRIPOS>ATOM
      1 N1          0.5580   -1.1380   -0.5460 nc        1 X43     -0.754000
      2 C2         -0.7030   -1.7300   -0.7920 cc        1 X43      0.739200
      3 N3         -0.8050   -3.0340   -1.1580 nh        1 X43     -0.934500
      4 C4         -1.8120   -0.8490   -0.6290 cd        1 X43     -0.424000
      5 C5         -3.1910   -1.2180   -0.7900 c         1 X43      0.643300
      6 C6         -4.2060   -0.1560   -0.5450 ca        1 X43     -0.160600
      7 C7         -5.3500   -0.4850    0.1910 ca        1 X43     -0.023000
      8 C8         -6.3160    0.5030    0.4290 ca        1 X43     -0.183200
      9 C9         -6.1610    1.8040   -0.0790 ca        1 X43     -0.054000
     10 C10        -5.0260    2.1060   -0.8260 ca        1 X43     -0.145000
     11 C11        -4.0510    1.1360   -1.0580 ca        1 X43     -0.072000
     12 O12        -3.5620   -2.3660   -1.0940 o         1 X43     -0.577100
     13 S13        -1.2770    0.6890   -0.1710 ss        1 X43     -0.143300
     14 C14         0.3840    0.1500   -0.1950 cd        1 X43      0.711300
     15 N15         1.3790    1.0440    0.1670 nh        1 X43     -0.715300
     16 C16         2.7570    0.7660    0.1580 ca        1 X43      0.205600
     17 N17        -7.5250    0.1700    1.2280 no        1 X43      0.314200
     18 O18        -7.6360   -0.9360    1.6830 o         1 X43     -0.204500
     19 O19        -8.3580    1.0200    1.4000 o         1 X43     -0.204500
     20 C20         3.6550    1.8030   -0.2030 ca        1 X43     -0.181500
     21 C21         5.0240    1.5880   -0.1500 ca        1 X43      0.005500
     22 C22         5.5550    0.3580    0.2560 ca        1 X43     -0.406500
     23 C23         4.6630   -0.6620    0.6050 ca        1 X43      0.005500
     24 C24         3.2870   -0.4760    0.5690 ca        1 X43     -0.181500
     25 S25         7.2230    0.1010    0.2810 sy        1 X43      1.531200
     26 O26         7.4630   -1.2760    0.0820 o         1 X43     -0.658300
     27 O27         7.8230    1.0120   -0.6150 o         1 X43     -0.658300
     28 N28         7.6340    0.4920    1.7790 n3        1 X43     -1.027700
     29 HN3         0.0010   -3.5990   -1.2580 hn        1 X43      0.463800
     30 HN3A       -1.7100   -3.4140   -1.3200 hn        1 X43      0.463800
     31 H7         -5.4850   -1.5160    0.5700 ha        1 X43      0.188000
     32 H9         -6.9320    2.5710    0.1090 ha        1 X43      0.173000
     33 H10        -4.9010    3.1190   -1.2380 ha        1 X43      0.151000
     34 H11        -3.1610    1.3870   -1.6610 ha        1 X43      0.155000
     35 HN15        1.1370    2.0050    0.0400 hn        1 X43      0.444800
     36 H20         3.2780    2.7830   -0.5320 ha        1 X43      0.153000
     37 H21         5.7120    2.3960   -0.4570 ha        1 X43      0.156500
     38 H23         5.0640   -1.6480    0.9040 ha        1 X43      0.156500
     39 H24         2.6280   -1.3060    0.8660 ha        1 X43      0.153000
     40 HN28        7.9110    1.4010    2.0510 hn        1 X43      0.447300
     41 HN2A        7.6670   -0.1560    2.5240 hn        1 X43      0.447300
@<TRIPOS>BOND
     1    1    2 1   
     2    1   14 2   
     3    2    3 1   
     4    2    4 2   
     5    3   29 1   
     6    3   30 1   
     7    4    5 1   
     8    4   13 1   
     9    5    6 1   
    10    5   12 2   
    11    6    7 ar  
    12    6   11 ar  
    13    7    8 ar  
    14    7   31 1   
    15    8    9 ar  
    16    8   17 1   
    17    9   10 ar  
    18    9   32 1   
    19   10   11 ar  
    20   10   33 1   
    21   11   34 1   
    22   13   14 1   
    23   14   15 1   
    24   15   16 1   
    25   15   35 1   
    26   16   20 ar  
    27   16   24 ar  
    28   17   18 1   
    29   17   19 1   
    30   20   21 ar  
    31   20   36 1   
    32   21   22 ar  
    33   21   37 1   
    34   22   23 ar  
    35   22   25 1   
    36   23   24 ar  
    37   23   38 1   
    38   24   39 1   
    39   25   26 2   
    40   25   27 2   
    41   25   28 1   
    42   28   40 1   
    43   28   41 1   
@<TRIPOS>SUBSTRUCTURE
     1 X43         1 TEMP              0 ****  ****    0 ROOT
