@<TRIPOS>MOLECULE
X44
   46    48     1     0     0
SMALL
bcc


@<TRIPOS>ATOM
      1 N01         0.1840    0.9610   -0.3810 nc        1 X44     -0.740000
      2 N02        -1.7530    0.3440    0.9630 nu        1 X44     -0.706300
      3 N03         2.3870    1.5240   -1.1850 nv        1 X44     -0.910500
      4 N04        -6.4890    0.8820   -3.4690 nz        1 X44     -0.785500
      5 N05         6.5560    0.5810    7.2490 nz        1 X44     -0.791500
      6 C06         1.9810    0.9900    1.1920 cd        1 X44     -0.436000
      7 C07         1.5670    1.1760   -0.1670 cc        1 X44      0.750200
      8 C08        -0.4000    0.6210    0.7810 cd        1 X44      0.700300
      9 C09        -2.7140    0.1170   -0.0010 ca        1 X44      0.306600
     10 C10         3.3270    1.1650    1.6510 c         1 X44      0.626300
     11 C11         3.5980    0.9190    3.1040 ca        1 X44     -0.022600
     12 C12        -4.0800    0.0380    0.4220 ca        1 X44     -0.205500
     13 C13        -5.0800   -0.2330   -0.4810 ca        1 X44      0.050000
     14 C14        -4.8160   -0.4440   -1.8570 ca        1 X44     -0.616500
     15 C15        -3.4610   -0.3620   -2.2630 ca        1 X44      0.050000
     16 C16        -2.4380   -0.0900   -1.3810 ca        1 X44     -0.205500
     17 C17         3.9640   -0.3610    3.5420 ca        1 X44     -0.123500
     18 C18         4.3180   -0.5640    4.8680 ca        1 X44      0.009500
     19 C19         4.3210    0.5000    5.7980 ca        1 X44     -0.540500
     20 C20         3.9290    1.7760    5.3370 ca        1 X44      0.009500
     21 C21         3.5740    1.9860    4.0120 ca        1 X44     -0.123500
     22 O22         4.2760    1.5030    0.9270 o         1 X44     -0.534100
     23 O23        -7.1440   -1.2720   -2.2810 o         1 X44     -0.568300
     24 O24        -5.5240   -1.3970   -4.0660 o         1 X44     -0.568300
     25 O25         4.6870   -1.0740    7.7270 o         1 X44     -0.559800
     26 O26         4.2980    1.2630    8.1950 o         1 X44     -0.559800
     27 S27         0.6660    0.5440    2.1520 ss        1 X44     -0.085300
     28 S28        -5.9610   -0.8760   -2.8670 sy        1 X44      1.503200
     29 S29         4.6770    0.2490    7.3430 sy        1 X44      1.485200
     30 HN02       -2.0690    0.3930    1.9130 hn        1 X44      0.472800
     31 HN03        3.3540    1.6800   -0.9980 hn        1 X44      0.474800
     32 HN0A        2.0370    1.6530   -2.1050 hn        1 X44      0.474800
     33 HN04       -7.4730    1.0450   -3.2600 hn        1 X44      0.454133
     34 HN0B       -5.9500    1.6230   -3.0350 hn        1 X44      0.454133
     35 HN05        6.8700    0.8210    6.3130 hn        1 X44      0.461467
     36 HN0C        6.8130    1.3500    7.8690 hn        1 X44      0.461467
     37 H12        -4.3440    0.1860    1.4830 ha        1 X44      0.183000
     38 H13        -6.1250   -0.3100   -0.1200 ha        1 X44      0.172000
     39 H15        -3.2120   -0.5480   -3.3270 ha        1 X44      0.172000
     40 H16        -1.4060   -0.0570   -1.7700 ha        1 X44      0.183000
     41 H17         3.9840   -1.2050    2.8300 ha        1 X44      0.182000
     42 H18         4.5930   -1.5820    5.2070 ha        1 X44      0.175000
     43 H20         3.8940    2.6230    6.0500 ha        1 X44      0.175000
     44 H21         3.2870    2.9960    3.6710 ha        1 X44      0.182000
     45 H043       -6.3720    0.9580   -4.4780 hn        1 X44      0.454133
     46 H053        7.0780   -0.2420    7.5500 hn        1 X44      0.461467
@<TRIPOS>BOND
     1    1    7 1   
     2    1    8 2   
     3    2    8 1   
     4    2    9 1   
     5    2   30 1   
     6    3    7 1   
     7    3   31 1   
     8    3   32 1   
     9    4   28 1   
    10    4   33 1   
    11    4   34 1   
    12    4   45 1   
    13    5   29 1   
    14    5   35 1   
    15    5   36 1   
    16    5   46 1   
    17    6    7 2   
    18    6   10 1   
    19    6   27 1   
    20    8   27 1   
    21    9   12 ar  
    22    9   16 ar  
    23   10   11 1   
    24   10   22 2   
    25   11   17 ar  
    26   11   21 ar  
    27   12   13 ar  
    28   12   37 1   
    29   13   14 ar  
    30   13   38 1   
    31   14   15 ar  
    32   14   28 1   
    33   15   16 ar  
    34   15   39 1   
    35   16   40 1   
    36   17   18 ar  
    37   17   41 1   
    38   18   19 ar  
    39   18   42 1   
    40   19   20 ar  
    41   19   29 1   
    42   20   21 ar  
    43   20   43 1   
    44   21   44 1   
    45   23   28 2   
    46   24   28 2   
    47   25   29 2   
    48   26   29 2   
@<TRIPOS>SUBSTRUCTURE
     1 X44         1 TEMP              0 ****  ****    0 ROOT
