@<TRIPOS>MOLECULE
X44
   48    50     1     0     0
SMALL
bcc


@<TRIPOS>ATOM
      1 N01        -0.0970   -0.8270    0.0280 nc        1 X44     -0.554000
      2 N02        -2.0940   -0.1180    1.2820 n4        1 X44     -0.595100
      3 N03         2.1250   -1.4620   -0.8350 n4        1 X44     -0.801300
      4 N04        -6.9890    1.1210   -3.1370 n4        1 X44     -0.812500
      5 N05         6.4650    2.2900    7.0080 n4        1 X44     -0.808500
      6 C06         1.7500   -0.3290    1.4260 cd        1 X44     -0.275000
      7 C07         1.2740   -0.8730    0.1950 cc        1 X44      0.452200
      8 C08        -0.6420   -0.2480    1.1320 cd        1 X44      0.354300
      9 C09        -2.8500    0.2170    0.0540 ca        1 X44      0.038600
     10 C10         3.1890   -0.3130    1.8100 c         1 X44      0.618300
     11 C11         3.5900    0.0980    3.1740 ca        1 X44     -0.103600
     12 C12        -3.2710   -0.8110   -0.8050 ca        1 X44     -0.111000
     13 C13        -4.0580   -0.4890   -1.9140 ca        1 X44      0.027000
     14 C14        -4.4310    0.8360   -2.1890 ca        1 X44     -0.412500
     15 C15        -3.9930    1.8450   -1.3150 ca        1 X44      0.027000
     16 C16        -3.2050    1.5530   -0.2000 ca        1 X44     -0.111000
     17 C17         4.6390   -0.6040    3.7800 ca        1 X44     -0.105500
     18 C18         5.0940   -0.2260    5.0470 ca        1 X44      0.018500
     19 C19         4.5320    0.8690    5.7210 ca        1 X44     -0.434500
     20 C20         3.4910    1.5760    5.0870 ca        1 X44      0.018500
     21 C21         3.0150    1.1920    3.8360 ca        1 X44     -0.105500
     22 O22         4.0220   -0.6850    0.9770 o         1 X44     -0.468100
     23 O23        -5.0910    0.1940   -4.5240 o         1 X44     -0.514300
     24 O24        -5.0610    2.5670   -3.8960 o         1 X44     -0.514300
     25 O25         5.5140    0.1350    7.9180 o         1 X44     -0.524300
     26 O26         4.0820    2.1180    7.8480 o         1 X44     -0.524300
     27 S27         0.4930    0.2320    2.3190 ss        1 X44      0.376700
     28 S28        -5.2010    1.2280   -3.6270 sy        1 X44      1.441200
     29 S29         4.9610    1.2210    7.2870 sy        1 X44      1.449200
     30 HN02       -2.2830    0.6150    1.9870 hn        1 X44      0.494300
     31 HN03        3.0470   -0.9760   -0.8370 hn        1 X44      0.506800
     32 HN0A        2.2810   -2.4620   -0.6220 hn        1 X44      0.506800
     33 HN04       -7.4840    0.4300   -3.7180 hn        1 X44      0.484467
     34 HN0B       -7.1630    0.8650   -2.1660 hn        1 X44      0.484467
     35 HN05        7.2880    1.8810    7.4690 hn        1 X44      0.479800
     36 HN0C        6.7140    2.4350    6.0320 hn        1 X44      0.479800
     37 H12        -2.9990   -1.8690   -0.6330 ha        1 X44      0.191500
     38 H13        -4.3670   -1.3100   -2.5980 ha        1 X44      0.212500
     39 H15        -4.2500    2.9080   -1.5170 ha        1 X44      0.212500
     40 H16        -2.8880    2.3850    0.4560 ha        1 X44      0.191500
     41 H17         5.1200   -1.4540    3.2590 ha        1 X44      0.170500
     42 H18         5.9000   -0.8230    5.5240 ha        1 X44      0.199000
     43 H20         3.0300    2.4450    5.5990 ha        1 X44      0.199000
     44 H21         2.2160    1.7860    3.3610 ha        1 X44      0.170500
     45 H022       -2.4570   -1.0260    1.6350 hn        1 X44      0.494300
     46 H033        1.6940   -1.3810   -1.7700 hn        1 X44      0.506800
     47 H043       -7.4640    2.0200   -3.2960 hn        1 X44      0.484467
     48 H053        6.3320    3.2190    7.4250 hn        1 X44      0.479800
@<TRIPOS>BOND
     1    1    7 1   
     2    1    8 2   
     3    2    8 1   
     4    2    9 1   
     5    2   30 1   
     6    2   45 1   
     7    3    7 1   
     8    3   31 1   
     9    3   32 1   
    10    3   46 1   
    11    4   28 1   
    12    4   33 1   
    13    4   34 1   
    14    4   47 1   
    15    5   29 1   
    16    5   35 1   
    17    5   36 1   
    18    5   48 1   
    19    6    7 2   
    20    6   10 1   
    21    6   27 1   
    22    8   27 1   
    23    9   12 ar  
    24    9   16 ar  
    25   10   11 1   
    26   10   22 2   
    27   11   17 ar  
    28   11   21 ar  
    29   12   13 ar  
    30   12   37 1   
    31   13   14 ar  
    32   13   38 1   
    33   14   15 ar  
    34   14   28 1   
    35   15   16 ar  
    36   15   39 1   
    37   16   40 1   
    38   17   18 ar  
    39   17   41 1   
    40   18   19 ar  
    41   18   42 1   
    42   19   20 ar  
    43   19   29 1   
    44   20   21 ar  
    45   20   43 1   
    46   21   44 1   
    47   23   28 2   
    48   24   28 2   
    49   25   29 2   
    50   26   29 2   
@<TRIPOS>SUBSTRUCTURE
     1 X44         1 TEMP              0 ****  ****    0 ROOT
