@<TRIPOS>MOLECULE
X44
   46    48     1     0     0
SMALL
bcc


@<TRIPOS>ATOM
      1 N01         0.2000    0.9250   -0.3890 nc        1 X44     -0.740000
      2 N02        -1.7530    0.3640    0.9560 nh        1 X44     -0.706300
      3 N03         2.4160    1.4350   -1.1940 nh        1 X44     -0.910500
      4 N04        -6.4680    0.9230   -3.4960 n4        1 X44     -0.785500
      5 N05         6.5330    0.5680    7.2750 n4        1 X44     -0.791500
      6 C06         1.9910    0.9490    1.1910 cd        1 X44     -0.436000
      7 C07         1.5860    1.1190   -0.1730 cc        1 X44      0.750200
      8 C08        -0.3950    0.6150    0.7750 cd        1 X44      0.700300
      9 C09        -2.7140    0.1400   -0.0080 ca        1 X44      0.306600
     10 C10         3.3370    1.1090    1.6530 c         1 X44      0.626300
     11 C11         3.5980    0.8840    3.1110 ca        1 X44     -0.022600
     12 C12        -4.0830    0.0880    0.4120 ca        1 X44     -0.205500
     13 C13        -5.0850   -0.1790   -0.4900 ca        1 X44      0.050000
     14 C14        -4.8210   -0.4110   -1.8640 ca        1 X44     -0.616500
     15 C15        -3.4630   -0.3540   -2.2660 ca        1 X44      0.050000
     16 C16        -2.4380   -0.0880   -1.3850 ca        1 X44     -0.205500
     17 C17         3.9400   -0.3950    3.5730 ca        1 X44     -0.123500
     18 C18         4.2850   -0.5800    4.9040 ca        1 X44      0.009500
     19 C19         4.3030    0.5000    5.8140 ca        1 X44     -0.540500
     20 C20         3.9350    1.7740    5.3300 ca        1 X44      0.009500
     21 C21         3.5890    1.9670    4.0000 ca        1 X44     -0.123500
     22 O22         4.2950    1.4180    0.9270 o         1 X44     -0.534100
     23 O23        -7.1600   -1.2060   -2.2840 o         1 X44     -0.568300
     24 O24        -5.5370   -1.3780   -4.0630 o         1 X44     -0.568300
     25 O25         4.6330   -1.0460    7.7730 o         1 X44     -0.559800
     26 O26         4.2830    1.3060    8.1980 o         1 X44     -0.559800
     27 S27         0.6650    0.5430    2.1520 ss        1 X44     -0.085300
     28 S28        -5.9690   -0.8370   -2.8710 sy        1 X44      1.503200
     29 S29         4.6480    0.2710    7.3660 sy        1 X44      1.485200
     30 HN02       -2.0710    0.4300    1.9040 hn        1 X44      0.472800
     31 HN03        3.3850    1.5770   -1.0050 hn        1 X44      0.474800
     32 HN0A        2.0720    1.5550   -2.1170 hn        1 X44      0.474800
     33 HN04       -7.4490    1.1030   -3.2920 hn        1 X44      0.454133
     34 HN0B       -5.9180    1.6600   -3.0690 hn        1 X44      0.454133
     35 HN05        6.8010    1.3430    7.8820 hn        1 X44      0.461467
     36 HN0C        6.8560    0.7850    6.3360 hn        1 X44      0.461467
     37 H12        -4.3470    0.2530    1.4700 ha        1 X44      0.183000
     38 H13        -6.1320   -0.2350   -0.1320 ha        1 X44      0.172000
     39 H15        -3.2140   -0.5570   -3.3270 ha        1 X44      0.172000
     40 H16        -1.4050   -0.0760   -1.7710 ha        1 X44      0.183000
     41 H17         3.9480   -1.2510    2.8760 ha        1 X44      0.182000
     42 H18         4.5410   -1.5960    5.2620 ha        1 X44      0.175000
     43 H20         3.9120    2.6340    6.0270 ha        1 X44      0.175000
     44 H21         3.3210    2.9760    3.6390 ha        1 X44      0.182000
     45 H043       -6.3460    0.9840   -4.5060 hn        1 X44      0.454133
     46 H053        7.0390   -0.2590    7.5930 hn        1 X44      0.461467
@<TRIPOS>BOND
     1    1    7 1   
     2    1    8 2   
     3    2    8 1   
     4    2    9 1   
     5    2   30 1   
     6    3    7 1   
     7    3   31 1   
     8    3   32 1   
     9    4   28 1   
    10    4   33 1   
    11    4   34 1   
    12    4   45 1   
    13    5   29 1   
    14    5   35 1   
    15    5   36 1   
    16    5   46 1   
    17    6    7 2   
    18    6   10 1   
    19    6   27 1   
    20    8   27 1   
    21    9   12 ar  
    22    9   16 ar  
    23   10   11 1   
    24   10   22 2   
    25   11   17 ar  
    26   11   21 ar  
    27   12   13 ar  
    28   12   37 1   
    29   13   14 ar  
    30   13   38 1   
    31   14   15 ar  
    32   14   28 1   
    33   15   16 ar  
    34   15   39 1   
    35   16   40 1   
    36   17   18 ar  
    37   17   41 1   
    38   18   19 ar  
    39   18   42 1   
    40   19   20 ar  
    41   19   29 1   
    42   20   21 ar  
    43   20   43 1   
    44   21   44 1   
    45   23   28 2   
    46   24   28 2   
    47   25   29 2   
    48   26   29 2   
@<TRIPOS>SUBSTRUCTURE
     1 X44         1 TEMP              0 ****  ****    0 ROOT
