@<TRIPOS>MOLECULE
X44
   44    41     1     0     0
SMALL
bcc


@<TRIPOS>ATOM
      1 N01        -0.4750   -1.2540   -1.7530 n2        1 X44     -0.225000
      2 N02        -2.3420   -1.4410   -0.0380 n3        1 X44     -0.233000
      3 N03         1.9620   -1.1910   -2.7520 n3        1 X44     -0.331000
      4 N04        -8.1890    0.4250   -2.8460 n3        1 X44     -0.953500
      5 N05         6.8410    2.8490    3.8020 n3        1 X44     -0.953500
      6 C06         1.4770   -1.3140   -0.2840 c1        1 X44     -0.609000
      7 C07         1.0940   -1.2570   -1.6730 c2        1 X44      0.210000
      8 C08        -0.9940   -1.3080   -0.4280 c2        1 X44     -0.075000
      9 C09        -3.3700   -0.8870   -0.8390 c2        1 X44      0.124000
     10 C10         2.8980   -1.4950    0.2460 c1        1 X44      0.356000
     11 C11         3.4950   -0.4620    1.2050 c2        1 X44     -0.071000
     12 C12        -3.9900   -1.7000   -1.7710 c1        1 X44     -0.205000
     13 C13        -5.0260   -1.2020   -2.5440 c1        1 X44     -0.008500
     14 C14        -5.4420    0.1100   -2.3840 c1        1 X44     -0.833000
     15 C15        -4.8220    0.9240   -1.4510 c1        1 X44      0.004000
     16 C16        -3.7850    0.4260   -0.6780 c2        1 X44     -0.159000
     17 C17         4.7960   -0.8200    1.5350 c2        1 X44     -0.112000
     18 C18         5.4860   -0.1070    2.5050 c1        1 X44     -0.025000
     19 C19         4.8770    0.9620    3.1460 c1        1 X44     -0.833000
     20 C20         3.5780    1.3180    2.8160 c1        1 X44     -0.008500
     21 C21         2.8870    0.6060    1.8450 c1        1 X44     -0.141000
     22 O22         3.5650   -2.4550   -0.1090 o         1 X44     -0.339000
     23 O23        -6.5530    0.2960   -4.7910 o         1 X44     -0.937000
     24 O24        -6.5350    2.1900   -3.6300 o         1 X44     -0.937000
     25 O25         6.3430    0.9070    5.3630 o         1 X44     -0.937000
     26 O26         4.8170    2.5180    5.3010 o         1 X44     -0.937000
     27 S27         0.2020   -1.3480    0.5500 ss        1 X44      0.472000
     28 S28        -6.7010    0.7750   -3.4440 s6        1 X44      2.867000
     29 S29         5.7340    1.8240    4.4400 s6        1 X44      2.867000
     30 HN02       -2.5510   -1.8730    0.7350 hn        1 X44      0.239000
     31 HN03        2.8320   -0.9630   -2.6210 hn        1 X44      0.255500
     32 HN0A        1.6690   -1.4010   -3.5830 hn        1 X44      0.255500
     33 HN04       -8.5050   -0.4310   -2.8800 hn        1 X44      0.243250
     34 HN0B       -8.6840    1.0780   -2.4440 hn        1 X44      0.243250
     35 HN05        6.6360    3.7340    3.6940 hn        1 X44      0.243250
     36 HN0C        7.6420    2.5250    3.4990 hn        1 X44      0.243250
     37 H12        -3.6970   -2.6230   -1.8840 ha        1 X44      0.140000
     38 H13        -5.4620   -1.7760   -3.2010 ha        1 X44      0.156000
     39 H15        -5.1140    1.8460   -1.3380 ha        1 X44      0.156000
     40 H16        -3.3470    1.0010   -0.0180 ha        1 X44      0.165000
     41 H17         5.2240   -1.5710    1.0840 ha        1 X44      0.158000
     42 H18         6.4030   -0.3590    2.7380 ha        1 X44      0.156000
     43 H20         3.1490    2.0690    3.2660 ha        1 X44      0.156000
     44 H21         1.9770    0.8550    1.6150 ha        1 X44      0.152000
@<TRIPOS>BOND
     1    1    7 1   
     2    1    8 1   
     3    2    8 1   
     4    2    9 1   
     5    2   30 1   
     6    3    7 1   
     7    3   31 1   
     8    3   32 1   
     9    4   28 1   
    10    4   33 1   
    11    4   34 1   
    12    5   29 1   
    13    5   35 1   
    14    5   36 1   
    15    6    7 1   
    16    6   27 1   
    17    8   27 1   
    18    9   12 1   
    19    9   16 1   
    20   10   11 1   
    21   10   22 1   
    22   11   17 1   
    23   11   21 1   
    24   12   37 1   
    25   13   14 1   
    26   13   38 1   
    27   14   28 1   
    28   15   16 1   
    29   15   39 1   
    30   16   40 1   
    31   17   18 1   
    32   17   41 1   
    33   18   42 1   
    34   19   20 1   
    35   19   29 1   
    36   20   43 1   
    37   21   44 1   
    38   23   28 1   
    39   24   28 1   
    40   25   29 1   
    41   26   29 1   
@<TRIPOS>SUBSTRUCTURE
     1 X44         1 TEMP              0 ****  ****    0 ROOT
