@<TRIPOS>MOLECULE
X44
   44    46     1     0     0
SMALL
bcc


@<TRIPOS>ATOM
      1 N01        -1.3270    1.5660   -0.0190 nc        1 X44     -0.751000
      2 N02        -1.8220   -0.8230   -0.0400 nh        1 X44     -0.712300
      3 N03        -0.2610    3.7300    0.1300 nh        1 X44     -0.933500
      4 N04        -8.1330   -1.6700    1.1510 n3        1 X44     -1.027700
      5 N05         8.0390   -0.9440    1.0500 n3        1 X44     -1.026700
      6 C06         1.0540    1.6450    0.1160 cd        1 X44     -0.425000
      7 C07        -0.1710    2.3730    0.0730 cc        1 X44      0.731200
      8 C08        -0.9640    0.2680   -0.0140 cd        1 X44      0.695300
      9 C09        -3.2250   -0.7340   -0.0720 ca        1 X44      0.205600
     10 C10         2.3670    2.2290    0.1260 c         1 X44      0.636300
     11 C11         3.5160    1.2810    0.1100 ca        1 X44     -0.091600
     12 C12        -3.9520   -1.6850   -0.8300 ca        1 X44     -0.182000
     13 C13        -5.3380   -1.6760   -0.8150 ca        1 X44      0.005500
     14 C14        -6.0540   -0.7390   -0.0610 ca        1 X44     -0.409500
     15 C15        -5.3310    0.2020    0.6800 ca        1 X44      0.005500
     16 C16        -3.9420    0.2150    0.6900 ca        1 X44     -0.182000
     17 C17         4.5890    1.5280   -0.7540 ca        1 X44     -0.126500
     18 C18         5.6690    0.6500   -0.7880 ca        1 X44     -0.024500
     19 C19         5.7070   -0.4750    0.0430 ca        1 X44     -0.367500
     20 C20         4.6320   -0.7080    0.9080 ca        1 X44     -0.024500
     21 C21         3.5420    0.1580    0.9450 ca        1 X44     -0.126500
     22 O22         2.5730    3.4560    0.1190 o         1 X44     -0.578100
     23 O23        -8.1790   -1.3170   -1.2800 o         1 X44     -0.659300
     24 O24        -8.1750    0.5940    0.2000 o         1 X44     -0.659300
     25 O25         7.5850   -1.4820   -1.3050 o         1 X44     -0.656300
     26 O26         6.5640   -2.8120    0.4340 o         1 X44     -0.656300
     27 S27         0.7510   -0.0170    0.1020 ss        1 X44     -0.112300
     28 S28        -7.7410   -0.7200   -0.0780 sy        1 X44      1.531200
     29 S29         7.0140   -1.5530   -0.0180 sy        1 X44      1.525200
     30 HN02       -1.4390   -1.6320   -0.4870 hn        1 X44      0.443800
     31 HN03       -1.1320    4.1820   -0.0020 hn        1 X44      0.460300
     32 HN0A        0.5830    4.2580    0.1150 hn        1 X44      0.460300
     33 HN04       -8.2780   -1.3420    2.0720 hn        1 X44      0.446800
     34 HN0B       -8.2850   -2.6430    1.0630 hn        1 X44      0.446800
     35 HN05        8.7440   -0.2900    0.8210 hn        1 X44      0.449300
     36 HN0C        8.0480   -1.1960    2.0060 hn        1 X44      0.449300
     37 H12        -3.4260   -2.4360   -1.4410 ha        1 X44      0.152500
     38 H13        -5.8930   -2.4080   -1.4310 ha        1 X44      0.156000
     39 H15        -5.8800    0.9660    1.2610 ha        1 X44      0.156000
     40 H16        -3.4180    0.9690    1.2960 ha        1 X44      0.152500
     41 H17         4.5720    2.4220   -1.3980 ha        1 X44      0.155000
     42 H18         6.5020    0.8330   -1.4900 ha        1 X44      0.156000
     43 H20         4.6430   -1.6020    1.5560 ha        1 X44      0.156000
     44 H21         2.7100   -0.0360    1.6430 ha        1 X44      0.155000
@<TRIPOS>BOND
     1    1    7 1   
     2    1    8 2   
     3    2    8 1   
     4    2    9 1   
     5    2   30 1   
     6    3    7 1   
     7    3   31 1   
     8    3   32 1   
     9    4   28 1   
    10    4   33 1   
    11    4   34 1   
    12    5   29 1   
    13    5   35 1   
    14    5   36 1   
    15    6    7 2   
    16    6   10 1   
    17    6   27 1   
    18    8   27 1   
    19    9   12 ar  
    20    9   16 ar  
    21   10   11 1   
    22   10   22 2   
    23   11   17 ar  
    24   11   21 ar  
    25   12   13 ar  
    26   12   37 1   
    27   13   14 ar  
    28   13   38 1   
    29   14   15 ar  
    30   14   28 1   
    31   15   16 ar  
    32   15   39 1   
    33   16   40 1   
    34   17   18 ar  
    35   17   41 1   
    36   18   19 ar  
    37   18   42 1   
    38   19   20 ar  
    39   19   29 1   
    40   20   21 ar  
    41   20   43 1   
    42   21   44 1   
    43   23   28 2   
    44   24   28 2   
    45   25   29 2   
    46   26   29 2   
@<TRIPOS>SUBSTRUCTURE
     1 X44         1 TEMP              0 ****  ****    0 ROOT
