@<TRIPOS>MOLECULE
X45
   51    45     1     0     0
SMALL
bcc


@<TRIPOS>ATOM
      1 C1         -4.3930   -1.4640   -1.9850 c3        1 X45     -0.167000
      2 N1          0.3240   -3.0850    2.0010 n         1 X45     -0.329000
      3 O1         -3.0520   -0.1800   -3.9730 os        1 X45     -0.209000
      4 C2         -2.8950   -1.1000   -1.8870 c2        1 X45     -0.094000
      5 N2          1.1250   -1.6610    0.4370 n1        1 X45     -0.262000
      6 O2         -1.6020   -1.7390    2.5840 o         1 X45     -0.315000
      7 C3         -2.2890   -1.1940   -0.6360 c1        1 X45     -0.098000
      8 N3          2.2200   -3.7600    0.6710 n3        1 X45     -0.308000
      9 C4         -0.9500   -0.8370   -0.4800 c1        1 X45     -0.100000
     10 N4          4.4130    3.9120    2.4640 n1        1 X45     -0.139000
     11 C5         -0.2180   -0.3860   -1.5770 c1        1 X45     -0.065000
     12 C6         -0.8240   -0.2920   -2.8280 c1        1 X45     -0.209000
     13 C7         -2.1630   -0.6500   -2.9820 c2        1 X45      0.082000
     14 C8         -2.5790   -0.3530   -5.2960 c3        1 X45     -0.077000
     15 C9         -0.0700   -1.0220    0.6710 c2        1 X45      0.097000
     16 C10        -0.7040   -2.0170    1.8090 c2        1 X45      0.295000
     17 C11         1.3280   -2.7540    1.1470 c2        1 X45      0.178000
     18 C12         0.0970   -4.3890    2.5850 c3        1 X45     -0.068000
     19 C13         0.0000    0.3350    1.1490 c2        1 X45     -0.074000
     20 C14        -1.1270    0.9430    1.6720 c2        1 X45     -0.106000
     21 C15        -1.0670    2.2600    2.1080 c1        1 X45     -0.133000
     22 C16         0.1240    2.9660    2.0210 c1        1 X45     -0.097500
     23 C17         1.2530    2.3570    1.4980 c1        1 X45     -0.065000
     24 C18         1.1920    1.0410    1.0620 c1        1 X45     -0.086000
     25 C19         2.4500    3.0630    1.4160 c1        1 X45     -0.065000
     26 C20         2.8050    3.6730    0.2460 c1        1 X45     -0.097500
     27 C21         3.9570    4.4000    0.1790 c1        1 X45     -0.127500
     28 C22         4.7670    4.5200    1.2980 c1        1 X45     -0.127500
     29 C23         3.2610    3.1850    2.5330 c1        1 X45     -0.064000
     30 H1         -4.6140   -2.1320   -1.2990 hc        1 X45      0.086333
     31 H1A        -4.9370   -0.6570   -1.8440 hc        1 X45      0.086333
     32 H1B        -4.5830   -1.8360   -2.8770 hc        1 X45      0.086333
     33 H3         -2.8000   -1.5090    0.1300 ha        1 X45      0.156000
     34 HN3         2.3590   -4.5190    1.1650 hn        1 X45      0.208000
     35 HN3A        2.6780   -3.6320   -0.1120 hn        1 X45      0.208000
     36 H5          0.7200   -0.1350   -1.4690 ha        1 X45      0.148000
     37 H6         -0.3100    0.0250   -3.6000 ha        1 X45      0.137000
     38 H8         -3.3280   -0.2680   -5.9260 h1        1 X45      0.083667
     39 H8A        -1.9040    0.3320   -5.4950 h1        1 X45      0.083667
     40 H8B        -2.1760   -1.2440   -5.3860 h1        1 X45      0.083667
     41 H12         0.8240   -4.5960    3.2160 h1        1 X45      0.092000
     42 H12A        0.0770   -5.0650    1.8750 h1        1 X45      0.092000
     43 H12B       -0.7630   -4.3890    3.0630 h1        1 X45      0.092000
     44 H14        -1.9650    0.4470    1.7330 ha        1 X45      0.156000
     45 H15        -1.8630    2.6890    2.4770 ha        1 X45      0.137000
     46 H16         0.1670    3.8940    2.3290 ha        1 X45      0.139500
     47 H18         1.9890    0.6110    0.6920 ha        1 X45      0.153000
     48 H20         2.2350    3.5890   -0.5400 ha        1 X45      0.139500
     49 H21         4.2100    4.8360   -0.6580 ha        1 X45      0.150000
     50 H22         5.5920    5.0400    1.2490 ha        1 X45      0.150000
     51 H23         3.0080    2.7490    3.3690 ha        1 X45      0.162000
@<TRIPOS>BOND
     1    1    4 1   
     2    1   30 1   
     3    1   31 1   
     4    1   32 1   
     5    2   16 1   
     6    2   17 1   
     7    2   18 1   
     8    3   13 1   
     9    3   14 1   
    10    4    7 1   
    11    4   13 1   
    12    5   17 1   
    13    6   16 1   
    14    7   33 1   
    15    8   17 1   
    16    8   34 1   
    17    8   35 1   
    18    9   11 1   
    19    9   15 1   
    20   10   29 1   
    21   11   36 1   
    22   12   13 1   
    23   12   37 1   
    24   14   38 1   
    25   14   39 1   
    26   14   40 1   
    27   15   16 1   
    28   15   19 1   
    29   18   41 1   
    30   18   42 1   
    31   18   43 1   
    32   19   20 1   
    33   19   24 1   
    34   20   21 1   
    35   20   44 1   
    36   21   45 1   
    37   22   23 1   
    38   22   46 1   
    39   24   47 1   
    40   25   26 1   
    41   26   48 1   
    42   27   28 1   
    43   27   49 1   
    44   28   50 1   
    45   29   51 1   
@<TRIPOS>SUBSTRUCTURE
     1 X45         1 TEMP              0 ****  ****    0 ROOT
