@<TRIPOS>MOLECULE
X45
   51    53     1     0     0
SMALL
bcc


@<TRIPOS>ATOM
      1 C1          1.2020   -0.6940   -2.0130 c3        1 X45     -0.169000
      2 N1          3.5650   -1.4020    4.0740 n4        1 X45      0.146000
      3 O1          3.6260   -1.0000   -3.2630 os        1 X45     -0.206000
      4 C2          2.4670   -0.5200   -1.2650 ca        1 X45     -0.092000
      5 N2          4.9150    0.3440    2.9460 n2        1 X45     -0.232000
      6 O2          1.6030   -1.1280    2.7620 o         1 X45     -0.192000
      7 C3          2.4710   -0.1960    0.0880 ca        1 X45     -0.087000
      8 N3          5.9990   -0.9350    4.6980 n3        1 X45     -0.295000
      9 C4          3.6720   -0.0360    0.7970 ca        1 X45     -0.131000
     10 N4          1.6250    4.5660   10.0470 n1        1 X45     -0.048000
     11 C5          4.8880   -0.1910    0.1300 ca        1 X45     -0.065000
     12 C6          4.9110   -0.5140   -1.2280 ca        1 X45     -0.214000
     13 C7          3.7100   -0.6800   -1.9230 ca        1 X45      0.090000
     14 C8          4.8610   -1.1690   -3.9500 c3        1 X45     -0.078000
     15 C9          3.5990    0.3380    2.2660 c3        1 X45      0.129000
     16 C10         2.7390   -0.7480    2.9860 c2        1 X45      0.242000
     17 C11         4.9330   -0.5860    3.8780 c2        1 X45     -0.029000
     18 C13         2.9370    1.6710    2.4100 c2        1 X45     -0.033000
     19 C14         3.6120    2.9620    1.9100 c3        1 X45     -0.114000
     20 C15         2.6150    4.0820    2.2450 c2        1 X45     -0.081000
     21 C16         1.5700    3.4990    2.8310 cu        1 X45     -0.228000
     22 C17         0.5210    2.6540    3.4380 cx        1 X45      0.218000
     23 C18         1.7660    2.0310    2.9360 cu        1 X45     -0.227000
     24 C19         0.2570    2.7160    4.8330 c1        1 X45     -0.168000
     25 C20         3.3210    3.8500    7.0670 c2        1 X45     -0.150000
     26 C21         3.5080    4.3440    8.2920 c2        1 X45     -0.110000
     27 C22         2.4680    4.4630    9.2510 c1        1 X45     -0.107000
     28 C23         0.0170    2.7650    6.0040 c1        1 X45     -0.165000
     29 H1          1.1670   -1.7150   -2.4700 hc        1 X45      0.088333
     30 H1A         1.1440    0.0540   -2.8430 hc        1 X45      0.088333
     31 H1B         0.3150   -0.5650   -1.3470 hc        1 X45      0.088333
     32 H3          1.5100   -0.0690    0.6160 ha        1 X45      0.156000
     33 HN3         5.7110   -1.3130    5.5780 hn        1 X45      0.211000
     34 HN3A        6.7160   -0.2440    4.7760 hn        1 X45      0.211000
     35 H5          5.8490   -0.0550    0.6500 ha        1 X45      0.153000
     36 H6          5.8790   -0.6330   -1.7340 ha        1 X45      0.140000
     37 H8          5.4490   -2.0070   -3.5040 h1        1 X45      0.085333
     38 H8A         4.5440   -1.4210   -4.9940 h1        1 X45      0.085333
     39 H8B         5.4530   -0.2220   -3.9350 h1        1 X45      0.085333
     40 H12         3.7930   -2.3610    3.8070 hn        1 X45      0.228000
     41 H12A        3.2600   -2.1540    6.0290 hx        1 X45      0.143000
     42 H12B        2.5500   -0.4330    5.6690 hx        1 X45      0.143000
     43 H14         4.5810    3.1250    2.4420 hc        1 X45      0.126000
     44 H15         3.7950    2.9070    0.8100 hc        1 X45      0.126000
     45 H16         2.8160    5.1230    2.0060 ha        1 X45      0.156000
     46 H18        -0.4070    2.4820    2.8350 hc        1 X45      0.152000
     47 H20         2.3450    3.4950    6.7010 ha        1 X45      0.132000
     48 H21         4.1470    3.7710    6.3470 ha        1 X45      0.132000
     49 H22         4.4950    4.6960    8.6410 ha        1 X45      0.149000
     50 H23        -0.2110    2.8020    7.0400 ha        1 X45      0.232000
     51 C12         3.0650   -1.3320    5.3440 c2        1 X45     -0.717000
@<TRIPOS>BOND
     1    1    4 1   
     2    1   29 1   
     3    1   30 1   
     4    1   31 1   
     5    2   16 1   
     6    2   17 1   
     7    2   40 1   
     8    2   51 1   
     9    3   13 1   
    10    3   14 1   
    11    4    7 1   
    12    4   13 1   
    13    5   15 1   
    14    5   17 1   
    15    6   16 1   
    16    7    9 1   
    17    7   32 1   
    18    8   17 1   
    19    8   33 1   
    20    8   34 1   
    21    9   11 1   
    22    9   15 1   
    23   10   27 1   
    24   11   12 1   
    25   11   35 1   
    26   12   13 1   
    27   12   36 1   
    28   14   37 1   
    29   14   38 1   
    30   14   39 1   
    31   15   16 1   
    32   15   18 1   
    33   18   19 1   
    34   18   23 1   
    35   19   20 1   
    36   19   43 1   
    37   19   44 1   
    38   20   21 1   
    39   20   45 1   
    40   21   22 1   
    41   21   23 1   
    42   22   23 1   
    43   22   24 1   
    44   22   46 1   
    45   24   28 1   
    46   25   26 1   
    47   25   47 1   
    48   25   48 1   
    49   26   27 1   
    50   26   49 1   
    51   28   50 1   
    52   41   51 1   
    53   42   51 1   
@<TRIPOS>SUBSTRUCTURE
     1 X45         1 TEMP              0 ****  ****    0 ROOT
