@<TRIPOS>MOLECULE
X45
   51    54     1     0     0
SMALL
bcc


@<TRIPOS>ATOM
      1 C1          1.8560    3.7210   -1.3090 c3        1 X45     -0.041800
      2 N1          1.2270   -2.6840   -1.4910 n         1 X45     -0.440300
      3 O1          4.0190    3.8140    0.3790 os        1 X45     -0.324900
      4 C2          2.2200    2.5510   -0.4810 ca        1 X45     -0.100300
      5 N2          1.6360   -2.1920    0.7490 n2        1 X45     -0.670900
      6 O2          0.2630   -0.7010   -2.2560 o         1 X45     -0.588500
      7 C3          1.4830    1.3710   -0.5300 ca        1 X45     -0.087000
      8 N3          2.4630   -4.3170   -0.1040 nh        1 X45     -0.869800
      9 C4          1.8300    0.2590    0.2520 ca        1 X45     -0.117300
     10 N4         -5.0730    0.9710   -1.7880 nb        1 X45     -0.663000
     11 C5          2.9280    0.3440    1.1110 ca        1 X45     -0.068000
     12 C6          3.6840    1.5150    1.1780 ca        1 X45     -0.212000
     13 C7          3.3360    2.6130    0.3870 ca        1 X45      0.129100
     14 C8          5.1450    3.9020    1.2430 c3        1 X45      0.112700
     15 C9          0.9730   -0.9870    0.1780 c3        1 X45      0.184800
     16 C10         0.7530   -1.3620   -1.3380 c         1 X45      0.686500
     17 C11         1.7830   -3.0930   -0.2240 c2        1 X45      0.622800
     18 C13        -0.3420   -0.7220    0.8840 ca        1 X45     -0.069300
     19 C14        -0.3470   -0.6800    2.2850 ca        1 X45     -0.088000
     20 C15        -1.5330   -0.4290    2.9720 ca        1 X45     -0.138000
     21 C16        -2.7200   -0.2160    2.2750 ca        1 X45     -0.112000
     22 C17        -2.7260   -0.2480    0.8740 cp        1 X45     -0.041000
     23 C18        -1.5300   -0.5010    0.1850 ca        1 X45     -0.112000
     24 C19        -3.9630   -0.0200    0.1380 cp        1 X45     -0.148300
     25 C20        -5.1900   -0.5240    0.5950 ca        1 X45     -0.087000
     26 C21        -6.3460   -0.2770   -0.1450 ca        1 X45     -0.248300
     27 C22        -6.2390    0.4750   -1.3290 ca        1 X45      0.392200
     28 C23        -3.9660    0.7240   -1.0670 ca        1 X45      0.406200
     29 H1          1.6010    4.5900   -0.6510 hc        1 X45      0.047367
     30 H1A         2.7240    4.0210   -1.9490 hc        1 X45      0.047367
     31 H1B         0.9820    3.4980   -1.9680 hc        1 X45      0.047367
     32 H3          0.6100    1.3100   -1.2040 ha        1 X45      0.157000
     33 HN3         2.6280   -4.5900    0.8430 hn        1 X45      0.412800
     34 HN3A        2.0890   -5.0480   -0.6700 hn        1 X45      0.412800
     35 H5          3.2160   -0.5030    1.7520 ha        1 X45      0.150000
     36 H6          4.5460    1.5590    1.8580 ha        1 X45      0.137000
     37 H8          4.8370    3.7720    2.3090 h1        1 X45      0.044033
     38 H8A         5.9180    3.1450    0.9640 h1        1 X45      0.044033
     39 H8B         5.5280    4.9390    1.0670 h1        1 X45      0.044033
     40 H12         2.5640   -3.4740   -2.9190 h1        1 X45      0.052367
     41 H12A        0.9760   -4.3560   -2.7220 h1        1 X45      0.052367
     42 H12B        1.0180   -2.7280   -3.5580 h1        1 X45      0.052367
     43 H14         0.5880   -0.8400    2.8440 ha        1 X45      0.149000
     44 H15        -1.5300   -0.3960    4.0720 ha        1 X45      0.134000
     45 H16        -3.6510   -0.0110    2.8230 ha        1 X45      0.134000
     46 H18        -1.5460   -0.5180   -0.9180 ha        1 X45      0.155000
     47 H20        -5.2360   -1.1130    1.5220 ha        1 X45      0.140000
     48 H21        -7.3200   -0.6590    0.1850 ha        1 X45      0.142000
     49 H22        -7.1300    0.6950   -1.9440 h4        1 X45      0.021100
     50 H23        -3.0260    1.1460   -1.4670 h4        1 X45      0.031100
     51 C12         1.4640   -3.3440   -2.7310 c3        1 X45      0.087300
@<TRIPOS>BOND
     1    1    4 1   
     2    1   29 1   
     3    1   30 1   
     4    1   31 1   
     5    2   16 1   
     6    2   17 1   
     7    2   51 1   
     8    3   13 1   
     9    3   14 1   
    10    4    7 ar  
    11    4   13 ar  
    12    5   15 1   
    13    5   17 2   
    14    6   16 2   
    15    7    9 ar  
    16    7   32 1   
    17    8   17 1   
    18    8   33 1   
    19    8   34 1   
    20    9   11 ar  
    21    9   15 1   
    22   10   27 ar  
    23   10   28 ar  
    24   11   12 ar  
    25   11   35 1   
    26   12   13 ar  
    27   12   36 1   
    28   14   37 1   
    29   14   38 1   
    30   14   39 1   
    31   15   16 1   
    32   15   18 1   
    33   18   19 ar  
    34   18   23 ar  
    35   19   20 ar  
    36   19   43 1   
    37   20   21 ar  
    38   20   44 1   
    39   21   22 ar  
    40   21   45 1   
    41   22   23 ar  
    42   22   24 1   
    43   23   46 1   
    44   24   25 ar  
    45   24   28 ar  
    46   25   26 ar  
    47   25   47 1   
    48   26   27 ar  
    49   26   48 1   
    50   27   49 1   
    51   28   50 1   
    52   40   51 1   
    53   41   51 1   
    54   42   51 1   
@<TRIPOS>SUBSTRUCTURE
     1 X45         1 TEMP              0 ****  ****    0 ROOT
