@<TRIPOS>MOLECULE
X45
   52    65     1     0     0
SMALL
bcc


@<TRIPOS>ATOM
      1 C1          0.0000    0.0000    0.0000 c3        1 X45     -0.278000
      2 N1          4.7370   -1.8870    3.7070 nx        1 X45      0.358000
      3 O1          1.5220   -0.0070   -2.3790 os        1 X45     -0.106000
      4 C2          1.5060    0.0000    0.0000 c3        1 X45     -0.296000
      5 N2          5.7130   -0.4650    2.3030 n2        1 X45     -0.224000
      6 O2          2.6200   -1.0220    3.9240 o         1 X45     -0.083000
      7 C3          2.1990    0.0000    1.1960 c2        1 X45     -0.293000
      8 N3          7.0440   -2.2510    3.0690 nz        1 X45      0.378000
      9 C4          3.5810    0.0010    1.1960 c2        1 X45     -0.211000
     10 N4         -0.4180    3.5010    5.1760 n2        1 X45      0.023000
     11 C5          4.2750    0.0010   -0.0000 c3        1 X45     -0.287000
     12 C6          3.5880    0.0010   -1.1980 c2        1 X45     -0.368000
     13 C7          2.2000   -0.0060   -1.2010 c2        1 X45      0.241000
     14 C8          2.3030   -0.0010   -3.5770 c3        1 X45     -0.144000
     15 C9          4.3320    0.0020    2.5020 c3        1 X45      0.093000
     16 C10         3.7420   -1.0080    3.4670 c2        1 X45      0.108000
     17 C11         5.8700   -1.5400    3.0130 c2        1 X45      0.581000
     18 C13         4.3230    1.3790    3.1150 c3        1 X45     -0.180000
     19 C14         5.4900    2.1190    3.1680 c3        1 X45     -0.112000
     20 C15         5.4880    3.3830    3.7300 c3        1 X45     -0.208000
     21 C16         4.3200    3.9130    4.2400 c2        1 X45     -0.332000
     22 C17         3.1420    3.1710    4.1900 c2        1 X45      0.141000
     23 C18         3.1480    1.9010    3.6180 c2        1 X45     -0.058000
     24 C19         1.8830    3.7350    4.7370 c2        1 X45     -0.214000
     25 C20         1.8660    5.0100    5.3080 c3        1 X45      0.095000
     26 C21         0.6660    5.4910    5.8040 c3        1 X45     -0.357000
     27 C22        -0.4650    4.7020    5.7200 c3        1 X45     -0.242000
     28 C23         0.7000    3.0010    4.6900 c2        1 X45     -0.013000
     29 H1          0.6860   -0.5080    0.6670 DU        1 X45      0.123000
     30 H1A        -0.3610   -0.5400    0.8670 hc        1 X45      0.151000
     31 H1B        -0.3610    1.0210    0.0340 hc        1 X45      0.151000
     32 H3          1.3700   -0.1560    0.5160 ha        1 X45      0.402000
     33 HN3         6.1320   -1.8700    2.9110 DU        1 X45     -0.376500
     34 HN3A        7.2930   -2.8000    2.2710 hn        1 X45      0.092000
     35 H5          4.9890   -0.3730    0.7240 hc        1 X45      0.310000
     36 H6          4.4860    0.0020   -0.5910 DU        1 X45      0.355000
     37 H8          3.1540    0.0210   -2.9080 h1        1 X45      0.122667
     38 H8A         2.9200    0.8890   -3.6020 h1        1 X45      0.122667
     39 H8B         1.6440   -0.0080   -4.4370 h1        1 X45      0.122667
     40 H12         4.4150   -2.7780    3.5650 DU        1 X45      0.195000
     41 H12A        3.7510   -3.2620    5.1940 hx        1 X45      0.088500
     42 H12B        4.2770   -3.7870    3.8790 hx        1 X45      0.088500
     43 H14         5.4840    1.0770    3.4610 DU        1 X45      0.264000
     44 H15         5.9550    2.5370    3.2410 DU        1 X45      0.207000
     45 H16         5.3760    3.9380    4.0010 DU        1 X45      0.229000
     46 H18         3.5260    2.8510    3.9740 ha        1 X45      0.145000
     47 H20         2.0670    4.0420    4.8670 hc        1 X45      0.166000
     48 H21         1.7430    5.4960    5.6870 DU        1 X45      0.182000
     49 H22         0.0790    5.5980    5.9900 DU        1 X45      0.234000
     50 H23         0.0030    3.6870    5.1580 DU        1 X45      0.160000
     51 H33         6.2260   -1.6940    3.2200 DU        1 X45     -0.376500
     52 C12         4.6260   -3.0500    4.5920 c3        1 X45     -0.170000
@<TRIPOS>BOND
     1    1    4 1   
     2    1   29 1   
     3    1   30 1   
     4    1   31 1   
     5    2   16 1   
     6    2   17 1   
     7    2   40 1   
     8    2   52 1   
     9    3   13 1   
    10    3   14 1   
    11    4    7 1   
    12    4   13 1   
    13    4   29 1   
    14    5   15 1   
    15    5   17 1   
    16    6   16 1   
    17    7    9 1   
    18    7   32 1   
    19    8   17 1   
    20    8   33 1   
    21    8   34 1   
    22    8   51 1   
    23    9   11 1   
    24    9   15 1   
    25   10   27 1   
    26   10   28 1   
    27   11   12 1   
    28   11   35 1   
    29   11   36 1   
    30   12   13 1   
    31   12   36 1   
    32   14   37 1   
    33   14   38 1   
    34   14   39 1   
    35   15   16 1   
    36   15   18 1   
    37   18   19 1   
    38   18   23 1   
    39   18   43 1   
    40   19   20 1   
    41   19   43 1   
    42   19   44 1   
    43   20   21 1   
    44   20   44 1   
    45   20   45 1   
    46   21   22 1   
    47   21   45 1   
    48   22   23 1   
    49   22   24 1   
    50   23   46 1   
    51   24   25 1   
    52   24   28 1   
    53   25   26 1   
    54   25   47 1   
    55   25   48 1   
    56   26   27 1   
    57   26   48 1   
    58   26   49 1   
    59   27   49 1   
    60   27   50 1   
    61   28   50 1   
    62   33   51 1   
    63   40   52 1   
    64   41   52 1   
    65   42   52 1   
@<TRIPOS>SUBSTRUCTURE
     1 X45         1 TEMP              0 ****  ****    0 ROOT
