@<TRIPOS>MOLECULE
X46
   38    40     1     0     0
SMALL
bcc


@<TRIPOS>ATOM
      1 C1         -0.1910   -0.0200    0.0850 ca        1 X46     -0.189000
      2 N1          1.6100   -0.8800    7.1340 nc        1 X46     -0.759000
      3 S1          0.1930   -1.0460    4.9400 ss        1 X46     -0.132300
      4 C2          1.2030   -0.1420    0.0650 ca        1 X46      0.117100
      5 N2          3.4380    0.5120    6.3900 nh        1 X46     -0.943500
      6 C3          1.9590    0.0340    1.2380 ca        1 X46     -0.108000
      7 N3         -0.3850   -2.2740    7.2790 nh        1 X46     -0.698300
      8 O3          3.1780    1.1400    3.6330 o         1 X46     -0.588100
      9 C4         -0.0930    0.4500    2.4600 ca        1 X46     -0.147000
     10 C5         -0.8270    0.2830    1.2890 ca        1 X46     -0.101000
     11 O6          1.9470   -0.4380   -1.0620 os        1 X46     -0.323900
     12 C7          1.2180   -0.5840   -2.2750 c3        1 X46      0.112700
     13 C10         1.3020    0.3190    2.4350 ca        1 X46     -0.120600
     14 C11         2.1140    0.4930    3.6700 c         1 X46      0.643300
     15 C12         1.6220   -0.1430    4.8620 cd        1 X46     -0.421000
     16 C13         2.2750   -0.1430    6.1280 cc        1 X46      0.731200
     17 C14         0.4880   -1.4220    6.6170 cd        1 X46      0.693300
     18 C15        -0.3110   -2.5220    8.6710 ca        1 X46      0.125600
     19 C16        -1.4880   -2.4570    9.4510 ca        1 X46     -0.140000
     20 C17        -1.4490   -2.7800   10.8030 ca        1 X46     -0.114000
     21 C18        -0.2510   -3.1620   11.4050 ca        1 X46     -0.140000
     22 C19         0.9130   -3.2270   10.6420 ca        1 X46     -0.114000
     23 C20         0.8950   -2.9160    9.2850 ca        1 X46     -0.140000
     24 H1         -0.7860   -0.1530   -0.8290 ha        1 X46      0.138000
     25 HN2         3.8650    0.4520    7.2790 hn        1 X46      0.459300
     26 HN2A        3.8830    1.0010    5.6470 hn        1 X46      0.459300
     27 H3          3.0570   -0.0450    1.2040 ha        1 X46      0.166000
     28 HN3        -1.3170   -2.2550    6.9140 hn        1 X46      0.430800
     29 H4         -0.6080    0.7080    3.3990 ha        1 X46      0.145000
     30 H5         -1.9220    0.3930    1.3100 ha        1 X46      0.134000
     31 H7          0.6760    0.3590   -2.5270 h1        1 X46      0.044700
     32 H7A         2.0150   -0.7960   -3.0320 h1        1 X46      0.044700
     33 H7B         0.5040   -1.4400   -2.2050 h1        1 X46      0.044700
     34 H16        -2.4450   -2.1540    8.9980 ha        1 X46      0.142500
     35 H17        -2.3720   -2.7280   11.4000 ha        1 X46      0.135000
     36 H18        -0.2260   -3.4100   12.4760 ha        1 X46      0.135000
     37 H19         1.8620   -3.5290   11.1120 ha        1 X46      0.135000
     38 H20         1.8270   -2.9810    8.7030 ha        1 X46      0.142500
@<TRIPOS>BOND
     1    1    4 ar  
     2    1   10 ar  
     3    1   24 1   
     4    2   16 1   
     5    2   17 2   
     6    3   15 1   
     7    3   17 1   
     8    4    6 ar  
     9    4   11 1   
    10    5   16 1   
    11    5   25 1   
    12    5   26 1   
    13    6   13 ar  
    14    6   27 1   
    15    7   17 1   
    16    7   18 1   
    17    7   28 1   
    18    8   14 2   
    19    9   10 ar  
    20    9   13 ar  
    21    9   29 1   
    22   10   30 1   
    23   11   12 1   
    24   12   31 1   
    25   12   32 1   
    26   12   33 1   
    27   13   14 1   
    28   14   15 1   
    29   15   16 2   
    30   18   19 ar  
    31   18   23 ar  
    32   19   20 ar  
    33   19   34 1   
    34   20   21 ar  
    35   20   35 1   
    36   21   22 ar  
    37   21   36 1   
    38   22   23 ar  
    39   22   37 1   
    40   23   38 1   
@<TRIPOS>SUBSTRUCTURE
     1 X46         1 TEMP              0 ****  ****    0 ROOT
