@<TRIPOS>MOLECULE
X46
   38    40     1     0     0
SMALL
bcc


@<TRIPOS>ATOM
      1 C1         -4.7510    1.6410   -0.3100 ca        1 X46     -0.189000
      2 N1          1.9900   -1.2260   -0.2260 nc        1 X46     -0.759000
      3 S1          0.1120    0.5930   -0.1390 ss        1 X46     -0.132300
      4 C2         -4.9270    0.3810    0.2730 ca        1 X46      0.117100
      5 N2          0.6930   -3.1920   -0.7630 nh        1 X46     -0.943500
      6 C3         -3.9430   -0.6170    0.1430 ca        1 X46     -0.108000
      7 N3          2.7330    1.0180    0.3680 nh        1 X46     -0.698300
      8 O3         -2.0730   -2.5710   -0.9200 o         1 X46     -0.588100
      9 C4         -2.5960    0.9250   -1.1540 ca        1 X46     -0.147000
     10 C5         -3.5830    1.8990   -1.0270 ca        1 X46     -0.101000
     11 O6         -6.0380    0.0040    1.0040 os        1 X46     -0.323900
     12 C7         -7.0700    0.9760    1.1240 c3        1 X46      0.112700
     13 C10        -2.7750   -0.3330   -0.5630 ca        1 X46     -0.120600
     14 C11        -1.7390   -1.3950   -0.6830 c         1 X46      0.643300
     15 C12        -0.3730   -0.9910   -0.4810 cd        1 X46     -0.421000
     16 C13         0.7560   -1.8590   -0.4980 cc        1 X46      0.731200
     17 C14         1.7750    0.0860   -0.0040 cd        1 X46      0.693300
     18 C15         4.1210    0.7370    0.3650 ca        1 X46      0.125600
     19 C16         5.0140    1.6550   -0.2340 ca        1 X46     -0.140000
     20 C17         6.3860    1.4370   -0.1710 ca        1 X46     -0.114000
     21 C18         6.8960    0.3100    0.4710 ca        1 X46     -0.140000
     22 C19         6.0210   -0.6000    1.0620 ca        1 X46     -0.114000
     23 C20         4.6440   -0.3970    1.0190 ca        1 X46     -0.140000
     24 H1         -5.5170    2.4230   -0.2150 ha        1 X46      0.138000
     25 HN2         1.5050   -3.7540   -0.7310 hn        1 X46      0.459300
     26 HN2A       -0.1990   -3.6000   -0.9290 hn        1 X46      0.459300
     27 H3         -4.1040   -1.6110    0.5890 ha        1 X46      0.166000
     28 HN3         2.5040    1.9560    0.1060 hn        1 X46      0.430800
     29 H4         -1.6870    1.1370   -1.7400 ha        1 X46      0.145000
     30 H5         -3.4430    2.8840   -1.4970 ha        1 X46      0.134000
     31 H7         -6.6990    1.8810    1.6630 h1        1 X46      0.044700
     32 H7A        -7.4690    1.2550    0.1180 h1        1 X46      0.044700
     33 H7B        -7.8520    0.4500    1.7280 h1        1 X46      0.044700
     34 H16         4.6350    2.5500   -0.7490 ha        1 X46      0.142500
     35 H17         7.0720    2.1600   -0.6390 ha        1 X46      0.135000
     36 H18         7.9810    0.1400    0.5120 ha        1 X46      0.135000
     37 H19         6.4170   -1.4910    1.5720 ha        1 X46      0.135000
     38 H20         3.9740   -1.1270    1.4990 ha        1 X46      0.142500
@<TRIPOS>BOND
     1    1    4 ar  
     2    1   10 ar  
     3    1   24 1   
     4    2   16 1   
     5    2   17 2   
     6    3   15 1   
     7    3   17 1   
     8    4    6 ar  
     9    4   11 1   
    10    5   16 1   
    11    5   25 1   
    12    5   26 1   
    13    6   13 ar  
    14    6   27 1   
    15    7   17 1   
    16    7   18 1   
    17    7   28 1   
    18    8   14 2   
    19    9   10 ar  
    20    9   13 ar  
    21    9   29 1   
    22   10   30 1   
    23   11   12 1   
    24   12   31 1   
    25   12   32 1   
    26   12   33 1   
    27   13   14 1   
    28   14   15 1   
    29   15   16 2   
    30   18   19 ar  
    31   18   23 ar  
    32   19   20 ar  
    33   19   34 1   
    34   20   21 ar  
    35   20   35 1   
    36   21   22 ar  
    37   21   36 1   
    38   22   23 ar  
    39   22   37 1   
    40   23   38 1   
@<TRIPOS>SUBSTRUCTURE
     1 X46         1 TEMP              0 ****  ****    0 ROOT
