@<TRIPOS>MOLECULE
X46
   40    42     1     0     0
SMALL
bcc


@<TRIPOS>ATOM
      1 C1         -0.8500    0.6510    2.0570 ca        1 X46     -0.169000
      2 N1          3.5990   -2.0070    6.9990 nc        1 X46     -0.584000
      3 S1          1.4420   -1.1920    5.7960 ss        1 X46      0.446700
      4 C2          0.2310    0.2920    1.2410 ca        1 X46      0.172100
      5 N2          5.3620   -1.1840    5.4710 n4        1 X46     -0.800300
      6 C3          1.5080    0.0540    1.8080 ca        1 X46     -0.083000
      7 N3          1.5640   -2.6310    8.2030 n4        1 X46     -0.573100
      8 O3          4.0790    0.0690    3.2730 o         1 X46     -0.504100
      9 C4          0.5940    0.5740    4.0060 ca        1 X46     -0.229000
     10 C5         -0.6530    0.8030    3.4310 ca        1 X46     -0.052000
     11 O6          0.1750    0.1290   -0.1140 os        1 X46     -0.299900
     12 C7         -1.0630    0.4450   -0.7570 c3        1 X46      0.102700
     13 C10         1.6700    0.1800    3.1830 ca        1 X46     -0.159600
     14 C11         2.9720   -0.1400    3.7780 c         1 X46      0.635300
     15 C12         2.8740   -0.8440    5.0820 cd        1 X46     -0.311000
     16 C13         3.9620   -1.3430    5.8440 cc        1 X46      0.432200
     17 C14         2.2350   -1.9920    7.0710 cd        1 X46      0.319300
     18 C15         0.1030   -2.4780    8.1510 ca        1 X46     -0.109400
     19 C16        -0.6740   -3.4700    7.5210 ca        1 X46     -0.098500
     20 C17        -2.0620   -3.3610    7.5580 ca        1 X46     -0.098500
     21 C18        -2.6730   -2.2900    8.2150 ca        1 X46     -0.048000
     22 C19        -1.8940   -1.3130    8.8390 ca        1 X46     -0.098500
     23 C20        -0.5040   -1.3970    8.8180 ca        1 X46     -0.098500
     24 H1         -1.8450    0.8400    1.6220 ha        1 X46      0.175000
     25 HN2         5.4150   -0.7040    4.5470 hn        1 X46      0.496133
     26 HN2A        5.8180   -2.1060    5.4050 hn        1 X46      0.496133
     27 H3          2.3490   -0.2230    1.1510 ha        1 X46      0.187000
     28 HN3         1.9140   -2.2160    9.0840 hn        1 X46      0.484300
     29 H4          0.7530    0.8800    5.0550 ha        1 X46      0.131000
     30 H5         -1.4960    1.1340    4.0610 ha        1 X46      0.159000
     31 H7         -1.3400    1.5100   -0.5710 h1        1 X46      0.069033
     32 H7A        -0.8280    0.2760   -1.8410 h1        1 X46      0.069033
     33 H7B        -1.8670   -0.2480   -0.4110 h1        1 X46      0.069033
     34 H16        -0.2120   -4.3360    7.0190 ha        1 X46      0.164000
     35 H17        -2.6800   -4.1400    7.0750 ha        1 X46      0.188000
     36 H18        -3.7760   -2.2220    8.2510 ha        1 X46      0.189000
     37 H19        -2.3790   -0.4730    9.3690 ha        1 X46      0.188000
     38 H20         0.0930   -0.6290    9.3380 ha        1 X46      0.164000
     39 H23         5.8510   -0.6170    6.1780 hn        1 X46      0.496133
     40 H32         1.7980   -3.6390    8.2050 hn        1 X46      0.484300
@<TRIPOS>BOND
     1    1    4 ar  
     2    1   10 ar  
     3    1   24 1   
     4    2   16 1   
     5    2   17 2   
     6    3   15 1   
     7    3   17 1   
     8    4    6 ar  
     9    4   11 1   
    10    5   16 1   
    11    5   25 1   
    12    5   26 1   
    13    5   39 1   
    14    6   13 ar  
    15    6   27 1   
    16    7   17 1   
    17    7   18 1   
    18    7   28 1   
    19    7   40 1   
    20    8   14 2   
    21    9   10 ar  
    22    9   13 ar  
    23    9   29 1   
    24   10   30 1   
    25   11   12 1   
    26   12   31 1   
    27   12   32 1   
    28   12   33 1   
    29   13   14 1   
    30   14   15 1   
    31   15   16 2   
    32   18   19 ar  
    33   18   23 ar  
    34   19   20 ar  
    35   19   34 1   
    36   20   21 ar  
    37   20   35 1   
    38   21   22 ar  
    39   21   36 1   
    40   22   23 ar  
    41   22   37 1   
    42   23   38 1   
@<TRIPOS>SUBSTRUCTURE
     1 X46         1 TEMP              0 ****  ****    0 ROOT
