@<TRIPOS>MOLECULE
X46
   38    40     1     0     0
SMALL
bcc


@<TRIPOS>ATOM
      1 C1         -0.1860   -0.0260    0.0820 ca        1 X46     -0.189000
      2 N1          1.6060   -0.8760    7.1340 nc        1 X46     -0.759000
      3 S1          0.1920   -1.0450    4.9390 ss        1 X46     -0.132300
      4 C2          1.2080   -0.1460    0.0640 ca        1 X46      0.117100
      5 N2          3.4340    0.5180    6.3910 nv        1 X46     -0.943500
      6 C3          1.9620    0.0330    1.2380 ca        1 X46     -0.108000
      7 N3         -0.3880   -2.2710    7.2780 nu        1 X46     -0.698300
      8 O3          3.1750    1.1450    3.6340 o         1 X46     -0.588100
      9 C4         -0.0920    0.4480    2.4560 ca        1 X46     -0.147000
     10 C5         -0.8250    0.2780    1.2840 ca        1 X46     -0.101000
     11 O6          1.9550   -0.4420   -1.0610 os        1 X46     -0.323900
     12 C7          1.2280   -0.5920   -2.2750 c3        1 X46      0.112700
     13 C10         1.3030    0.3190    2.4330 ca        1 X46     -0.120600
     14 C11         2.1120    0.4960    3.6700 c         1 X46      0.643300
     15 C12         1.6190   -0.1400    4.8620 cd        1 X46     -0.421000
     16 C13         2.2710   -0.1390    6.1280 cc        1 X46      0.731200
     17 C14         0.4850   -1.4190    6.6170 cd        1 X46      0.693300
     18 C15        -0.3140   -2.5200    8.6700 ca        1 X46      0.125600
     19 C16        -1.4900   -2.4560    9.4500 ca        1 X46     -0.140000
     20 C17        -1.4510   -2.7800   10.8020 ca        1 X46     -0.114000
     21 C18        -0.2530   -3.1610   11.4040 ca        1 X46     -0.140000
     22 C19         0.9110   -3.2250   10.6410 ca        1 X46     -0.114000
     23 C20         0.8930   -2.9140    9.2840 ca        1 X46     -0.140000
     24 H1         -0.7790   -0.1610   -0.8330 ha        1 X46      0.138000
     25 HN2         3.8590    0.4600    7.2810 hn        1 X46      0.459300
     26 HN2A        3.8790    1.0080    5.6480 hn        1 X46      0.459300
     27 H3          3.0600   -0.0440    1.2060 ha        1 X46      0.166000
     28 HN3        -1.3190   -2.2530    6.9130 hn        1 X46      0.430800
     29 H4         -0.6100    0.7060    3.3940 ha        1 X46      0.145000
     30 H5         -1.9200    0.3860    1.3030 ha        1 X46      0.134000
     31 H7          0.6840    0.3500   -2.5300 h1        1 X46      0.044700
     32 H7A         2.0260   -0.8050   -3.0300 h1        1 X46      0.044700
     33 H7B         0.5150   -1.4490   -2.2040 h1        1 X46      0.044700
     34 H16        -2.4470   -2.1530    8.9970 ha        1 X46      0.142500
     35 H17        -2.3740   -2.7280   11.3990 ha        1 X46      0.135000
     36 H18        -0.2270   -3.4100   12.4750 ha        1 X46      0.135000
     37 H19         1.8600   -3.5270   11.1100 ha        1 X46      0.135000
     38 H20         1.8250   -2.9780    8.7010 ha        1 X46      0.142500
@<TRIPOS>BOND
     1    1    4 ar  
     2    1   10 ar  
     3    1   24 1   
     4    2   16 1   
     5    2   17 2   
     6    3   15 1   
     7    3   17 1   
     8    4    6 ar  
     9    4   11 1   
    10    5   16 1   
    11    5   25 1   
    12    5   26 1   
    13    6   13 ar  
    14    6   27 1   
    15    7   17 1   
    16    7   18 1   
    17    7   28 1   
    18    8   14 2   
    19    9   10 ar  
    20    9   13 ar  
    21    9   29 1   
    22   10   30 1   
    23   11   12 1   
    24   12   31 1   
    25   12   32 1   
    26   12   33 1   
    27   13   14 1   
    28   14   15 1   
    29   15   16 2   
    30   18   19 ar  
    31   18   23 ar  
    32   19   20 ar  
    33   19   34 1   
    34   20   21 ar  
    35   20   35 1   
    36   21   22 ar  
    37   21   36 1   
    38   22   23 ar  
    39   22   37 1   
    40   23   38 1   
@<TRIPOS>SUBSTRUCTURE
     1 X46         1 TEMP              0 ****  ****    0 ROOT
