@<TRIPOS>MOLECULE
X48
   23    24     1     0     0
SMALL
bcc


@<TRIPOS>ATOM
      1 O           0.1310   -1.0420   -0.2680 o         1 X48     -0.512100
      2 C           1.2810   -0.5980   -0.1360 c         1 X48      0.672700
      3 N           1.9320   -0.5890    1.1280 ne        1 X48     -0.632100
      4 C4          3.1480   -0.1380    1.2230 cf        1 X48      0.554900
      5 C3          3.9820    0.3990    0.0860 c3        1 X48     -0.146500
      6 C2          3.2740    0.4150   -1.2130 c2        1 X48     -0.189200
      7 C1          2.0140   -0.0510   -1.3210 ce        1 X48     -0.013100
      8 O1          1.3730   -0.0310   -2.5340 oh        1 X48     -0.487100
      9 C5          3.8170   -0.1020    2.5430 ca        1 X48     -0.163900
     10 C10         3.1270    0.3760    3.6640 ca        1 X48     -0.092000
     11 C9          3.7640    0.4280    4.9040 ca        1 X48     -0.135500
     12 C8          5.0820   -0.0060    5.0340 ca        1 X48     -0.108000
     13 C7          5.7660   -0.4980    3.9210 ca        1 X48     -0.135500
     14 C6          5.1380   -0.5470    2.6780 ca        1 X48     -0.092000
     15 H1          4.3100    1.4430    0.3490 hc        1 X48      0.090200
     16 H2          4.9140   -0.2260   -0.0120 hc        1 X48      0.090200
     17 H3          3.8190    0.8180   -2.0790 ha        1 X48      0.156000
     18 H4          0.4890   -0.4180   -2.4050 ho        1 X48      0.443000
     19 H5          2.0800    0.7060    3.5700 ha        1 X48      0.143000
     20 H6          3.2200    0.8080    5.7810 ha        1 X48      0.139000
     21 H7          5.5820    0.0330    6.0130 ha        1 X48      0.137000
     22 H8          6.8030   -0.8510    4.0240 ha        1 X48      0.139000
     23 H9          5.6830   -0.9500    1.8110 ha        1 X48      0.143000
@<TRIPOS>BOND
     1    1    2 2   
     2    2    3 1   
     3    2    7 1   
     4    3    4 2   
     5    4    5 1   
     6    4    9 1   
     7    5    6 1   
     8    5   15 1   
     9    5   16 1   
    10    6    7 2   
    11    6   17 1   
    12    7    8 1   
    13    8   18 1   
    14    9   10 ar  
    15    9   14 ar  
    16   10   11 ar  
    17   10   19 1   
    18   11   12 ar  
    19   11   20 1   
    20   12   13 ar  
    21   12   21 1   
    22   13   14 ar  
    23   13   22 1   
    24   14   23 1   
@<TRIPOS>SUBSTRUCTURE
     1 X48         1 TEMP              0 ****  ****    0 ROOT
