@<TRIPOS>MOLECULE
X48
   23    24     1     0     0
SMALL
bcc


@<TRIPOS>ATOM
      1 O          -2.8600   -1.7580   -0.9320 o         1 X48     -0.512100
      2 C          -2.1660   -0.8180   -0.5170 c         1 X48      0.672700
      3 N          -0.7460   -0.8870   -0.5230 ne        1 X48     -0.632100
      4 C4         -0.0500    0.1290   -0.1030 cf        1 X48      0.554900
      5 C3         -0.6130    1.4310    0.4110 c3        1 X48     -0.146500
      6 C2         -2.0910    1.4680    0.4430 c2        1 X48     -0.189200
      7 C1         -2.8190    0.4210    0.0080 ce        1 X48     -0.013100
      8 O1         -4.1900    0.4740    0.0420 oh        1 X48     -0.487100
      9 C5          1.4270    0.0480   -0.0810 ca        1 X48     -0.163900
     10 C10         2.0590   -1.0990    0.4160 ca        1 X48     -0.092000
     11 C9          3.4510   -1.1660    0.4540 ca        1 X48     -0.135500
     12 C8          4.2180   -0.1000   -0.0130 ca        1 X48     -0.108000
     13 C7          3.5910    1.0370   -0.5240 ca        1 X48     -0.135500
     14 C6          2.2000    1.1140   -0.5590 ca        1 X48     -0.092000
     15 H1         -0.2090    1.6070    1.4480 hc        1 X48      0.090200
     16 H2         -0.2380    2.2720   -0.2360 hc        1 X48      0.090200
     17 H3         -2.5630    2.3820    0.8310 ha        1 X48      0.156000
     18 H4         -4.5250   -0.3650   -0.3220 ho        1 X48      0.443000
     19 H5          1.4570   -1.9510    0.7720 ha        1 X48      0.143000
     20 H6          3.9430   -2.0680    0.8490 ha        1 X48      0.139000
     21 H7          5.3160   -0.1560    0.0150 ha        1 X48      0.137000
     22 H8          4.1940    1.8750   -0.9030 ha        1 X48      0.139000
     23 H9          1.7170    2.0100   -0.9770 ha        1 X48      0.143000
@<TRIPOS>BOND
     1    1    2 2   
     2    2    3 1   
     3    2    7 1   
     4    3    4 2   
     5    4    5 1   
     6    4    9 1   
     7    5    6 1   
     8    5   15 1   
     9    5   16 1   
    10    6    7 2   
    11    6   17 1   
    12    7    8 1   
    13    8   18 1   
    14    9   10 ar  
    15    9   14 ar  
    16   10   11 ar  
    17   10   19 1   
    18   11   12 ar  
    19   11   20 1   
    20   12   13 ar  
    21   12   21 1   
    22   13   14 ar  
    23   13   22 1   
    24   14   23 1   
@<TRIPOS>SUBSTRUCTURE
     1 X48         1 TEMP              0 ****  ****    0 ROOT
