@<TRIPOS>MOLECULE
X48
   23    24     1     0     0
SMALL
bcc


@<TRIPOS>ATOM
      1 O           0.1730   -1.1270   -0.2860 o         1 X48     -0.512100
      2 C           1.3100   -0.6530   -0.1480 c         1 X48      0.672700
      3 N           1.9550   -0.6310    1.1190 ne        1 X48     -0.632100
      4 C4          3.1580   -0.1490    1.2220 cf        1 X48      0.554900
      5 C3          3.9820    0.4140    0.0900 c3        1 X48     -0.146500
      6 C2          3.2800    0.4160   -1.2120 c2        1 X48     -0.189200
      7 C1          2.0340   -0.0830   -1.3270 ce        1 X48     -0.013100
      8 O1          1.3990   -0.0760   -2.5430 oh        1 X48     -0.487100
      9 C5          3.8200   -0.1000    2.5450 ca        1 X48     -0.163900
     10 C10         3.1120    0.3550    3.6650 ca        1 X48     -0.092000
     11 C9          3.7420    0.4200    4.9070 ca        1 X48     -0.135500
     12 C8          5.0710    0.0200    5.0420 ca        1 X48     -0.108000
     13 C7          5.7720   -0.4490    3.9310 ca        1 X48     -0.135500
     14 C6          5.1520   -0.5100    2.6850 ca        1 X48     -0.092000
     15 H1          4.2810    1.4660    0.3590 hc        1 X48      0.090200
     16 H2          4.9310   -0.1860   -0.0050 hc        1 X48      0.090200
     17 H3          3.8180    0.8370   -2.0730 ha        1 X48      0.156000
     18 H4          0.5240   -0.4860   -2.4200 ho        1 X48      0.443000
     19 H5          2.0570    0.6580    3.5670 ha        1 X48      0.143000
     20 H6          3.1830    0.7820    5.7830 ha        1 X48      0.139000
     21 H7          5.5640    0.0690    6.0240 ha        1 X48      0.137000
     22 H8          6.8170   -0.7760    4.0370 ha        1 X48      0.139000
     23 H9          5.7100   -0.8960    1.8190 ha        1 X48      0.143000
@<TRIPOS>BOND
     1    1    2 2   
     2    2    3 1   
     3    2    7 1   
     4    3    4 2   
     5    4    5 1   
     6    4    9 1   
     7    5    6 1   
     8    5   15 1   
     9    5   16 1   
    10    6    7 2   
    11    6   17 1   
    12    7    8 1   
    13    8   18 1   
    14    9   10 ar  
    15    9   14 ar  
    16   10   11 ar  
    17   10   19 1   
    18   11   12 ar  
    19   11   20 1   
    20   12   13 ar  
    21   12   21 1   
    22   13   14 ar  
    23   13   22 1   
    24   14   23 1   
@<TRIPOS>SUBSTRUCTURE
     1 X48         1 TEMP              0 ****  ****    0 ROOT
