@<TRIPOS>MOLECULE
X4A
   23    23     1     0     0
SMALL
bcc


@<TRIPOS>ATOM
      1 OP3         3.0940   -0.0880   -0.0770 o         1 X4A     -0.920500
      2 P           2.0880   -1.1830    0.1070 p5        1 X4A      1.330900
      3 OP1         2.5090   -2.5900   -0.1760 o         1 X4A     -0.920500
      4 OP2         1.1430   -0.9830    1.2820 o         1 X4A     -0.920500
      5 O5'         0.9160   -0.8430   -1.1320 os        1 X4A     -0.569200
      6 C5'         0.4000    0.4250   -1.0790 c3        1 X4A      0.216400
      7 C4'        -0.9540    0.4610   -0.3160 c3        1 X4A      0.277600
      8 O4A        -0.8380    0.9600    0.9930 oh        1 X4A     -0.692800
      9 O4'        -1.8350    1.4350   -0.9100 os        1 X4A     -0.452600
     10 C1'        -3.1780    1.0280   -0.7110 c3        1 X4A      0.336900
     11 O1A        -3.6330    1.7540    0.4090 oh        1 X4A     -0.668800
     12 C3'        -1.7270   -0.8930   -0.3330 c3        1 X4A      0.135100
     13 C2'        -3.2030   -0.4910   -0.4800 c3        1 X4A     -0.140400
     14 O3'        -1.5600   -1.6260    0.8540 oh        1 X4A     -0.670800
     15 H5'         0.1980    0.7930   -2.1250 h1        1 X4A      0.013200
     16 H5''        1.1100    1.1290   -0.5590 h1        1 X4A      0.013200
     17 H4A        -0.0970    0.4630    1.4130 ho        1 X4A      0.499000
     18 H1'        -3.7870    1.3760   -1.5850 h2        1 X4A      0.048700
     19 H1A        -2.9330    1.6990    1.0800 ho        1 X4A      0.443000
     20 H3'        -1.3770   -1.5040   -1.2080 h1        1 X4A      0.061700
     21 H2'        -3.7720   -0.7390    0.4470 hc        1 X4A      0.040700
     22 H2''       -3.6750   -1.0090   -1.3470 hc        1 X4A      0.040700
     23 HO3'       -0.5850   -1.6210    1.0500 ho        1 X4A      0.500000
@<TRIPOS>BOND
     1    1    2 1   
     2    2    3 1   
     3    2    4 1   
     4    2    5 1   
     5    5    6 1   
     6    6    7 1   
     7    6   15 1   
     8    6   16 1   
     9    7    8 1   
    10    7    9 1   
    11    7   12 1   
    12    8   17 1   
    13    9   10 1   
    14   10   11 1   
    15   10   13 1   
    16   10   18 1   
    17   11   19 1   
    18   12   13 1   
    19   12   14 1   
    20   12   20 1   
    21   13   21 1   
    22   13   22 1   
    23   14   23 1   
@<TRIPOS>SUBSTRUCTURE
     1 X4A         1 TEMP              0 ****  ****    0 ROOT
