@<TRIPOS>MOLECULE
X4B
   32    33     1     0     0
SMALL
bcc


@<TRIPOS>ATOM
      1 N01         0.6560    3.7390    0.0610 n         1 X4B     -0.661000
      2 N02        -1.2830    0.1570   -0.1720 nh        1 X4B     -0.748600
      3 N03        -5.7720   -1.0750   -1.0570 nb        1 X4B     -0.661000
      4 N04         4.3970    0.0910    0.1800 no        1 X4B      0.326200
      5 C05         2.2180    1.2460    0.3150 ca        1 X4B      0.010000
      6 C06         0.8320    1.2980    0.2480 ca        1 X4B     -0.241600
      7 C07         0.0840    0.1240   -0.0850 ca        1 X4B      0.288600
      8 C08         0.8150   -1.0610   -0.3830 ca        1 X4B     -0.243000
      9 C09         2.2020   -1.0970   -0.3220 ca        1 X4B      0.139400
     10 C10         2.9190    0.0580    0.0540 ca        1 X4B     -0.251200
     11 C11         0.1320    2.5760    0.5600 c         1 X4B      0.684700
     12 C12        -2.0670   -1.0440   -0.3300 c3        1 X4B      0.261100
     13 C13        -3.5340   -0.8090   -0.1560 ca        1 X4B     -0.232600
     14 C14        -4.4380   -1.2180   -1.1590 ca        1 X4B      0.413200
     15 C15        -6.2520   -0.5040    0.0650 ca        1 X4B      0.404200
     16 C16        -5.4330   -0.0590    1.1190 ca        1 X4B     -0.241300
     17 C17        -4.0520   -0.2170    1.0020 ca        1 X4B     -0.079000
     18 O18        -0.9130    2.6140    1.2510 o         1 X4B     -0.635100
     19 O19         4.9950   -0.8640    0.5900 o         1 X4B     -0.204500
     20 O20         4.9580    1.1180   -0.1060 o         1 X4B     -0.204500
     21 CL21        2.9700   -2.5430   -0.7470 cl        1 X4B     -0.032400
     22 H101        1.4620    3.7370   -0.5100 hn        1 X4B      0.320500
     23 H201        0.2130    4.6000    0.2670 hn        1 X4B      0.320500
     24 HN02       -1.7580    0.9670    0.1770 hn        1 X4B      0.469800
     25 H05         2.7920    2.1500    0.5950 ha        1 X4B      0.168000
     26 H08         0.2760   -1.9760   -0.6750 ha        1 X4B      0.162000
     27 H112       -1.8680   -1.4640   -1.3610 h1        1 X4B      0.056700
     28 H212       -1.7390   -1.8220    0.4240 h1        1 X4B      0.056700
     29 H14        -4.0760   -1.6850   -2.0930 h4        1 X4B      0.026100
     30 H15        -7.3510   -0.3990    0.1170 h4        1 X4B      0.028100
     31 H16        -5.8750    0.4030    2.0120 ha        1 X4B      0.151000
     32 H17        -3.3820    0.1190    1.8100 ha        1 X4B      0.151000
@<TRIPOS>BOND
     1    1   11 1   
     2    1   22 1   
     3    1   23 1   
     4    2    7 1   
     5    2   12 1   
     6    2   24 1   
     7    3   14 ar  
     8    3   15 ar  
     9    4   10 1   
    10    4   19 1   
    11    4   20 1   
    12    5    6 ar  
    13    5   10 ar  
    14    5   25 1   
    15    6    7 ar  
    16    6   11 1   
    17    7    8 ar  
    18    8    9 ar  
    19    8   26 1   
    20    9   10 ar  
    21    9   21 1   
    22   11   18 2   
    23   12   13 1   
    24   12   27 1   
    25   12   28 1   
    26   13   14 ar  
    27   13   17 ar  
    28   14   29 1   
    29   15   16 ar  
    30   15   30 1   
    31   16   17 ar  
    32   16   31 1   
    33   17   32 1   
@<TRIPOS>SUBSTRUCTURE
     1 X4B         1 TEMP              0 ****  ****    0 ROOT
