@<TRIPOS>MOLECULE
X4B
   32    27     1     0     0
SMALL
bcc


@<TRIPOS>ATOM
      1 N01         1.5290    0.3550    3.9910 n         1 X4B     -0.422000
      2 N02        -0.6760    0.4120    0.2530 n3        1 X4B     -0.294000
      3 N03        -4.8090    0.2350   -1.2700 n1        1 X4B     -0.130000
      4 N04         4.9680    0.5460    0.1010 n2        1 X4B      0.471400
      5 C05         2.8810    0.5270    1.3640 c1        1 X4B      0.004000
      6 C06         1.5090    0.4540    1.4000 c1        1 X4B     -0.209000
      7 C07         0.7890    0.3590    0.2190 c1        1 X4B      0.197000
      8 C08         1.4590    0.3380   -1.0090 c1        1 X4B     -0.229000
      9 C09         2.8300    0.4110   -1.0460 c1        1 X4B      0.054000
     10 C10         3.5500    0.5060    0.1360 c1        1 X4B     -0.196000
     11 C11         0.7750    0.3590    2.7550 c2        1 X4B      0.358000
     12 C12        -1.4540   -0.8170    0.1440 c3        1 X4B      0.007000
     13 C13        -2.6160   -0.5950   -0.8310 c2        1 X4B     -0.179000
     14 C14        -3.7530    0.0750   -0.4130 c2        1 X4B     -0.053000
     15 C15        -4.7420   -0.2680   -2.5420 c1        1 X4B     -0.061000
     16 C16        -3.6070   -0.9380   -2.9630 c1        1 X4B     -0.179000
     17 C17        -2.5480   -1.0990   -2.1040 c2        1 X4B     -0.081000
     18 O18        -0.4600    0.2940    2.7850 o         1 X4B     -0.393000
     19 O19         5.6700    0.5880    1.2560 o         1 X4B     -0.299200
     20 O20         5.5600    0.5000   -0.9770 o         1 X4B     -0.299200
     21 CL21        3.6690    0.2040   -2.5590 cl        1 X4B      0.045000
     22 H101        1.0910    0.4970    4.8060 hn        1 X4B      0.234000
     23 H201        2.4120    0.1710    3.9800 hn        1 X4B      0.234000
     24 HN02       -1.1010    1.2170    0.2890 hn        1 X4B      0.255000
     25 H05         3.3890    0.5950    2.1960 ha        1 X4B      0.169000
     26 H08         0.9570    0.2720   -1.8330 ha        1 X4B      0.162000
     27 H112       -1.8020   -1.0560    1.0110 h1        1 X4B      0.108500
     28 H212       -0.8760   -1.5460   -0.1910 h1        1 X4B      0.108500
     29 H14        -3.8020    0.4390    0.5030 h4        1 X4B      0.167000
     30 H15        -5.5090   -0.1510   -3.1650 ha        1 X4B      0.164000
     31 H16        -3.5590   -1.3000   -3.8790 DU        1 X4B      0.148000
     32 H17        -1.7250   -1.5840   -2.4070 ha        1 X4B      0.138000
@<TRIPOS>BOND
     1    1   11 1   
     2    1   22 1   
     3    1   23 1   
     4    2    7 1   
     5    2   12 1   
     6    2   24 1   
     7    3   14 1   
     8    4   19 2   
     9    4   20 2   
    10    5    6 1   
    11    5   25 1   
    12    6   11 1   
    13    7    8 1   
    14    8   26 1   
    15    9   10 1   
    16    9   21 1   
    17   11   18 1   
    18   12   13 1   
    19   12   27 1   
    20   12   28 1   
    21   13   14 1   
    22   13   17 1   
    23   14   29 1   
    24   15   16 1   
    25   15   30 1   
    26   16   17 1   
    27   17   32 1   
@<TRIPOS>SUBSTRUCTURE
     1 X4B         1 TEMP              0 ****  ****    0 ROOT
