@<TRIPOS>MOLECULE
X4B
   32    33     1     0     0
SMALL
bcc


@<TRIPOS>ATOM
      1 N01         0.0990    0.0800    0.0640 n         1 X4B     -0.661000
      2 N02         4.1390   -0.4590   -0.1160 nh        1 X4B     -0.748600
      3 N03         7.3970   -1.8220    3.0450 nb        1 X4B     -0.661000
      4 N04         1.3560    0.4510   -4.9950 no        1 X4B      0.326200
      5 C05         1.4730    0.4070   -2.5280 ca        1 X4B      0.010000
      6 C06         2.1230    0.2040   -1.3190 ca        1 X4B     -0.241600
      7 C07         3.4840   -0.2380   -1.2980 ca        1 X4B      0.288600
      8 C08         4.1100   -0.5000   -2.5500 ca        1 X4B     -0.243000
      9 C09         3.4460   -0.3040   -3.7530 ca        1 X4B      0.139400
     10 C10         2.1200    0.1780   -3.7540 ca        1 X4B     -0.251200
     11 C11         1.4030    0.4870   -0.0450 c         1 X4B      0.684700
     12 C12         5.5550   -0.7320   -0.0670 c3        1 X4B      0.261100
     13 C13         6.1080   -0.6970    1.3230 ca        1 X4B     -0.232600
     14 C14         6.8380   -1.7960    1.8210 ca        1 X4B      0.413200
     15 C15         7.2350   -0.7350    3.8250 ca        1 X4B      0.404200
     16 C16         6.5210    0.4080    3.4220 ca        1 X4B     -0.241300
     17 C17         5.9500    0.4230    2.1490 ca        1 X4B     -0.079000
     18 O18         1.9510    1.0720    0.9180 o         1 X4B     -0.635100
     19 O19         1.9060    0.8870   -5.9670 o         1 X4B     -0.204500
     20 O20         0.1670    0.2560   -4.9730 o         1 X4B     -0.204500
     21 CL21        4.2680   -0.6970   -5.1790 cl        1 X4B     -0.032400
     22 H101       -0.3510   -0.4080   -0.6670 hn        1 X4B      0.320500
     23 H201       -0.4010    0.2690    0.8980 hn        1 X4B      0.320500
     24 HN02        3.7100   -0.1330    0.7290 hn        1 X4B      0.469800
     25 H05         0.4280    0.7710   -2.5410 ha        1 X4B      0.168000
     26 H08         5.1470   -0.8730   -2.5750 ha        1 X4B      0.162000
     27 H112        6.1170    0.0250   -0.6930 h1        1 X4B      0.056700
     28 H212        5.7360   -1.7510   -0.5220 h1        1 X4B      0.056700
     29 H14         6.9840   -2.7040    1.2080 h4        1 X4B      0.026100
     30 H15         7.7030   -0.7880    4.8240 h4        1 X4B      0.028100
     31 H16         6.4170    1.2670    4.0980 ha        1 X4B      0.151000
     32 H17         5.3860    1.3030    1.8020 ha        1 X4B      0.151000
@<TRIPOS>BOND
     1    1   11 1   
     2    1   22 1   
     3    1   23 1   
     4    2    7 1   
     5    2   12 1   
     6    2   24 1   
     7    3   14 ar  
     8    3   15 ar  
     9    4   10 1   
    10    4   19 1   
    11    4   20 1   
    12    5    6 ar  
    13    5   10 ar  
    14    5   25 1   
    15    6    7 ar  
    16    6   11 1   
    17    7    8 ar  
    18    8    9 ar  
    19    8   26 1   
    20    9   10 ar  
    21    9   21 1   
    22   11   18 2   
    23   12   13 1   
    24   12   27 1   
    25   12   28 1   
    26   13   14 ar  
    27   13   17 ar  
    28   14   29 1   
    29   15   16 ar  
    30   15   30 1   
    31   16   17 ar  
    32   16   31 1   
    33   17   32 1   
@<TRIPOS>SUBSTRUCTURE
     1 X4B         1 TEMP              0 ****  ****    0 ROOT
