@<TRIPOS>MOLECULE
X4B
   33    34     1     0     0
SMALL
bcc


@<TRIPOS>ATOM
      1 N01        -0.2080   -0.1670   -0.1520 nz        1 X4B     -0.758400
      2 N02         4.2070   -0.2580   -0.0930 nu        1 X4B     -0.706600
      3 N03         6.3510   -1.7660    3.4080 nb        1 X4B     -0.650000
      4 N04         1.3190    0.4200   -4.9510 no        1 X4B      0.325200
      5 C05         1.4200    0.1760   -2.5060 ca        1 X4B      0.010000
      6 C06         2.0650   -0.0180   -1.2640 ca        1 X4B     -0.327600
      7 C07         3.5020   -0.1630   -1.2400 ca        1 X4B      0.333600
      8 C08         4.1750   -0.2210   -2.5120 ca        1 X4B     -0.234000
      9 C09         3.5160   -0.0690   -3.7110 ca        1 X4B      0.157400
     10 C10         2.1070    0.1750   -3.7050 ca        1 X4B     -0.223200
     11 C11         1.3110   -0.0660   -0.0400 c         1 X4B      0.585700
     12 C12         5.6510   -0.4240   -0.0510 c3        1 X4B      0.255100
     13 C13         6.1630   -0.4960    1.3490 ca        1 X4B     -0.271600
     14 C14         5.8960   -1.6260    2.1500 ca        1 X4B      0.415200
     15 C15         7.1070   -0.7700    3.9110 ca        1 X4B      0.427200
     16 C16         7.4320    0.3950    3.1880 ca        1 X4B     -0.237300
     17 C17         6.9470    0.5320    1.8890 ca        1 X4B     -0.061000
     18 O18         1.6740   -0.0660    1.1350 o         1 X4B     -0.479100
     19 O19         1.8180    0.9770   -5.8800 o         1 X4B     -0.173500
     20 O20         0.1680    0.0700   -4.9340 o         1 X4B     -0.173500
     21 Cl21        4.3920   -0.2110   -5.1370 cl        1 X4B      0.038600
     22 H101       -0.5920    0.7040   -0.5290 hn        1 X4B      0.468800
     23 H201       -0.4670   -0.9410   -0.7700 hn        1 X4B      0.468800
     24 HN02        3.7450   -0.2080    0.7940 hn        1 X4B      0.474800
     25 H05         0.3290    0.3500   -2.5520 ha        1 X4B      0.149000
     26 H08         5.2660   -0.3980   -2.5290 ha        1 X4B      0.185000
     27 H112        6.1330    0.4420   -0.5940 h1        1 X4B      0.076700
     28 H212        5.9220   -1.3780   -0.5960 h1        1 X4B      0.076700
     29 H14         5.2950   -2.4690    1.7610 h4        1 X4B      0.023100
     30 H15         7.4710   -0.9190    4.9450 h4        1 X4B      0.044100
     31 H16         8.0580    1.1750    3.6450 ha        1 X4B      0.164000
     32 H17         7.1830    1.4290    1.2960 ha        1 X4B      0.148000
     33 H013       -0.6030   -0.3280    0.7830 hn        1 X4B      0.468800
@<TRIPOS>BOND
     1    1   11 1   
     2    1   22 1   
     3    1   23 1   
     4    1   33 1   
     5    2    7 1   
     6    2   12 1   
     7    2   24 1   
     8    3   14 ar  
     9    3   15 ar  
    10    4   10 1   
    11    4   19 1   
    12    4   20 1   
    13    5    6 ar  
    14    5   10 ar  
    15    5   25 1   
    16    6    7 ar  
    17    6   11 1   
    18    7    8 ar  
    19    8    9 ar  
    20    8   26 1   
    21    9   10 ar  
    22    9   21 1   
    23   11   18 2   
    24   12   13 1   
    25   12   27 1   
    26   12   28 1   
    27   13   14 ar  
    28   13   17 ar  
    29   14   29 1   
    30   15   16 ar  
    31   15   30 1   
    32   16   17 ar  
    33   16   31 1   
    34   17   32 1   
@<TRIPOS>SUBSTRUCTURE
     1 X4B         1 TEMP              0 ****  ****    0 ROOT
