@<TRIPOS>MOLECULE
X4B
   33    34     1     0     0
SMALL
bcc


@<TRIPOS>ATOM
      1 N01        -0.2070   -0.1940   -0.1500 n4        1 X4B     -0.758400
      2 N02         4.2080   -0.2550   -0.0930 nh        1 X4B     -0.706600
      3 N03         6.3660   -1.7660    3.3980 nb        1 X4B     -0.650000
      4 N04         1.3120    0.4190   -4.9470 no        1 X4B      0.325200
      5 C05         1.4170    0.1680   -2.5030 ca        1 X4B      0.010000
      6 C06         2.0630   -0.0250   -1.2620 ca        1 X4B     -0.327600
      7 C07         3.5020   -0.1610   -1.2400 ca        1 X4B      0.333600
      8 C08         4.1740   -0.2090   -2.5120 ca        1 X4B     -0.234000
      9 C09         3.5130   -0.0590   -3.7100 ca        1 X4B      0.157400
     10 C10         2.1020    0.1760   -3.7030 ca        1 X4B     -0.223200
     11 C11         1.3100   -0.0840   -0.0380 c         1 X4B      0.585700
     12 C12         5.6540   -0.4110   -0.0530 c3        1 X4B      0.255100
     13 C13         6.1660   -0.4860    1.3470 ca        1 X4B     -0.271600
     14 C14         5.9100   -1.6230    2.1410 ca        1 X4B      0.415200
     15 C15         7.1130   -0.7660    3.9060 ca        1 X4B      0.427200
     16 C16         7.4280    0.4060    3.1900 ca        1 X4B     -0.237300
     17 C17         6.9410    0.5460    1.8910 ca        1 X4B     -0.061000
     18 O18         1.6740   -0.0850    1.1360 o         1 X4B     -0.479100
     19 O19         1.8070    0.9830   -5.8750 o         1 X4B     -0.173000
     20 O20         0.1630    0.0610   -4.9310 o         1 X4B     -0.173000
     21 CL21        4.3890   -0.1900   -5.1370 cl        1 X4B      0.038600
     22 H101       -0.4610   -0.9680   -0.7700 hn        1 X4B      0.468800
     23 H201       -0.6010   -0.3620    0.7860 hn        1 X4B      0.468800
     24 HN02        3.7460   -0.2110    0.7940 hn        1 X4B      0.474800
     25 H05         0.3240    0.3340   -2.5480 ha        1 X4B      0.149000
     26 H08         5.2660   -0.3780   -2.5310 ha        1 X4B      0.185000
     27 H112        6.1290    0.4610   -0.5920 h1        1 X4B      0.076700
     28 H212        5.9300   -1.3610   -0.6030 h1        1 X4B      0.076700
     29 H14         5.3170   -2.4690    1.7480 h4        1 X4B      0.023100
     30 H15         7.4790   -0.9170    4.9400 h4        1 X4B      0.044100
     31 H16         8.0460    1.1890    3.6510 ha        1 X4B      0.164000
     32 H17         7.1690    1.4490    1.3040 ha        1 X4B      0.148000
     33 H013       -0.5980    0.6760   -0.5230 hn        1 X4B      0.468800
@<TRIPOS>BOND
     1    1   11 1   
     2    1   22 1   
     3    1   23 1   
     4    1   33 1   
     5    2    7 1   
     6    2   12 1   
     7    2   24 1   
     8    3   14 ar  
     9    3   15 ar  
    10    4   10 1   
    11    4   19 1   
    12    4   20 1   
    13    5    6 ar  
    14    5   10 ar  
    15    5   25 1   
    16    6    7 ar  
    17    6   11 1   
    18    7    8 ar  
    19    8    9 ar  
    20    8   26 1   
    21    9   10 ar  
    22    9   21 1   
    23   11   18 2   
    24   12   13 1   
    25   12   27 1   
    26   12   28 1   
    27   13   14 ar  
    28   13   17 ar  
    29   14   29 1   
    30   15   16 ar  
    31   15   30 1   
    32   16   17 ar  
    33   16   31 1   
    34   17   32 1   
@<TRIPOS>SUBSTRUCTURE
     1 X4B         1 TEMP              0 ****  ****    0 ROOT
