@<TRIPOS>MOLECULE
X4C
   49    49     1     0     0
SMALL
bcc


@<TRIPOS>ATOM
      1 C25        -3.1100   -2.9640    1.4050 c2        1 X4C      0.130000
      2 C24         4.0110   -1.1240    1.2180 c1        1 X4C     -0.196000
      3 C26        -1.9370   -2.3820    1.5030 c1        1 X4C     -0.552000
      4 C17         1.5490   -2.9800    5.3440 c2        1 X4C      0.015000
      5 C15         1.2940   -2.0350    4.3110 c2        1 X4C     -0.260000
      6 C23         3.0910   -0.5240    1.6920 c1        1 X4C     -0.195000
      7 C27        -0.7960   -1.8150    1.6010 c1        1 X4C      0.185000
      8 C12         2.6360   -1.3370    6.8200 c1        1 X4C     -0.036000
      9 C16         2.2630   -2.6630    6.4820 c2        1 X4C     -0.238000
     10 C8          2.1290   -0.2840    5.9230 c3        1 X4C     -0.097000
     11 C10         1.6980   -0.7470    4.5210 c2        1 X4C      0.033000
     12 C18         1.9580    0.2040    2.2240 c3        1 X4C      0.048000
     13 C9          5.6760    5.3530    1.2410 c2        1 X4C     -0.202000
     14 C7          4.5300    5.0550    0.4470 c2        1 X4C      0.118000
     15 C1          2.6600    1.3050    4.4260 c2        1 X4C      0.041000
     16 C2          4.7350    3.5760    2.1920 c2        1 X4C      0.036000
     17 C21         5.1920    7.1660   -2.3600 c2        1 X4C     -0.224000
     18 C14         2.7880    3.2600    0.7100 c1        1 X4C     -0.068000
     19 C22         4.6510    6.4280   -1.4310 c1        1 X4C      0.091000
     20 C20         2.6690   -3.7310    7.4300 c3        1 X4C     -0.148000
     21 C11         3.1110    2.5920    3.8000 c3        1 X4C     -0.105000
     22 C13         4.4140    2.3930    3.0480 c3        1 X4C     -0.097000
     23 N4          2.8260    0.9870    5.6980 n2        1 X4C     -0.128000
     24 N3          5.7550    4.4090    2.3120 n2        1 X4C     -0.102000
     25 N19         3.9750    5.7400   -0.6270 n2        1 X4C     -0.130000
     26 N5          1.9080    0.3320    3.6570 n3        1 X4C     -0.220000
     27 N6          3.8890    3.8990    1.0350 na        1 X4C     -0.120000
     28 H1          4.8230   -1.6600    0.7970 ha        1 X4C      0.223000
     29 H2         -4.0390   -2.3950    1.2220 ha        1 X4C      0.121000
     30 H3         -3.2370   -4.0570    1.4980 ha        1 X4C      0.121000
     31 H4          0.8720   -2.3680    3.3500 ha        1 X4C      0.158000
     32 H5          1.2120   -4.0170    5.1690 ha        1 X4C      0.127000
     33 H6          1.0070   -0.3340    1.9040 h1        1 X4C      0.154000
     34 H7          1.9600    1.2500    1.7760 h1        1 X4C      0.154000
     35 H8          1.1710   -0.0280    6.5120 h1        1 X4C      0.191000
     36 H9          2.2390    3.6180   -0.1850 ha        1 X4C      0.082000
     37 H10         5.4400    6.7660   -3.3520 ha        1 X4C      0.172500
     38 H11         5.4220    8.2260   -2.1770 ha        1 X4C      0.172500
     39 H12         3.6760   -3.5000    7.8590 hc        1 X4C      0.076667
     40 H13         1.9390   -3.7910    8.2760 hc        1 X4C      0.076667
     41 H14         2.7120   -4.7280    6.9280 hc        1 X4C      0.076667
     42 H15         7.3930    6.6130    1.5790 ha        1 X4C      0.077000
     43 H16         8.1710    5.3690   -0.3420 ha        1 X4C      0.007500
     44 H17         7.8560    5.7690   -0.7920 ha        1 X4C      0.007500
     45 H18         5.2540    2.2280    3.7780 hc        1 X4C      0.131000
     46 H19         2.3060    2.9600    3.1060 hc        1 X4C      0.124000
     47 H20         3.2520    3.3660    4.6030 hc        1 X4C      0.124000
     48 H21         4.3450    1.4850    2.3850 hc        1 X4C      0.131000
     49 C28         6.5020    6.4510    0.9600 c1        1 X4C     -0.088000
@<TRIPOS>BOND
     1    1    3 1   
     2    1   29 1   
     3    1   30 1   
     4    2    6 1   
     5    2   28 1   
     6    3    7 1   
     7    4    5 1   
     8    4    9 1   
     9    4   32 1   
    10    5   11 1   
    11    5   31 1   
    12    6   12 1   
    13    8    9 1   
    14    8   10 1   
    15    9   20 1   
    16   10   11 1   
    17   10   23 1   
    18   10   35 1   
    19   11   26 1   
    20   12   26 1   
    21   12   33 1   
    22   12   34 1   
    23   13   14 1   
    24   13   24 1   
    25   13   49 1   
    26   14   25 1   
    27   14   27 1   
    28   15   21 1   
    29   15   23 1   
    30   15   26 1   
    31   16   22 1   
    32   16   24 1   
    33   16   27 1   
    34   17   19 1   
    35   17   37 1   
    36   17   38 1   
    37   18   27 1   
    38   18   36 1   
    39   19   25 1   
    40   20   39 1   
    41   20   40 1   
    42   20   41 1   
    43   21   22 1   
    44   21   46 1   
    45   21   47 1   
    46   22   45 1   
    47   22   48 1   
    48   42   49 1   
    49   43   44 1   
@<TRIPOS>SUBSTRUCTURE
     1 X4C         1 TEMP              0 ****  ****    0 ROOT
