@<TRIPOS>MOLECULE
X4D
   46    50     1     0     0
SMALL
bcc


@<TRIPOS>ATOM
      1 C25        -0.3390    0.3150    0.2260 ca        1 X4D     -0.133000
      2 C24         1.0380    0.4830    0.0840 ca        1 X4D     -0.116500
      3 C26        -0.8730    0.0200    1.4800 ca        1 X4D     -0.116500
      4 C17         1.5360   -3.0460    5.7660 ca        1 X4D     -0.116000
      5 C15         1.3250   -2.2340    4.6640 ca        1 X4D     -0.126000
      6 C23         1.8850    0.3550    1.1820 ca        1 X4D     -0.137500
      7 C27        -0.0450   -0.1020    2.5910 ca        1 X4D     -0.137500
      8 C12         3.3070   -1.6140    6.6390 ca        1 X4D     -0.072000
      9 C9          5.4960    4.3540   -0.0370 cc        1 X4D      0.001600
     10 C16         2.5090   -2.7480    6.7450 ca        1 X4D     -0.099300
     11 C8          3.1240   -0.7660    5.5380 ca        1 X4D      0.071400
     12 C10         2.1160   -1.0850    4.5450 ca        1 X4D     -0.069200
     13 C18         1.3510    0.0670    2.4560 ca        1 X4D      0.009800
     14 C7          5.8960    5.1510    1.0570 cd        1 X4D     -0.152300
     15 C2          5.2520    3.0670    1.7500 cd        1 X4D      0.382800
     16 C1          3.2100    0.8280    4.0210 cc        1 X4D      0.430800
     17 C19         6.3830    6.4790    1.2470 cd        1 X4D     -0.035000
     18 C22         6.6700    6.8860    2.5190 cc        1 X4D     -0.257300
     19 C21         6.4650    5.9510    3.6040 cc        1 X4D      0.370200
     20 C20         2.6690   -3.6720    7.8940 c3        1 X4D     -0.049800
     21 C13         4.9540    1.9110    2.6420 c3        1 X4D     -0.077700
     22 C11         3.5830    2.0730    3.2820 c3        1 X4D     -0.097700
     23 N3          5.1100    3.1020    0.3970 nc        1 X4D     -0.555300
     24 N4          3.7770    0.4280    5.1760 nd        1 X4D     -0.566100
     25 N14         6.0140    4.7130    3.4590 nd        1 X4D     -0.460800
     26 N5          2.1940   -0.0700    3.5760 na        1 X4D     -0.101400
     27 N6          5.7340    4.3140    2.2200 na        1 X4D      0.088300
     28 H1         -1.0000    0.4140   -0.6460 ha        1 X4D      0.137000
     29 H2          1.4670    0.7140   -0.9030 ha        1 X4D      0.139500
     30 H3         -1.9590   -0.1140    1.5970 ha        1 X4D      0.139500
     31 H4          0.9280   -3.9570    5.8880 ha        1 X4D      0.132000
     32 H5          0.5680   -2.4810    3.9070 ha        1 X4D      0.140000
     33 H6          2.9720    0.4830    1.0460 ha        1 X4D      0.149500
     34 H7         -0.4820   -0.3330    3.5760 ha        1 X4D      0.149500
     35 H8          4.0690   -1.3800    7.3960 ha        1 X4D      0.148000
     36 H10         6.5090    7.1230    0.3660 ha        1 X4D      0.155000
     37 H11         7.0480    7.8890    2.7500 ha        1 X4D      0.154000
     38 H12         6.6890    6.2520    4.6430 h4        1 X4D      0.043100
     39 H13         3.4680   -3.3200    8.5910 hc        1 X4D      0.042700
     40 H14         1.7100   -3.7470    8.4670 hc        1 X4D      0.042700
     41 H15         2.9410   -4.6950    7.5330 hc        1 X4D      0.042700
     42 H16         4.9870    0.9670    2.0340 hc        1 X4D      0.083200
     43 H17         5.7380    1.8290    3.4420 hc        1 X4D      0.083200
     44 H18         2.8160    2.3110    2.4980 hc        1 X4D      0.079200
     45 H19         3.6040    2.9290    4.0100 hc        1 X4D      0.079200
     46 H9          5.4730    4.6270   -1.0920 h4        1 X4D      0.185000
@<TRIPOS>BOND
     1    1    2 ar  
     2    1    3 ar  
     3    1   28 1   
     4    2    6 ar  
     5    2   29 1   
     6    3    7 ar  
     7    3   30 1   
     8    4    5 ar  
     9    4   10 ar  
    10    4   31 1   
    11    5   12 ar  
    12    5   32 1   
    13    6   13 ar  
    14    6   33 1   
    15    7   13 ar  
    16    7   34 1   
    17    8   10 ar  
    18    8   11 ar  
    19    8   35 1   
    20    9   14 2   
    21    9   23 1   
    22    9   46 1   
    23   10   20 1   
    24   11   12 ar  
    25   11   24 1   
    26   12   26 1   
    27   13   26 1   
    28   14   17 1   
    29   14   27 1   
    30   15   21 1   
    31   15   23 2   
    32   15   27 1   
    33   16   22 1   
    34   16   24 2   
    35   16   26 1   
    36   17   18 2   
    37   17   36 1   
    38   18   19 1   
    39   18   37 1   
    40   19   25 2   
    41   19   38 1   
    42   20   39 1   
    43   20   40 1   
    44   20   41 1   
    45   21   22 1   
    46   21   42 1   
    47   21   43 1   
    48   22   44 1   
    49   22   45 1   
    50   25   27 1   
@<TRIPOS>SUBSTRUCTURE
     1 X4D         1 TEMP              0 ****  ****    0 ROOT
