@<TRIPOS>MOLECULE
X4D
   46    50     1     0     0
SMALL
bcc


@<TRIPOS>ATOM
      1 C25        -0.3220    0.3040    0.2100 ca        1 X4D     -0.133000
      2 C24         1.0550    0.4740    0.0740 ca        1 X4D     -0.116500
      3 C26        -0.8610    0.0100    1.4610 ca        1 X4D     -0.116500
      4 C17         1.5320   -3.0470    5.7630 ca        1 X4D     -0.116000
      5 C15         1.3250   -2.2360    4.6590 ca        1 X4D     -0.126000
      6 C23         1.8970    0.3500    1.1760 ca        1 X4D     -0.137500
      7 C27        -0.0390   -0.1100    2.5770 ca        1 X4D     -0.137500
      8 C12         3.2960   -1.6100    6.6420 ca        1 X4D     -0.072000
      9 C9          5.5080    4.3540   -0.0300 cc        1 X4D      0.001600
     10 C16         2.4990   -2.7460    6.7460 ca        1 X4D     -0.099300
     11 C8          3.1170   -0.7640    5.5400 ca        1 X4D      0.071400
     12 C10         2.1150   -1.0860    4.5420 ca        1 X4D     -0.069200
     13 C18         1.3570    0.0620    2.4480 ca        1 X4D      0.009800
     14 C7          5.8990    5.1540    1.0650 cd        1 X4D     -0.152300
     15 C2          5.2560    3.0690    1.7580 cd        1 X4D      0.382800
     16 C1          3.2070    0.8290    4.0210 cc        1 X4D      0.430800
     17 C19         6.3810    6.4830    1.2560 cd        1 X4D     -0.035000
     18 C22         6.6590    6.8920    2.5300 cc        1 X4D     -0.257300
     19 C21         6.4500    5.9590    3.6140 cc        1 X4D      0.370200
     20 C20         2.6560   -3.6670    7.8970 c3        1 X4D     -0.049800
     21 C13         4.9550    1.9140    2.6500 c3        1 X4D     -0.077700
     22 C11         3.5820    2.0730    3.2820 c3        1 X4D     -0.097700
     23 N3          5.1220    3.1020    0.4030 nc        1 X4D     -0.555300
     24 N4          3.7700    0.4310    5.1800 nd        1 X4D     -0.566100
     25 N14         6.0040    4.7200    3.4690 nd        1 X4D     -0.460800
     26 N5          2.1950   -0.0710    3.5720 na        1 X4D     -0.101400
     27 N6          5.7320    4.3180    2.2290 na        1 X4D      0.088300
     28 H1         -0.9790    0.4010   -0.6670 ha        1 X4D      0.137000
     29 H2          1.4890    0.7050   -0.9110 ha        1 X4D      0.139500
     30 H3         -1.9480   -0.1260    1.5730 ha        1 X4D      0.139500
     31 H4          0.9250   -3.9580    5.8830 ha        1 X4D      0.132000
     32 H5          0.5720   -2.4850    3.8980 ha        1 X4D      0.140000
     33 H6          2.9840    0.4790    1.0460 ha        1 X4D      0.149500
     34 H7         -0.4800   -0.3400    3.5600 ha        1 X4D      0.149500
     35 H8          4.0540   -1.3730    7.4030 ha        1 X4D      0.148000
     36 H10         6.5110    7.1260    0.3750 ha        1 X4D      0.155000
     37 H11         7.0330    7.8970    2.7610 ha        1 X4D      0.154000
     38 H12         6.6670    6.2620    4.6550 h4        1 X4D      0.043100
     39 H13         3.4510   -3.3130    8.5970 hc        1 X4D      0.042700
     40 H14         1.6950   -3.7430    8.4650 hc        1 X4D      0.042700
     41 H15         2.9310   -4.6900    7.5390 hc        1 X4D      0.042700
     42 H16         4.9940    0.9690    2.0430 hc        1 X4D      0.083200
     43 H17         5.7360    1.8340    3.4540 hc        1 X4D      0.083200
     44 H18         2.8170    2.3080    2.4940 hc        1 X4D      0.079200
     45 H19         3.5970    2.9310    4.0090 hc        1 X4D      0.079200
     46 H9          5.4910    4.6250   -1.0860 h4        1 X4D      0.185000
@<TRIPOS>BOND
     1    1    2 ar  
     2    1    3 ar  
     3    1   28 1   
     4    2    6 ar  
     5    2   29 1   
     6    3    7 ar  
     7    3   30 1   
     8    4    5 ar  
     9    4   10 ar  
    10    4   31 1   
    11    5   12 ar  
    12    5   32 1   
    13    6   13 ar  
    14    6   33 1   
    15    7   13 ar  
    16    7   34 1   
    17    8   10 ar  
    18    8   11 ar  
    19    8   35 1   
    20    9   14 2   
    21    9   23 1   
    22    9   46 1   
    23   10   20 1   
    24   11   12 ar  
    25   11   24 1   
    26   12   26 1   
    27   13   26 1   
    28   14   17 1   
    29   14   27 1   
    30   15   21 1   
    31   15   23 2   
    32   15   27 1   
    33   16   22 1   
    34   16   24 2   
    35   16   26 1   
    36   17   18 2   
    37   17   36 1   
    38   18   19 1   
    39   18   37 1   
    40   19   25 2   
    41   19   38 1   
    42   20   39 1   
    43   20   40 1   
    44   20   41 1   
    45   21   22 1   
    46   21   42 1   
    47   21   43 1   
    48   22   44 1   
    49   22   45 1   
    50   25   27 1   
@<TRIPOS>SUBSTRUCTURE
     1 X4D         1 TEMP              0 ****  ****    0 ROOT
