@<TRIPOS>MOLECULE
X4Z
   63    56     1     0     0
SMALL
bcc


@<TRIPOS>ATOM
      1 C1         -0.2320   -0.0290   -2.3130 c1        1 X4Z     -0.125000
      2 C2          1.1160   -0.3590   -2.2340 c1        1 X4Z     -0.166000
      3 C3         -0.7160   -0.1460   -3.7780 c1        1 X4Z      0.040000
      4 C4         -0.9100   -0.1610   -1.1540 c3        1 X4Z      0.030000
      5 C5          1.6490   -0.2180   -1.0160 c2        1 X4Z      0.143000
      6 N6          1.5900   -0.6850   -3.4920 n2        1 X4Z      0.039000
      7 N7         -1.9440   -0.4430   -4.1690 n1        1 X4Z     -0.059000
      8 N8          0.5440   -0.5750   -4.4470 n2        1 X4Z     -0.017000
      9 N9          0.3240   -0.1860   -0.1130 n         1 X4Z     -0.320000
     10 C10         2.6100   -1.3720   -0.6380 c3        1 X4Z     -0.217500
     11 C11         2.4370    1.0710   -0.8950 c3        1 X4Z     -0.217500
     12 C12        -2.4390    0.0630   -5.4010 c1        1 X4Z      0.115000
     13 C13         0.2470   -0.1780    1.3330 c2        1 X4Z      0.379000
     14 C14        -2.3370    0.9170   -6.4630 c1        1 X4Z     -0.423000
     15 N15        -3.6630   -0.3440   -4.9720 n1        1 X4Z     -0.165000
     16 N16         1.4430   -0.3100    2.1150 n         1 X4Z     -0.334000
     17 O17        -0.8350   -0.1520    1.8820 o         1 X4Z     -0.392000
     18 C18        -3.5120    1.3760   -7.1160 c1        1 X4Z      0.011000
     19 S19        -1.0990    1.5590   -7.1870 s         1 X4Z      0.608000
     20 C20        -4.8190    0.1090   -5.6160 c1        1 X4Z      0.036000
     21 C21         1.4110   -0.0470    3.5140 c3        1 X4Z      0.048000
     22 N22        -4.7200    0.9700   -6.6870 n1        1 X4Z     -0.131000
     23 C23        -3.0760    2.3560   -8.3150 c1        1 X4Z     -0.133000
     24 C24        -1.6360    2.4420   -8.3290 c1        1 X4Z     -0.399000
     25 C25        -6.1620    0.0300   -4.8800 c3        1 X4Z     -0.157000
     26 C26         0.1290   -0.6240    4.1150 c2        1 X4Z     -0.115000
     27 C27         2.6150   -0.6860    4.1770 c3        1 X4Z     -0.055000
     28 C28        -0.4080   -1.8980    4.2450 c2        1 X4Z     -0.129000
     29 C29        -0.5220    0.4630    4.6790 c1        1 X4Z     -0.106000
     30 N30         3.4550    0.3470    4.7520 n3        1 X4Z     -0.275000
     31 C31        -1.5970   -2.0830    4.9400 c1        1 X4Z     -0.131000
     32 C32        -1.7110    0.2780    5.3730 c1        1 X4Z     -0.127000
     33 C33        -2.2470   -0.9960    5.5040 c1        1 X4Z     -0.127000
     34 C34         4.7730    0.2490    4.2100 c3        1 X4Z     -0.109000
     35 C35         3.5080    0.1860    6.1570 c3        1 X4Z     -0.109000
     36 H41C       -1.6610    0.4590   -1.0540 h1        1 X4Z      0.133000
     37 H42C       -1.3000   -1.0540   -1.1040 h1        1 X4Z      0.133000
     38 H101        3.2000   -1.5680   -1.3940 hc        1 X4Z      0.092500
     39 H102        2.0850   -2.1770   -0.4130 hc        1 X4Z      0.092500
     40 H103        3.1530   -1.1060    0.1410 hc        1 X4Z      0.092500
     41 H111        3.0870    0.9880   -0.1720 hc        1 X4Z      0.092500
     42 H112        2.9060    1.2480   -1.7360 hc        1 X4Z      0.092500
     43 H113        1.8220    1.8150   -0.6990 hc        1 X4Z      0.092500
     44 H16         2.2340   -0.5220    1.7080 hn        1 X4Z      0.209000
     45 H21         1.4330    0.9160    3.6620 h1        1 X4Z      0.152000
     46 H23        -3.6790    2.8120   -8.9260 DU        1 X4Z      0.176500
     47 H24        -1.0990    2.9420   -8.9680 DU        1 X4Z      0.176500
     48 H251       -6.8040   -0.4880   -5.4210 hc        1 X4Z      0.104000
     49 H252       -6.5130    0.9380   -4.7370 hc        1 X4Z      0.104000
     50 H253       -6.0340   -0.4130   -4.0100 hc        1 X4Z      0.104000
     51 H271        2.3160   -1.2920    4.8810 h1        1 X4Z      0.079000
     52 H272        3.1280   -1.1900    3.5080 h1        1 X4Z      0.079000
     53 H28         0.0490   -2.6610    3.8500 ha        1 X4Z      0.124000
     54 H29        -0.1450    1.3590    4.5870 ha        1 X4Z      0.144000
     55 H31        -1.9760   -2.9830    5.0330 ha        1 X4Z      0.132000
     56 H32        -2.1720    1.0480    5.7730 ha        1 X4Z      0.134000
     57 H341        5.3280    0.9860    4.5620 h1        1 X4Z      0.069667
     58 H342        4.7300    0.3110    3.2380 h1        1 X4Z      0.069667
     59 H343        5.1700   -0.6130    4.4670 h1        1 X4Z      0.069667
     60 H351        3.7080   -0.7490    6.3720 h1        1 X4Z      0.069667
     61 H352        2.6470    0.4310    6.5450 h1        1 X4Z      0.069667
     62 H353        4.2100    0.7650    6.5260 h1        1 X4Z      0.069667
     63 H33        -3.0900   -1.1270    5.9960 ha        1 X4Z      0.134000
@<TRIPOS>BOND
     1    1    2 1   
     2    1    4 1   
     3    2    6 1   
     4    3    7 1   
     5    3    8 1   
     6    4    9 1   
     7    4   36 1   
     8    4   37 1   
     9    5    9 1   
    10    5   10 1   
    11    5   11 1   
    12    6    8 1   
    13    9   13 1   
    14   10   38 1   
    15   10   39 1   
    16   10   40 1   
    17   11   41 1   
    18   11   42 1   
    19   11   43 1   
    20   12   14 1   
    21   12   15 1   
    22   13   16 1   
    23   13   17 1   
    24   14   18 1   
    25   16   21 1   
    26   16   44 1   
    27   19   24 1   
    28   20   22 1   
    29   20   25 1   
    30   21   26 1   
    31   21   27 1   
    32   21   45 1   
    33   23   24 1   
    34   25   48 1   
    35   25   49 1   
    36   25   50 1   
    37   26   28 1   
    38   26   29 1   
    39   27   30 1   
    40   27   51 1   
    41   27   52 1   
    42   28   31 1   
    43   28   53 1   
    44   29   54 1   
    45   30   34 1   
    46   30   35 1   
    47   31   55 1   
    48   32   33 1   
    49   32   56 1   
    50   33   63 1   
    51   34   57 1   
    52   34   58 1   
    53   34   59 1   
    54   35   60 1   
    55   35   61 1   
    56   35   62 1   
@<TRIPOS>SUBSTRUCTURE
     1 X4Z         1 TEMP              0 ****  ****    0 ROOT
