@<TRIPOS>MOLECULE
X4Z
   65    69     1     0     0
SMALL
bcc


@<TRIPOS>ATOM
      1 C1         -0.0220    0.4050    0.2710 cc        1 X4Z     -0.247800
      2 C2          1.3550    0.2950    0.2180 cd        1 X4Z     -0.007600
      3 C3         -0.4430    0.8320   -1.0950 cc        1 X4Z      0.616600
      4 C4         -0.5340    0.0670    1.6220 c3        1 X4Z      0.162200
      5 C5          1.9730   -0.1310    1.5170 c3        1 X4Z      0.225600
      6 N6          1.8370    0.6270   -1.1100 nd        1 X4Z     -0.088600
      7 N7         -1.5550    1.1030   -1.6800 nf        1 X4Z     -0.518700
      8 N8          0.8920    0.9190   -1.8390 nc        1 X4Z     -0.151300
      9 N9          0.7030   -0.2670    2.3720 n         1 X4Z     -0.436800
     10 C10         2.7060   -1.4610    1.3810 c3        1 X4Z     -0.118600
     11 C11         2.9100    0.9370    2.0710 c3        1 X4Z     -0.118600
     12 C12        -2.8340    1.0560   -1.0730 ca        1 X4Z      0.641300
     13 C13         0.7600   -0.6630    3.6520 c         1 X4Z      0.656100
     14 C14        -3.9270    1.3860   -1.9250 ca        1 X4Z     -0.312700
     15 N15        -3.0370    0.7260    0.2300 nb        1 X4Z     -0.768000
     16 N16        -0.5980   -0.8180    4.4130 ny        1 X4Z     -0.678800
     17 O17         1.7390   -0.9430    4.3620 o         1 X4Z     -0.552100
     18 C18        -5.2460    1.3480   -1.3190 ca        1 X4Z      0.448100
     19 S19        -4.0060    1.8220   -3.5240 ss        1 X4Z      0.243500
     20 C20        -4.3290    0.7250    0.6960 ca        1 X4Z      0.625300
     21 C21        -0.4260   -0.7690    5.9090 c3        1 X4Z      0.194800
     22 N22        -5.4460    1.0220   -0.0240 nb        1 X4Z     -0.615000
     23 C23        -6.2520    1.7040   -2.2990 cc        1 X4Z     -0.232800
     24 C24        -5.6760    1.9750   -3.5110 cd        1 X4Z     -0.150400
     25 C25        -4.5360    0.3620    2.1480 c3        1 X4Z     -0.118400
     26 C26        -1.7290   -0.4310    6.5650 ca        1 X4Z     -0.256300
     27 C27         0.1480   -2.1040    6.4580 c3        1 X4Z      0.086800
     28 C28        -1.8930    0.8290    7.1560 ca        1 X4Z     -0.115000
     29 C29        -2.7930   -1.3460    6.5680 ca        1 X4Z     -0.115000
     30 N30         0.2700   -2.0950    7.9490 nx        1 X4Z     -0.672400
     31 C31        -3.1060    1.1620    7.7600 ca        1 X4Z     -0.106500
     32 C32        -4.0020   -1.0070    7.1680 ca        1 X4Z     -0.106500
     33 C33        -4.1610    0.2480    7.7660 ca        1 X4Z     -0.056000
     34 C34         0.3340   -3.4910    8.4710 c3        1 X4Z      0.081100
     35 C35         1.4640   -1.3250    8.3980 c3        1 X4Z      0.081100
     36 H41C       -1.0520    0.9490    2.0970 h1        1 X4Z      0.090700
     37 H42C       -1.2270   -0.8200    1.5920 h1        1 X4Z      0.090700
     38 H101        2.0460   -2.2570    0.9610 hc        1 X4Z      0.077700
     39 H102        3.5660   -1.3130    0.6790 hc        1 X4Z      0.077700
     40 H103        3.1030   -1.7900    2.3720 hc        1 X4Z      0.077700
     41 H111        3.3060    0.6280    3.0690 hc        1 X4Z      0.077700
     42 H112        2.4020    1.9260    2.1630 hc        1 X4Z      0.077700
     43 H113        3.7680    1.0480    1.3600 hc        1 X4Z      0.077700
     44 H16        -1.2460   -0.0630    4.1490 hn        1 X4Z      0.461800
     45 H21         0.3340    0.0540    6.1010 hx        1 X4Z      0.129700
     46 H23        -7.3190    1.7410   -2.0630 ha        1 X4Z      0.192000
     47 H24        -6.2290    2.2670   -4.4100 h4        1 X4Z      0.202000
     48 H251       -5.1840   -0.5470    2.2170 hc        1 X4Z      0.047700
     49 H252       -5.0450    1.2060    2.6760 hc        1 X4Z      0.047700
     50 H253       -3.5630    0.1530    2.6570 hc        1 X4Z      0.047700
     51 H271        1.1770   -2.2880    6.0210 hx        1 X4Z      0.128200
     52 H272       -0.5320   -2.9590    6.1730 hx        1 X4Z      0.128200
     53 H28        -1.0730    1.5650    7.1450 ha        1 X4Z      0.141500
     54 H29        -2.6870   -2.3320    6.0880 ha        1 X4Z      0.141500
     55 H31        -3.2320    2.1550    8.2260 ha        1 X4Z      0.180000
     56 H32        -4.8400   -1.7250    7.1670 ha        1 X4Z      0.180000
     57 H341       -0.6150   -4.0340    8.2140 hx        1 X4Z      0.115367
     58 H342        0.4540   -3.4570    9.5890 hx        1 X4Z      0.115367
     59 H343        1.2130   -4.0240    8.0180 hx        1 X4Z      0.115367
     60 H351        1.4900   -1.3120    9.5220 hx        1 X4Z      0.115367
     61 H352        2.3990   -1.8120    8.0090 hx        1 X4Z      0.115367
     62 H353        1.3990   -0.2720    8.0130 hx        1 X4Z      0.115367
     63 H33        -5.1230    0.5170    8.2370 ha        1 X4Z      0.185000
     64 H162       -1.0240   -1.7080    4.1380 hn        1 X4Z      0.461800
     65 H301       -0.5770   -1.6420    8.3360 hn        1 X4Z      0.465800
@<TRIPOS>BOND
     1    1    2 2   
     2    1    3 1   
     3    1    4 1   
     4    2    5 1   
     5    2    6 1   
     6    3    7 2   
     7    3    8 1   
     8    4    9 1   
     9    4   36 1   
    10    4   37 1   
    11    5    9 1   
    12    5   10 1   
    13    5   11 1   
    14    6    8 2   
    15    7   12 1   
    16    9   13 1   
    17   10   38 1   
    18   10   39 1   
    19   10   40 1   
    20   11   41 1   
    21   11   42 1   
    22   11   43 1   
    23   12   14 ar  
    24   12   15 ar  
    25   13   16 1   
    26   13   17 2   
    27   14   18 ar  
    28   14   19 1   
    29   15   20 ar  
    30   16   21 1   
    31   16   44 1   
    32   16   64 1   
    33   18   22 ar  
    34   18   23 1   
    35   19   24 1   
    36   20   22 ar  
    37   20   25 1   
    38   21   26 1   
    39   21   27 1   
    40   21   45 1   
    41   23   24 2   
    42   23   46 1   
    43   24   47 1   
    44   25   48 1   
    45   25   49 1   
    46   25   50 1   
    47   26   28 ar  
    48   26   29 ar  
    49   27   30 1   
    50   27   51 1   
    51   27   52 1   
    52   28   31 ar  
    53   28   53 1   
    54   29   32 ar  
    55   29   54 1   
    56   30   34 1   
    57   30   35 1   
    58   30   65 1   
    59   31   33 ar  
    60   31   55 1   
    61   32   33 ar  
    62   32   56 1   
    63   33   63 1   
    64   34   57 1   
    65   34   58 1   
    66   34   59 1   
    67   35   60 1   
    68   35   61 1   
    69   35   62 1   
@<TRIPOS>SUBSTRUCTURE
     1 X4Z         1 TEMP              0 ****  ****    0 ROOT
