@<TRIPOS>MOLECULE
X4Z
   65    69     1     0     0
SMALL
bcc


@<TRIPOS>ATOM
      1 C1         -0.0110    0.4180    0.2780 cc        1 X4Z     -0.247800
      2 C2          1.3650    0.3060    0.2290 cd        1 X4Z     -0.007600
      3 C3         -0.4280    0.8520   -1.0870 cc        1 X4Z      0.616600
      4 C4         -0.5280    0.0740    1.6260 c3        1 X4Z      0.162200
      5 C5          1.9790   -0.1260    1.5280 c3        1 X4Z      0.225600
      6 N6          1.8520    0.6440   -1.0960 nd        1 X4Z     -0.088600
      7 N7         -1.5380    1.1260   -1.6750 nf        1 X4Z     -0.518700
      8 N8          0.9100    0.9410   -1.8260 nc        1 X4Z     -0.151300
      9 N9          0.7070   -0.2660    2.3780 n         1 X4Z     -0.436800
     10 C10         2.7110   -1.4570    1.3880 c3        1 X4Z     -0.118600
     11 C11         2.9150    0.9380    2.0900 c3        1 X4Z     -0.118600
     12 C12        -2.8190    1.0770   -1.0710 ca        1 X4Z      0.641300
     13 C13         0.7590   -0.6680    3.6570 c         1 X4Z      0.656100
     14 C14        -3.9090    1.4120   -1.9260 ca        1 X4Z     -0.312700
     15 N15        -3.0260    0.7420    0.2290 nb        1 X4Z     -0.768000
     16 N16        -0.6020   -0.8250    4.4130 n4        1 X4Z     -0.678800
     17 O17         1.7350   -0.9510    4.3680 o         1 X4Z     -0.552100
     18 C18        -5.2300    1.3710   -1.3240 ca        1 X4Z      0.448100
     19 S19        -3.9830    1.8540   -3.5230 ss        1 X4Z      0.243500
     20 C20        -4.3200    0.7400    0.6910 ca        1 X4Z      0.625300
     21 C21        -0.4340   -0.7810    5.9090 c3        1 X4Z      0.194800
     22 N22        -5.4340    1.0400   -0.0300 nb        1 X4Z     -0.615000
     23 C23        -6.2320    1.7320   -2.3060 cc        1 X4Z     -0.232800
     24 C24        -5.6530    2.0070   -3.5150 cd        1 X4Z     -0.150400
     25 C25        -4.5320    0.3700    2.1410 c3        1 X4Z     -0.118400
     26 C26        -1.7390   -0.4460    6.5630 ca        1 X4Z     -0.256300
     27 C27         0.1370   -2.1190    6.4550 c3        1 X4Z      0.086800
     28 C28        -1.9040    0.8120    7.1580 ca        1 X4Z     -0.115000
     29 C29        -2.8040   -1.3590    6.5580 ca        1 X4Z     -0.115000
     30 N30         0.2540   -2.1160    7.9470 n4        1 X4Z     -0.672400
     31 C31        -3.1180    1.1450    7.7590 ca        1 X4Z     -0.106500
     32 C32        -4.0140   -1.0210    7.1560 ca        1 X4Z     -0.106500
     33 C33        -4.1740    0.2310    7.7580 ca        1 X4Z     -0.056000
     34 C34         0.3160   -3.5140    8.4630 c3        1 X4Z      0.081100
     35 C35         1.4470   -1.3480    8.4020 c3        1 X4Z      0.081100
     36 H41C       -1.0470    0.9530    2.1030 h1        1 X4Z      0.090700
     37 H42C       -1.2220   -0.8130    1.5890 h1        1 X4Z      0.090700
     38 H101        2.0510   -2.2490    0.9620 hc        1 X4Z      0.077700
     39 H102        3.5740   -1.3060    0.6890 hc        1 X4Z      0.077700
     40 H103        3.1040   -1.7910    2.3780 hc        1 X4Z      0.077700
     41 H111        3.3080    0.6240    3.0880 hc        1 X4Z      0.077700
     42 H112        3.7760    1.0510    1.3820 hc        1 X4Z      0.077700
     43 H113        2.4080    1.9270    2.1840 hc        1 X4Z      0.077700
     44 H16        -1.0270   -1.7130    4.1320 hn        1 X4Z      0.461800
     45 H21         0.3260    0.0400    6.1060 hx        1 X4Z      0.129700
     46 H23        -7.3010    1.7690   -2.0730 ha        1 X4Z      0.192000
     47 H24        -6.2030    2.3040   -4.4140 h4        1 X4Z      0.202000
     48 H251       -3.5610    0.1570    2.6510 hc        1 X4Z      0.047700
     49 H252       -5.1810   -0.5380    2.2040 hc        1 X4Z      0.047700
     50 H253       -5.0400    1.2130    2.6710 hc        1 X4Z      0.047700
     51 H271       -0.5420   -2.9730    6.1640 hx        1 X4Z      0.128200
     52 H272        1.1670   -2.3030    6.0210 hx        1 X4Z      0.128200
     53 H28        -1.0830    1.5480    7.1530 ha        1 X4Z      0.141500
     54 H29        -2.6970   -2.3430    6.0760 ha        1 X4Z      0.141500
     55 H31        -3.2440    2.1360    8.2290 ha        1 X4Z      0.180000
     56 H32        -4.8530   -1.7390    7.1500 ha        1 X4Z      0.180000
     57 H341        1.1960   -4.0460    8.0100 hx        1 X4Z      0.115367
     58 H342        0.4320   -3.4850    9.5810 hx        1 X4Z      0.115367
     59 H343       -0.6330   -4.0560    8.2010 hx        1 X4Z      0.115367
     60 H351        1.3840   -0.2940    8.0210 hx        1 X4Z      0.115367
     61 H352        2.3830   -1.8350    8.0140 hx        1 X4Z      0.115367
     62 H353        1.4700   -1.3400    9.5260 hx        1 X4Z      0.115367
     63 H33        -5.1380    0.4990    8.2280 ha        1 X4Z      0.185000
     64 H162       -1.2480   -0.0680    4.1500 hn        1 X4Z      0.461800
     65 H301       -0.5930   -1.6640    8.3320 hn        1 X4Z      0.465800
@<TRIPOS>BOND
     1    1    2 2   
     2    1    3 1   
     3    1    4 1   
     4    2    5 1   
     5    2    6 1   
     6    3    7 2   
     7    3    8 1   
     8    4    9 1   
     9    4   36 1   
    10    4   37 1   
    11    5    9 1   
    12    5   10 1   
    13    5   11 1   
    14    6    8 2   
    15    7   12 1   
    16    9   13 1   
    17   10   38 1   
    18   10   39 1   
    19   10   40 1   
    20   11   41 1   
    21   11   42 1   
    22   11   43 1   
    23   12   14 ar  
    24   12   15 ar  
    25   13   16 1   
    26   13   17 2   
    27   14   18 ar  
    28   14   19 1   
    29   15   20 ar  
    30   16   21 1   
    31   16   44 1   
    32   16   64 1   
    33   18   22 ar  
    34   18   23 1   
    35   19   24 1   
    36   20   22 ar  
    37   20   25 1   
    38   21   26 1   
    39   21   27 1   
    40   21   45 1   
    41   23   24 2   
    42   23   46 1   
    43   24   47 1   
    44   25   48 1   
    45   25   49 1   
    46   25   50 1   
    47   26   28 ar  
    48   26   29 ar  
    49   27   30 1   
    50   27   51 1   
    51   27   52 1   
    52   28   31 ar  
    53   28   53 1   
    54   29   32 ar  
    55   29   54 1   
    56   30   34 1   
    57   30   35 1   
    58   30   65 1   
    59   31   33 ar  
    60   31   55 1   
    61   32   33 ar  
    62   32   56 1   
    63   33   63 1   
    64   34   57 1   
    65   34   58 1   
    66   34   59 1   
    67   35   60 1   
    68   35   61 1   
    69   35   62 1   
@<TRIPOS>SUBSTRUCTURE
     1 X4Z         1 TEMP              0 ****  ****    0 ROOT
