@<TRIPOS>MOLECULE
X4Z
   65    69     1     0     0
SMALL
bcc


@<TRIPOS>ATOM
      1 C1         -0.0130    0.4200    0.2780 cc        1 X4Z     -0.247800
      2 C2          1.3630    0.2990    0.2270 cd        1 X4Z     -0.007600
      3 C3         -0.4290    0.8610   -1.0850 cc        1 X4Z      0.615600
      4 C4         -0.5300    0.0770    1.6260 c3        1 X4Z      0.162200
      5 C5          1.9750   -0.1410    1.5240 c3        1 X4Z      0.225600
      6 N6          1.8500    0.6360   -1.0980 nd        1 X4Z     -0.088600
      7 N7         -1.5370    1.1450   -1.6700 nf        1 X4Z     -0.518700
      8 N8          0.9090    0.9420   -1.8260 nc        1 X4Z     -0.151300
      9 N9          0.7030   -0.2730    2.3750 n         1 X4Z     -0.436800
     10 C10         2.6970   -1.4760    1.3800 c3        1 X4Z     -0.118600
     11 C11         2.9200    0.9150    2.0870 c3        1 X4Z     -0.118600
     12 C12        -2.8170    1.1030   -1.0650 ca        1 X4Z      0.641300
     13 C13         0.7540   -0.6780    3.6540 c         1 X4Z      0.656100
     14 C14        -3.9070    1.4480   -1.9180 ca        1 X4Z     -0.312700
     15 N15        -3.0250    0.7660    0.2350 nb        1 X4Z     -0.768000
     16 N16        -0.6070   -0.8270    4.4110 n4        1 X4Z     -0.678800
     17 O17         1.7300   -0.9700    4.3620 o         1 X4Z     -0.552100
     18 C18        -5.2270    1.4160   -1.3130 ca        1 X4Z      0.448100
     19 S19        -3.9790    1.8950   -3.5140 ss        1 X4Z      0.243500
     20 C20        -4.3180    0.7730    0.6990 ca        1 X4Z      0.625300
     21 C21        -0.4360   -0.7910    5.9070 c3        1 X4Z      0.194800
     22 N22        -5.4320    1.0840   -0.0210 nb        1 X4Z     -0.615000
     23 C23        -6.2280    1.7870   -2.2930 cc        1 X4Z     -0.232800
     24 C24        -5.6490    2.0610   -3.5020 cd        1 X4Z     -0.150400
     25 C25        -4.5310    0.4020    2.1480 c3        1 X4Z     -0.118400
     26 C26        -1.7380   -0.4480    6.5640 ca        1 X4Z     -0.256300
     27 C27         0.1260   -2.1350    6.4470 c3        1 X4Z      0.086800
     28 C28        -1.8920    0.8080    7.1650 ca        1 X4Z     -0.115000
     29 C29        -2.8090   -1.3540    6.5570 ca        1 X4Z     -0.115000
     30 N30         0.2450   -2.1390    7.9380 n4        1 X4Z     -0.672400
     31 C31        -3.1030    1.1470    7.7690 ca        1 X4Z     -0.106500
     32 C32        -4.0170   -1.0100    7.1580 ca        1 X4Z     -0.106500
     33 C33        -4.1660    0.2420    7.7660 ca        1 X4Z     -0.056000
     34 C34         0.2970   -3.5400    8.4490 c3        1 X4Z      0.081100
     35 C35         1.4440   -1.3820    8.3950 c3        1 X4Z      0.081100
     36 H41C       -1.2310   -0.8040    1.5890 h1        1 X4Z      0.090700
     37 H42C       -1.0420    0.9600    2.1060 h1        1 X4Z      0.090700
     38 H101        3.0900   -1.8150    2.3690 hc        1 X4Z      0.077700
     39 H102        3.5600   -1.3300    0.6800 hc        1 X4Z      0.077700
     40 H103        2.0320   -2.2630    0.9530 hc        1 X4Z      0.077700
     41 H111        3.7800    1.0240    1.3780 hc        1 X4Z      0.077700
     42 H112        3.3120    0.5960    3.0830 hc        1 X4Z      0.077700
     43 H113        2.4200    1.9080    2.1850 hc        1 X4Z      0.077700
     44 H16        -1.2470   -0.0640    4.1520 hn        1 X4Z      0.461800
     45 H21         0.3300    0.0240    6.1070 hx        1 X4Z      0.129700
     46 H23        -7.2960    1.8310   -2.0580 ha        1 X4Z      0.192000
     47 H24        -6.1970    2.3630   -4.4000 h4        1 X4Z      0.202000
     48 H251       -3.5610    0.1810    2.6570 hc        1 X4Z      0.047700
     49 H252       -5.0330    1.2470    2.6810 hc        1 X4Z      0.047700
     50 H253       -5.1870   -0.5020    2.2100 hc        1 X4Z      0.047700
     51 H271       -0.5600   -2.9820    6.1540 hx        1 X4Z      0.128200
     52 H272        1.1530   -2.3250    6.0100 hx        1 X4Z      0.128200
     53 H28        -1.0650    1.5380    7.1610 ha        1 X4Z      0.141500
     54 H29        -2.7110   -2.3370    6.0710 ha        1 X4Z      0.141500
     55 H31        -3.2210    2.1380    8.2430 ha        1 X4Z      0.180000
     56 H32        -4.8610   -1.7210    7.1500 ha        1 X4Z      0.180000
     57 H341        0.4150   -3.5150    9.5680 hx        1 X4Z      0.115367
     58 H342       -0.6560   -4.0730    8.1860 hx        1 X4Z      0.115367
     59 H343        1.1720   -4.0760    7.9930 hx        1 X4Z      0.115367
     60 H351        1.4690   -1.3790    9.5190 hx        1 X4Z      0.115367
     61 H352        1.3890   -0.3260    8.0180 hx        1 X4Z      0.115367
     62 H353        2.3760   -1.8740    8.0040 hx        1 X4Z      0.115367
     63 H33        -5.1270    0.5150    8.2380 ha        1 X4Z      0.185000
     64 H162       -1.0390   -1.7110    4.1280 hn        1 X4Z      0.461800
     65 H301       -0.5980   -1.6820    8.3270 hn        1 X4Z      0.465800
@<TRIPOS>BOND
     1    1    2 2   
     2    1    3 1   
     3    1    4 1   
     4    2    5 1   
     5    2    6 1   
     6    3    7 2   
     7    3    8 1   
     8    4    9 1   
     9    4   36 1   
    10    4   37 1   
    11    5    9 1   
    12    5   10 1   
    13    5   11 1   
    14    6    8 2   
    15    7   12 1   
    16    9   13 1   
    17   10   38 1   
    18   10   39 1   
    19   10   40 1   
    20   11   41 1   
    21   11   42 1   
    22   11   43 1   
    23   12   14 ar  
    24   12   15 ar  
    25   13   16 1   
    26   13   17 2   
    27   14   18 ar  
    28   14   19 1   
    29   15   20 ar  
    30   16   21 1   
    31   16   44 1   
    32   16   64 1   
    33   18   22 ar  
    34   18   23 1   
    35   19   24 1   
    36   20   22 ar  
    37   20   25 1   
    38   21   26 1   
    39   21   27 1   
    40   21   45 1   
    41   23   24 2   
    42   23   46 1   
    43   24   47 1   
    44   25   48 1   
    45   25   49 1   
    46   25   50 1   
    47   26   28 ar  
    48   26   29 ar  
    49   27   30 1   
    50   27   51 1   
    51   27   52 1   
    52   28   31 ar  
    53   28   53 1   
    54   29   32 ar  
    55   29   54 1   
    56   30   34 1   
    57   30   35 1   
    58   30   65 1   
    59   31   33 ar  
    60   31   55 1   
    61   32   33 ar  
    62   32   56 1   
    63   33   63 1   
    64   34   57 1   
    65   34   58 1   
    66   34   59 1   
    67   35   60 1   
    68   35   61 1   
    69   35   62 1   
@<TRIPOS>SUBSTRUCTURE
     1 X4Z         1 TEMP              0 ****  ****    0 ROOT
