@<TRIPOS>MOLECULE
X4Z
   63    67     1     0     0
SMALL
bcc


@<TRIPOS>ATOM
      1 C1          1.8710   -1.6080    0.4520 cc        1 X4Z     -0.250800
      2 C2          1.6650   -2.9520    0.7020 cd        1 X4Z     -0.006600
      3 C3          3.3400   -1.3970    0.5820 cc        1 X4Z      0.637600
      4 C4          0.5730   -0.9370    0.1580 c3        1 X4Z      0.168200
      5 C5          0.2060   -3.3340    0.6160 c3        1 X4Z      0.215600
      6 N6          2.9230   -3.6120    0.9880 nd        1 X4Z     -0.103600
      7 N7          4.1600   -0.4130    0.4690 nf        1 X4Z     -0.575700
      8 N8          3.8490   -2.8090    0.9310 nc        1 X4Z     -0.207300
      9 N9         -0.4000   -2.0420    0.1550 n         1 X4Z     -0.490800
     10 C10        -0.0140   -4.4540   -0.4020 c3        1 X4Z     -0.103600
     11 C11        -0.2810   -3.8020    1.9900 c3        1 X4Z     -0.103600
     12 C12         3.7840    0.9190    0.1560 ca        1 X4Z      0.666300
     13 C13        -1.7830   -1.8220    0.2490 c         1 X4Z      0.765100
     14 C14         4.8620    1.8050   -0.1540 ca        1 X4Z     -0.318700
     15 N15         2.5070    1.3670    0.1700 nb        1 X4Z     -0.730000
     16 N16        -2.2780   -0.5120    0.0980 n         1 X4Z     -0.542900
     17 O17        -2.5690   -2.7800    0.4560 o         1 X4Z     -0.642100
     18 C18         4.5080    3.1720   -0.4450 ca        1 X4Z      0.445100
     19 S19         6.5070    1.5640   -0.2490 ss        1 X4Z      0.175500
     20 C20         2.2820    2.6980   -0.1160 ca        1 X4Z      0.651300
     21 C21        -3.7090   -0.3430   -0.0940 c3        1 X4Z      0.137000
     22 N22         3.2290    3.6220   -0.4270 nb        1 X4Z     -0.650000
     23 C23         5.7000    3.9420   -0.7410 cc        1 X4Z     -0.243800
     24 C24         6.8210    3.1600   -0.6600 cd        1 X4Z     -0.165400
     25 C25         0.8460    3.1650   -0.0590 c3        1 X4Z     -0.132400
     26 C26        -4.1090    1.0980    0.1050 ca        1 X4Z     -0.073300
     27 C27        -4.2020   -0.8270   -1.4980 c3        1 X4Z      0.153800
     28 C28        -5.0500    1.4190    1.0890 ca        1 X4Z     -0.119000
     29 C29        -3.5640    2.1160   -0.6850 ca        1 X4Z     -0.119000
     30 N30        -5.5890   -1.2590   -1.4530 n3        1 X4Z     -0.743600
     31 C31        -5.4440    2.7430    1.2750 ca        1 X4Z     -0.130000
     32 C32        -3.9570    3.4400   -0.4940 ca        1 X4Z     -0.130000
     33 C33        -4.8980    3.7550    0.4860 ca        1 X4Z     -0.127000
     34 C34        -6.3310   -0.9410   -2.6490 c3        1 X4Z      0.157100
     35 C35        -5.7390   -2.6380   -1.0420 c3        1 X4Z      0.157100
     36 H41C        0.3350   -0.1620    0.9410 h1        1 X4Z      0.075700
     37 H42C        0.5790   -0.4440   -0.8540 h1        1 X4Z      0.075700
     38 H101        0.5160   -5.3700   -0.0480 hc        1 X4Z      0.058200
     39 H102       -1.1080   -4.6680   -0.4880 hc        1 X4Z      0.058200
     40 H103        0.3820   -4.1720   -1.4060 hc        1 X4Z      0.058200
     41 H111       -0.1400   -3.0080    2.7600 hc        1 X4Z      0.058200
     42 H112       -1.3650   -4.0680    1.9390 hc        1 X4Z      0.058200
     43 H113        0.3050   -4.7040    2.2900 hc        1 X4Z      0.058200
     44 H16        -1.7030    0.1580   -0.3620 hn        1 X4Z      0.293500
     45 H21        -4.2070   -0.9810    0.7010 h1        1 X4Z      0.100700
     46 H23         5.6650    5.0050   -0.9920 ha        1 X4Z      0.176000
     47 H24         7.8390    3.5120   -0.8400 h4        1 X4Z      0.180000
     48 H251        0.1400    2.3000   -0.1000 hc        1 X4Z      0.062367
     49 H252        0.6840    3.7160    0.9010 hc        1 X4Z      0.062367
     50 H253        0.6270    3.8520   -0.9120 hc        1 X4Z      0.062367
     51 H271       -4.0900    0.0240   -2.2250 h1        1 X4Z      0.038200
     52 H272       -3.5280   -1.6650   -1.8450 h1        1 X4Z      0.038200
     53 H28        -5.4860    0.6230    1.7120 ha        1 X4Z      0.131000
     54 H29        -2.8300    1.8770   -1.4690 ha        1 X4Z      0.131000
     55 H31        -6.1890    2.9880    2.0460 ha        1 X4Z      0.132000
     56 H32        -3.5270    4.2350   -1.1190 ha        1 X4Z      0.132000
     57 H341       -5.9340   -1.4530   -3.5690 h1        1 X4Z      0.034533
     58 H342       -7.3980   -1.2540   -2.5030 h1        1 X4Z      0.034533
     59 H343       -6.3020    0.1680   -2.8160 h1        1 X4Z      0.034533
     60 H351       -5.0530   -2.8500   -0.1770 h1        1 X4Z      0.034533
     61 H352       -6.8010   -2.7960   -0.7190 h1        1 X4Z      0.034533
     62 H353       -5.5030   -3.3680   -1.8640 h1        1 X4Z      0.034533
     63 H33        -5.2090    4.7990    0.6350 ha        1 X4Z      0.132000
@<TRIPOS>BOND
     1    1    2 2   
     2    1    3 1   
     3    1    4 1   
     4    2    5 1   
     5    2    6 1   
     6    3    7 2   
     7    3    8 1   
     8    4    9 1   
     9    4   36 1   
    10    4   37 1   
    11    5    9 1   
    12    5   10 1   
    13    5   11 1   
    14    6    8 2   
    15    7   12 1   
    16    9   13 1   
    17   10   38 1   
    18   10   39 1   
    19   10   40 1   
    20   11   41 1   
    21   11   42 1   
    22   11   43 1   
    23   12   14 ar  
    24   12   15 ar  
    25   13   16 1   
    26   13   17 2   
    27   14   18 ar  
    28   14   19 1   
    29   15   20 ar  
    30   16   21 1   
    31   16   44 1   
    32   18   22 ar  
    33   18   23 1   
    34   19   24 1   
    35   20   22 ar  
    36   20   25 1   
    37   21   26 1   
    38   21   27 1   
    39   21   45 1   
    40   23   24 2   
    41   23   46 1   
    42   24   47 1   
    43   25   48 1   
    44   25   49 1   
    45   25   50 1   
    46   26   28 ar  
    47   26   29 ar  
    48   27   30 1   
    49   27   51 1   
    50   27   52 1   
    51   28   31 ar  
    52   28   53 1   
    53   29   32 ar  
    54   29   54 1   
    55   30   34 1   
    56   30   35 1   
    57   31   33 ar  
    58   31   55 1   
    59   32   33 ar  
    60   32   56 1   
    61   33   63 1   
    62   34   57 1   
    63   34   58 1   
    64   34   59 1   
    65   35   60 1   
    66   35   61 1   
    67   35   62 1   
@<TRIPOS>SUBSTRUCTURE
     1 X4Z         1 TEMP              0 ****  ****    0 ROOT
