@<TRIPOS>MOLECULE
X55
   39    41     1     0     0
SMALL
bcc


@<TRIPOS>ATOM
      1 CAA         2.1470    2.3690   -2.4050 c3        1 X55      0.117700
      2 OAC        -1.4780    4.0750   -1.2520 oh        1 X55     -0.489100
      3 BRAD       -3.4050   -0.2970    0.6920 br        1 X55     -0.081100
      4 CAE         3.5530    1.7900    2.2940 ca        1 X55     -0.125000
      5 CAF         4.0450    0.6640    1.6330 ca        1 X55     -0.136000
      6 CAG         2.2210    1.8300    2.7040 ca        1 X55     -0.136000
      7 CAH         3.2070   -0.4210    1.3830 ca        1 X55     -0.113500
      8 CAI         1.3790    0.7470    2.4530 ca        1 X55     -0.113500
      9 CAJ        -2.2170    1.9910   -0.4120 ca        1 X55     -0.121000
     10 CAK         0.1700    0.7560   -1.2060 ca        1 X55     -0.125000
     11 CAL         0.8080   -3.0620   -1.9190 c3        1 X55     -0.098300
     12 CAM         0.9850   -1.5780    1.5740 c3        1 X55      0.156300
     13 OAN         0.8900    2.9490   -2.0700 os        1 X55     -0.344900
     14 SAO        -0.7890   -2.3080   -1.9750 ss        1 X55     -0.286200
     15 CAP         1.4380   -2.7100   -0.5890 c         1 X55      0.701500
     16 CAQ         1.8700   -0.3830    1.7920 ca        1 X55     -0.114300
     17 CAR        -1.2230    2.7420   -1.0460 ca        1 X55      0.122100
     18 CAS        -2.0160    0.6280   -0.1720 ca        1 X55     -0.009900
     19 CAT        -0.0190    2.1140   -1.4450 ca        1 X55      0.059100
     20 CAU        -0.8260    0.0020   -0.5690 ca        1 X55     -0.075300
     21 CAV        -0.6180   -1.4660   -0.3530 c3        1 X55      0.248100
     22 NAW         0.6550   -1.8690    0.2000 n         1 X55     -0.477800
     23 HAA         2.0120    1.5560   -3.1590 h1        1 X55      0.051033
     24 HAAA        2.7160    3.2270   -2.8450 h1        1 X55      0.051033
     25 HAAB        2.6570    1.9800   -1.4910 h1        1 X55      0.051033
     26 HOAC       -0.7070    4.4650   -1.6930 ho        1 X55      0.441000
     27 HAF         5.0970    0.6280    1.3150 ha        1 X55      0.133500
     28 HAG         1.8310    2.7160    3.2260 ha        1 X55      0.133500
     29 HAH         3.5910   -1.3190    0.8690 ha        1 X55      0.145500
     30 HAI         0.3280    0.7840    2.7770 ha        1 X55      0.145500
     31 HAJ        -3.1490    2.4960   -0.1120 ha        1 X55      0.170000
     32 HAK         1.1030    0.2630   -1.5200 ha        1 X55      0.153000
     33 HAL         0.7210   -4.1720   -2.0070 h1        1 X55      0.107200
     34 HALA        1.4550   -2.6930   -2.7500 h1        1 X55      0.107200
     35 HAM         1.5220   -2.4830    1.9910 h1        1 X55      0.068200
     36 HAMA        0.0210   -1.4390    2.1450 h1        1 X55      0.068200
     37 HAV        -1.4440   -1.8730    0.3030 h2        1 X55      0.100700
     38 OAB         2.5440   -3.1400   -0.2230 o         1 X55     -0.614500
     39 HAE         4.2160    2.6440    2.4950 ha        1 X55      0.131000
@<TRIPOS>BOND
     1    1   13 1   
     2    1   23 1   
     3    1   24 1   
     4    1   25 1   
     5    2   17 1   
     6    2   26 1   
     7    3   18 1   
     8    4    5 ar  
     9    4    6 ar  
    10    4   39 1   
    11    5    7 ar  
    12    5   27 1   
    13    6    8 ar  
    14    6   28 1   
    15    7   16 ar  
    16    7   29 1   
    17    8   16 ar  
    18    8   30 1   
    19    9   17 ar  
    20    9   18 ar  
    21    9   31 1   
    22   10   19 ar  
    23   10   20 ar  
    24   10   32 1   
    25   11   14 1   
    26   11   15 1   
    27   11   33 1   
    28   11   34 1   
    29   12   16 1   
    30   12   22 1   
    31   12   35 1   
    32   12   36 1   
    33   13   19 1   
    34   14   21 1   
    35   15   22 1   
    36   15   38 2   
    37   17   19 ar  
    38   18   20 ar  
    39   20   21 1   
    40   21   22 1   
    41   21   37 1   
@<TRIPOS>SUBSTRUCTURE
     1 X55         1 TEMP              0 ****  ****    0 ROOT
