@<TRIPOS>MOLECULE
X55
   39    38     1     0     0
SMALL
bcc


@<TRIPOS>ATOM
      1 CAA        -0.3870   -1.1370    0.7500 c3        1 X55     -0.078000
      2 OAC         3.5190    0.1730    0.2150 oh        1 X55     -0.254000
      3 BRAD        4.1220    1.6450    5.1440 br        1 X55      0.086000
      4 CAE         0.6990   -5.6190    1.6050 c3        1 X55     -0.140000
      5 CAF        -0.0840   -4.7350    2.4010 c1        1 X55     -0.087000
      6 CAG         3.5070   -3.9990    0.3290 c1        1 X55      0.144000
      7 CAH        -0.7380   -3.9830    3.0710 c1        1 X55     -0.106000
      8 CAI         4.4020   -3.1000    0.0340 c2        1 X55     -0.546000
      9 CAJ         3.6580    0.7940    2.5000 ca        1 X55     -0.104000
     10 CAK         1.0850   -0.2190    2.9830 ca        1 X55     -0.152000
     11 CAL        -0.4610    2.0120    6.4660 c3        1 X55     -0.325000
     12 CAM        -2.1150   -2.3970    4.5240 c1        1 X55     -0.188000
     13 OAN         0.9780   -0.7600    0.5800 os        1 X55     -0.229000
     14 SAO         1.2670    2.0440    6.0790 ss        1 X55      0.100000
     15 CAP        -0.9800    0.6350    6.1260 c2        1 X55      0.315000
     16 CAQ        -1.4710   -3.1410    3.8380 c1        1 X55     -0.074000
     17 CAR         2.9200    0.2410    1.4510 ca        1 X55      0.052000
     18 CAS         3.1120    0.8350    3.7840 ca        1 X55     -0.161000
     19 CAT         1.6180   -0.2560    1.6940 ca        1 X55      0.025000
     20 CAU         1.8320    0.3150    4.0390 ca        1 X55     -0.063000
     21 CAV         1.3120    0.3170    5.4480 c3        1 X55     -0.021000
     22 NAW         0.0060   -0.2330    5.6750 n         1 X55     -0.385000
     23 HAA        -0.4680   -1.9980    1.4610 h1        1 X55      0.095000
     24 HAAA       -0.6980   -1.4440   -0.2810 h1        1 X55      0.095000
     25 HAAB       -0.9930   -0.2700    1.1060 h1        1 X55      0.095000
     26 HOAC        2.8220    0.0260   -0.4460 ho        1 X55      0.239000
     27 HAF         0.0990   -6.0010    0.7380 hc        1 X55      0.113000
     28 HAG         1.6100   -5.0920    1.2040 hc        1 X55      0.113000
     29 HAH         5.4010   -3.3250   -0.3690 ha        1 X55      0.202000
     30 HAI         4.2350   -2.0140    0.1690 ha        1 X55      0.202000
     31 HAJ         4.6640    1.1910    2.2900 ha        1 X55      0.170000
     32 HAK         0.0740   -0.6220    3.1500 ha        1 X55      0.154000
     33 HAL        -1.0180    2.7780    5.8740 h1        1 X55      0.147500
     34 HALA       -0.6250    2.2190    7.5510 h1        1 X55      0.147500
     35 HAM        -0.2200   -1.1380    5.3320 hn        1 X55      0.259000
     36 HAMA       -2.6770   -1.7290    5.1370 ha        1 X55      0.256000
     37 HAV         2.0530   -0.2410    6.0940 h2        1 X55      0.141000
     38 OAB        -2.1620    0.2710    6.2520 o         1 X55     -0.352000
     39 HAE         1.0380   -6.4960    2.2160 hc        1 X55      0.113000
@<TRIPOS>BOND
     1    1   13 1   
     2    1   23 1   
     3    1   24 1   
     4    1   25 1   
     5    2   17 1   
     6    2   26 1   
     7    3   18 1   
     8    4    5 1   
     9    4   27 1   
    10    4   28 1   
    11    4   39 1   
    12    5    7 1   
    13    6    8 1   
    14    7   16 1   
    15    8   29 1   
    16    8   30 1   
    17    9   17 1   
    18    9   18 1   
    19    9   31 1   
    20   10   19 1   
    21   10   20 1   
    22   10   32 1   
    23   11   14 1   
    24   11   15 1   
    25   11   33 1   
    26   11   34 1   
    27   12   16 1   
    28   12   36 1   
    29   13   19 1   
    30   14   21 1   
    31   15   22 1   
    32   15   38 1   
    33   17   19 1   
    34   18   20 1   
    35   20   21 1   
    36   21   22 1   
    37   21   37 1   
    38   22   35 1   
@<TRIPOS>SUBSTRUCTURE
     1 X55         1 TEMP              0 ****  ****    0 ROOT
