@<TRIPOS>MOLECULE
X62
   31    31     1     0     0
SMALL
bcc


@<TRIPOS>ATOM
      1 N01         0.5090    1.0770    0.8100 nh        1 X62     -0.302000
      2 N02         4.2740    1.3350    2.3070 n         1 X62     -0.419000
      3 N03        -5.7410   -1.2880   -1.5480 n2        1 X62     -0.275000
      4 N04        -4.0710   -0.5240   -0.0780 n2        1 X62      0.001000
      5 N05         4.7310   -1.3030   -2.1890 no        1 X62      0.580000
      6 C06         3.8260   -0.2700   -0.1340 ca        1 X62      0.005000
      7 C07         2.8140    0.2990    0.6280 ca        1 X62     -0.212000
      8 C08         1.5070    0.4760    0.0760 ca        1 X62      0.193000
      9 C09         1.3060    0.0790   -1.2740 ca        1 X62     -0.238000
     10 C10         2.3290   -0.4780   -2.0340 ca        1 X62      0.055000
     11 C11         3.5990   -0.6800   -1.4580 ca        1 X62     -0.196000
     12 C13        -0.8600    1.1270    0.3810 c3        1 X62     -0.025000
     13 C14        -1.6150   -0.2110    0.4780 c3        1 X62     -0.114000
     14 C15        -6.1330   -1.6910   -2.5890 c1        1 X62      0.157000
     15 C16        -5.3140   -0.8300   -0.3220 c2        1 X62     -0.020000
     16 C17        -2.9870   -0.0110    0.0500 c1        1 X62     -0.083000
     17 O18         2.2950    0.4470    2.9710 o         1 X62     -0.394000
     18 O19         4.5370   -2.2040   -2.9550 o         1 X62     -0.350000
     19 O20         5.8400   -0.8960   -1.9500 o         1 X62     -0.350000
     20 CL21        1.9930   -0.8610   -3.6460 cl        1 X62      0.052000
     21 CL22       -6.5090   -0.5840    0.9010 cl        1 X62      0.034000
     22 HN01        0.6540    1.1310    1.8010 hn        1 X62      0.258000
     23 H102        4.4870    1.5920    3.2390 hn        1 X62      0.235000
     24 H202        4.9120    1.5630    1.5870 hn        1 X62      0.235000
     25 H06         4.8310   -0.4210    0.3040 ha        1 X62      0.170000
     26 H09         0.3190    0.2150   -1.7450 ha        1 X62      0.163000
     27 H113       -1.3840    1.8830    1.0350 h1        1 X62      0.115500
     28 H213       -0.9140    1.5010   -0.6810 h1        1 X62      0.115500
     29 H15        -1.1240   -0.9820   -0.1800 hc        1 X62      0.126000
     30 H17        -1.5940   -0.5960    1.5360 hc        1 X62      0.126000
     31 C12         3.0970    0.6890    2.0400 c2        1 X62      0.357000
@<TRIPOS>BOND
     1    1    8 1   
     2    1   12 1   
     3    1   22 1   
     4    2   23 1   
     5    2   24 1   
     6    2   31 1   
     7    3   14 1   
     8    3   15 1   
     9    4   15 1   
    10    4   16 1   
    11    5   11 1   
    12    5   18 1   
    13    5   19 1   
    14    6    7 1   
    15    6   11 1   
    16    6   25 1   
    17    7    8 1   
    18    7   31 1   
    19    8    9 1   
    20    9   10 1   
    21    9   26 1   
    22   10   11 1   
    23   10   20 1   
    24   12   13 1   
    25   12   27 1   
    26   12   28 1   
    27   13   16 1   
    28   13   29 1   
    29   13   30 1   
    30   15   21 1   
    31   17   31 1   
@<TRIPOS>SUBSTRUCTURE
     1 X62         1 TEMP              0 ****  ****    0 ROOT
