@<TRIPOS>MOLECULE
X62
   31    32     1     0     0
SMALL
bcc


@<TRIPOS>ATOM
      1 N01         0.4750   -0.1670   -0.1310 nh        1 X62     -0.750600
      2 N02        -1.4900   -3.7070   -0.5960 n         1 X62     -0.661000
      3 N03         4.8630    1.0610    1.0870 nb        1 X62     -0.676000
      4 N04         4.7100   -0.1140   -1.0530 nb        1 X62     -0.676000
      5 N05        -5.2100   -0.1270    0.2250 no        1 X62      0.325200
      6 C06        -3.0380   -1.3030    0.1420 ca        1 X62      0.006000
      7 C07        -1.6520   -1.3490    0.0680 ca        1 X62     -0.231600
      8 C08        -0.8970   -0.1390   -0.0310 ca        1 X62      0.279600
      9 C09        -1.6180    1.0850   -0.0950 ca        1 X62     -0.239000
     10 C10        -3.0060    1.1180   -0.0340 ca        1 X62      0.135400
     11 C11        -3.7310   -0.0820    0.1120 ca        1 X62     -0.243200
     12 C13         1.2540    1.0450   -0.0380 c3        1 X62      0.265100
     13 C14         2.7230    0.7840   -0.0060 ca        1 X62     -0.354900
     14 C15         3.5310    1.2470    1.0540 ca        1 X62      0.458200
     15 C16         5.4010    0.3820    0.0230 ca        1 X62      0.730000
     16 C17         3.3820    0.0960   -1.0480 ca        1 X62      0.458200
     17 O18         0.0790   -2.8490    0.7990 o         1 X62     -0.630100
     18 O19        -5.8010    0.7270    0.8230 o         1 X62     -0.202000
     19 O20        -5.7780   -1.0680   -0.2690 o         1 X62     -0.202000
     20 CL21       -3.7640    2.6240   -0.1730 cl        1 X62     -0.029400
     21 CL22        7.0990    0.1300    0.0410 cl        1 X62     -0.090000
     22 HN01        0.9370   -1.0170    0.1300 hn        1 X62      0.467800
     23 H102       -2.2970   -3.5890   -1.1520 hn        1 X62      0.321000
     24 H202       -1.0560   -4.5960   -0.5580 hn        1 X62      0.321000
     25 H06        -3.6190   -2.2400    0.2420 ha        1 X62      0.170000
     26 H09        -1.0740    2.0370   -0.2010 ha        1 X62      0.161000
     27 H113        1.0220    1.6850   -0.9420 h1        1 X62      0.058700
     28 H213        0.9590    1.6340    0.8820 h1        1 X62      0.058700
     29 H15         3.1000    1.7910    1.9160 h4        1 X62      0.042100
     30 H17         2.8250   -0.3040   -1.9160 h4        1 X62      0.042100
     31 C12        -0.9610   -2.6700    0.1260 c         1 X62      0.682700
@<TRIPOS>BOND
     1    1    8 1   
     2    1   12 1   
     3    1   22 1   
     4    2   23 1   
     5    2   24 1   
     6    2   31 1   
     7    3   14 ar  
     8    3   15 ar  
     9    4   15 ar  
    10    4   16 ar  
    11    5   11 1   
    12    5   18 1   
    13    5   19 1   
    14    6    7 ar  
    15    6   11 ar  
    16    6   25 1   
    17    7    8 ar  
    18    7   31 1   
    19    8    9 ar  
    20    9   10 ar  
    21    9   26 1   
    22   10   11 ar  
    23   10   20 1   
    24   12   13 1   
    25   12   27 1   
    26   12   28 1   
    27   13   14 ar  
    28   13   16 ar  
    29   14   29 1   
    30   15   21 1   
    31   16   30 1   
    32   17   31 2   
@<TRIPOS>SUBSTRUCTURE
     1 X62         1 TEMP              0 ****  ****    0 ROOT
