@<TRIPOS>MOLECULE
X63
   43    44     1     0     0
SMALL
bcc


@<TRIPOS>ATOM
      1 N01         0.1700   -0.2760    1.1450 nu        1 X63     -0.272000
      2 N02         4.4180    0.0430    2.3500 nz        1 X63     -0.148000
      3 N03        -4.3840   -0.4580    0.6910 n2        1 X63     -0.169000
      4 N04        -2.8840    0.8880   -0.7650 n2        1 X63     -0.277000
      5 C08         3.5520   -0.3930   -0.3640 ca        1 X63      0.045000
      6 C09         2.5770   -0.2270    0.6400 ca        1 X63     -0.335000
      7 C10         1.1790   -0.2300    0.2240 ca        1 X63      0.270000
      8 C11         0.8920   -0.2010   -1.1480 ca        1 X63     -0.360000
      9 C12         1.8800   -0.2270   -2.1710 ca        1 X63      0.257000
     10 C13         3.2510   -0.4390   -1.7090 ca        1 X63     -0.227000
     11 C15        -1.2000   -0.3150    0.7650 cx        1 X63     -0.060000
     12 C16        -2.2570    0.3130    1.6570 cx        1 X63     -0.229000
     13 C17        -3.5810   -0.3520    1.6950 c2        1 X63      0.006000
     14 C18        -3.9900    0.1580   -0.5720 c2        1 X63      0.152000
     15 C19        -1.9500    0.9460    0.2920 cx        1 X63     -0.051000
     16 C20         0.2210    0.1790   -3.8980 c3        1 X63     -0.108000
     17 C21         3.3260    0.0600   -5.5910 c1        1 X63     -0.053000
     18 O22         2.2450    0.0330    3.0340 o         1 X63     -0.274000
     19 O23         4.2850    0.8770   -5.3560 oh        1 X63     -0.129000
     20 O24         5.4820   -0.4430   -2.2900 o         1 X63     -0.496200
     21 O25         4.1520   -1.2410   -3.7060 o         1 X63     -0.496200
     22 HN01        0.3650   -0.1910    2.1190 hn        1 X63      0.259000
     23 H102        4.8480    0.7980    1.8120 hn        1 X63      0.255667
     24 H202        4.5160    0.2400    3.3530 hn        1 X63      0.255667
     25 HN05        2.3000   -0.0290   -4.2280 hn        1 X63      0.330000
     26 H106       -5.7830   -0.3750   -1.4050 hn        1 X63      0.231000
     27 H206       -4.7850    0.5370   -2.4180 hn        1 X63      0.231000
     28 H08         4.6170   -0.5160   -0.0870 ha        1 X63      0.137000
     29 H11        -0.1680   -0.1410   -1.4580 ha        1 X63      0.184000
     30 H115       -1.4520   -1.2840    0.2700 h1        1 X63      0.152000
     31 H215       -1.9650    0.8160    2.5960 hc        1 X63      0.155000
     32 H17        -3.9250   -0.7600    2.6670 h4        1 X63      0.178000
     33 H19        -1.3860    1.9040    0.2570 h1        1 X63      0.157000
     34 H120       -0.4180   -0.7190   -3.6780 h1        1 X63      0.104333
     35 H220       -0.2300    1.0760   -3.3910 h1        1 X63      0.104333
     36 H121        3.3850   -0.6400   -6.4460 ha        1 X63      0.067000
     37 H221        0.2340    0.3540   -5.0070 h1        1 X63      0.104333
     38 HO23        5.0570    0.8360   -5.9640 ho        1 X63      0.195000
     39 H023        4.8930   -0.8350    2.1340 hn        1 X63      0.255667
     40 C14         2.9260   -0.0660    2.0110 c2        1 X63      0.329000
     41 N05         1.5730   -0.0330   -3.4620 nu        1 X63     -0.265000
     42 N06        -4.8640   -0.0690   -1.6330 n8        1 X63     -0.316000
     43 N07         4.3640   -0.7160   -2.6440 no        1 X63      0.848400
@<TRIPOS>BOND
     1    1    7 1   
     2    1   11 1   
     3    1   22 1   
     4    2   23 1   
     5    2   24 1   
     6    2   39 1   
     7    2   40 1   
     8    3   13 1   
     9    3   14 1   
    10    4   14 1   
    11    4   15 1   
    12    5    6 1   
    13    5   10 1   
    14    5   28 1   
    15    6    7 1   
    16    6   40 1   
    17    7    8 1   
    18    8    9 1   
    19    8   29 1   
    20    9   10 1   
    21    9   41 1   
    22   10   43 1   
    23   11   12 1   
    24   11   15 1   
    25   11   30 1   
    26   12   13 1   
    27   12   15 1   
    28   12   31 1   
    29   13   32 1   
    30   14   42 1   
    31   15   33 1   
    32   16   34 1   
    33   16   35 1   
    34   16   37 1   
    35   16   41 1   
    36   17   19 1   
    37   17   36 1   
    38   18   40 1   
    39   19   38 1   
    40   20   43 2   
    41   21   43 2   
    42   25   41 1   
    43   26   42 1   
    44   27   42 1   
@<TRIPOS>SUBSTRUCTURE
     1 X63         1 TEMP              0 ****  ****    0 ROOT
