@<TRIPOS>MOLECULE
X63
   43    42     1     0     0
SMALL
bcc


@<TRIPOS>ATOM
      1 N01        -0.3210    2.1640   -0.6600 nh        1 X63     -0.173000
      2 N02         0.9360   -0.7840    2.0420 n4        1 X63     -0.160000
      3 N03        -3.6180   -1.3190    2.1870 n2        1 X63     -0.216000
      4 N04        -1.8430   -0.2460    0.8790 n2        1 X63     -0.216000
      5 C08         2.6590   -0.0520   -0.2630 ca        1 X63      0.042000
      6 C09         1.4890    0.6340    0.0560 ca        1 X63     -0.312000
      7 C10         0.8330    1.3910   -0.9740 ca        1 X63      0.187000
      8 C11         1.3090    1.3450   -2.2680 ca        1 X63     -0.231000
      9 C12         2.4750    0.5800   -2.6470 ca        1 X63      0.239000
     10 C13         3.1820   -0.0570   -1.5540 ca        1 X63     -0.255000
     11 C15        -1.3550    2.1700   -1.4680 c1        1 X63     -0.145000
     12 C16        -3.8060   -1.1390   -0.2160 c2        1 X63     -0.224000
     13 C17        -4.2850   -1.5500    1.0430 c2        1 X63     -0.010500
     14 C18        -2.4080   -0.6610    2.0730 c2        1 X63      0.063000
     15 C19        -2.5630   -0.4830   -0.2350 c2        1 X63     -0.010500
     16 C20         2.1120    1.0990   -4.9920 c3        1 X63     -0.111000
     17 C21         4.9310   -1.0060   -4.9090 c1        1 X63     -0.051000
     18 O22         0.4170    1.4670    2.0730 o         1 X63     -0.226000
     19 O23         4.8590   -2.2270   -4.5260 oh        1 X63     -0.128000
     20 O24         4.7700   -1.6260   -0.9850 o         1 X63     -0.499700
     21 O25         5.2370   -0.3790   -2.6080 o         1 X63     -0.499700
     22 HN01       -0.2490    2.6510    0.2180 hn        1 X63      0.203000
     23 H102        1.8080   -0.9330    2.5490 hn        1 X63      0.264667
     24 H202        0.1270   -0.8480    2.7100 hn        1 X63      0.264667
     25 HN05        3.6760   -0.1210   -4.2430 hn        1 X63      0.336000
     26 H106       -1.5190    0.5640    3.4140 hn        1 X63      0.208000
     27 H206       -2.0550   -0.8540    4.0700 hn        1 X63      0.208000
     28 H08         3.2160   -0.5880    0.5300 ha        1 X63      0.152000
     29 H11         0.7620    1.9010   -3.0530 ha        1 X63      0.189000
     30 H115       -2.2010    2.8120   -1.1440 ha        1 X63      0.069000
     31 H215       -4.3760   -1.3180   -1.1360 ha        1 X63      0.179000
     32 H17        -5.2520   -2.0790    1.1510 h4        1 X63      0.195500
     33 H19        -2.1180   -0.1130   -1.1840 h4        1 X63      0.195500
     34 H120        2.1400    2.2170   -4.8800 h1        1 X63      0.104333
     35 H220        1.0400    0.7630   -5.0130 h1        1 X63      0.104333
     36 H121        5.8610   -0.6140   -5.3640 ha        1 X63      0.071000
     37 H221        2.5990    0.8210   -5.9650 h1        1 X63      0.104333
     38 HO23        5.6670   -2.7730   -4.6520 ho        1 X63      0.199000
     39 H023        0.8330   -1.5010    1.3220 hn        1 X63      0.264667
     40 C14         0.9280    0.5860    1.3920 c2        1 X63      0.364000
     41 N05         2.8350    0.4550   -3.9310 nh        1 X63     -0.264000
     42 N06        -1.6340   -0.4250    3.2640 nh        1 X63     -0.326000
     43 N07         4.4790   -0.7380   -1.7430 no        1 X63      0.853400
@<TRIPOS>BOND
     1    1    7 1   
     2    1   11 1   
     3    1   22 1   
     4    2   23 1   
     5    2   24 1   
     6    2   39 1   
     7    2   40 1   
     8    3   13 1   
     9    3   14 1   
    10    4   14 1   
    11    4   15 1   
    12    5    6 1   
    13    5   10 1   
    14    5   28 1   
    15    6    7 1   
    16    6   40 1   
    17    7    8 1   
    18    8    9 1   
    19    8   29 1   
    20    9   10 1   
    21    9   41 1   
    22   10   43 1   
    23   11   30 1   
    24   12   13 1   
    25   12   15 1   
    26   12   31 1   
    27   13   32 1   
    28   14   42 1   
    29   15   33 1   
    30   16   34 1   
    31   16   35 1   
    32   16   37 1   
    33   16   41 1   
    34   17   19 1   
    35   17   36 1   
    36   18   40 1   
    37   19   38 1   
    38   20   43 2   
    39   21   43 2   
    40   25   41 1   
    41   26   42 1   
    42   27   42 1   
@<TRIPOS>SUBSTRUCTURE
     1 X63         1 TEMP              0 ****  ****    0 ROOT
