@<TRIPOS>MOLECULE
X63
   42    43     1     0     0
SMALL
bcc


@<TRIPOS>ATOM
      1 N01        -1.2080   -0.4030   -0.1450 nh        1 X63     -0.754600
      2 N02         0.2530   -4.1840   -0.6430 n         1 X63     -0.666000
      3 N03        -5.4460    1.3640   -1.0480 nb        1 X63     -0.753500
      4 N04        -5.3620    0.1350    1.0930 nb        1 X63     -0.753500
      5 N05         3.2180    1.5160    0.2920 nh        1 X63     -0.747600
      6 N06        -7.4400    0.7870    0.1250 nh        1 X63     -0.937500
      7 N07         4.3930   -1.2350    0.3530 no        1 X63      0.335200
      8 C08         2.0800   -2.0310    0.2050 ca        1 X63      0.041000
      9 C09         0.7130   -1.8870    0.0890 ca        1 X63     -0.279600
     10 C10         0.1440   -0.5680    0.0180 ca        1 X63      0.318600
     11 C11         1.0200    0.5340    0.0620 ca        1 X63     -0.346000
     12 C12         2.4270    0.4040    0.1860 ca        1 X63      0.332600
     13 C13         2.9600   -0.9310    0.2460 ca        1 X63     -0.335200
     14 C15        -1.8360    0.8930   -0.0410 c3        1 X63      0.283100
     15 C16        -3.3230    0.8140   -0.0230 ca        1 X63     -0.423900
     16 C17        -4.1080    1.3790   -1.0480 ca        1 X63      0.490200
     17 C18        -6.0570    0.7480    0.0470 ca        1 X63      0.886900
     18 C19        -4.0270    0.1880    1.0290 ca        1 X63      0.490200
     19 C20         2.6960    2.8480    0.1340 c3        1 X63      0.207800
     20 C21         3.7760    3.9290    0.2830 c3        1 X63      0.117400
     21 O22        -1.2560   -3.1390    0.6810 o         1 X63     -0.643100
     22 O23         4.6540    3.8000   -0.8210 oh        1 X63     -0.600800
     23 O24         4.7360   -2.3920    0.3660 o         1 X63     -0.239500
     24 O25         5.2180   -0.3570    0.4210 o         1 X63     -0.239500
     25 HN01       -1.7980   -1.2000   -0.0130 hn        1 X63      0.465800
     26 H102        1.1050   -4.1800   -1.1420 hn        1 X63      0.316500
     27 H202       -0.3020   -5.0040   -0.6420 hn        1 X63      0.316500
     28 HN05        4.2100    1.4260    0.1960 hn        1 X63      0.475800
     29 H106       -7.9490    1.0520   -0.6840 hn        1 X63      0.441300
     30 H206       -7.8900    0.2080    0.7920 hn        1 X63      0.441300
     31 H08         2.5170   -3.0470    0.2860 ha        1 X63      0.167000
     32 H11         0.5930    1.5470   -0.0060 ha        1 X63      0.144000
     33 H115       -1.4890    1.4140    0.9020 h1        1 X63      0.048200
     34 H215       -1.5020    1.5220   -0.9180 h1        1 X63      0.048200
     35 H17        -3.6390    1.8710   -1.9210 h4        1 X63      0.032600
     36 H19        -3.4890   -0.3030    1.8630 h4        1 X63      0.032600
     37 H120        2.2150    2.9630   -0.8810 h1        1 X63      0.054200
     38 H220        1.9130    3.0360    0.9250 h1        1 X63      0.054200
     39 H121        3.2770    4.9350    0.2590 h1        1 X63      0.039700
     40 H221        4.3350    3.8170    1.2500 h1        1 X63      0.039700
     41 HO23        5.4060    4.3800   -0.6520 ho        1 X63      0.411000
     42 C14        -0.1600   -3.0910    0.0750 c         1 X63      0.690700
@<TRIPOS>BOND
     1    1   10 1   
     2    1   14 1   
     3    1   25 1   
     4    2   26 1   
     5    2   27 1   
     6    2   42 1   
     7    3   16 ar  
     8    3   17 ar  
     9    4   17 ar  
    10    4   18 ar  
    11    5   12 1   
    12    5   19 1   
    13    5   28 1   
    14    6   17 1   
    15    6   29 1   
    16    6   30 1   
    17    7   13 1   
    18    7   23 1   
    19    7   24 1   
    20    8    9 ar  
    21    8   13 ar  
    22    8   31 1   
    23    9   10 ar  
    24    9   42 1   
    25   10   11 ar  
    26   11   12 ar  
    27   11   32 1   
    28   12   13 ar  
    29   14   15 1   
    30   14   33 1   
    31   14   34 1   
    32   15   16 ar  
    33   15   18 ar  
    34   16   35 1   
    35   18   36 1   
    36   19   20 1   
    37   19   37 1   
    38   19   38 1   
    39   20   22 1   
    40   20   39 1   
    41   20   40 1   
    42   21   42 2   
    43   22   41 1   
@<TRIPOS>SUBSTRUCTURE
     1 X63         1 TEMP              0 ****  ****    0 ROOT
