@<TRIPOS>MOLECULE
X63
   42    42     1     0     0
SMALL
bcc


@<TRIPOS>ATOM
      1 N01        -0.1510   -0.5620   -0.6160 n3        1 X63     -0.276000
      2 N02         2.8190   -0.2650    2.4180 n         1 X63     -0.385000
      3 N03        -4.3800   -0.6860    2.1720 n2        1 X63     -0.202000
      4 N04        -4.7580    0.4890    0.0270 n2        1 X63     -0.191000
      5 N05         3.5660    0.2980   -3.5720 n3        1 X63     -0.265000
      6 N06        -6.4180    0.5180    1.6940 n3        1 X63     -0.322000
      7 N07         5.4810   -0.3750   -1.4040 no        1 X63      0.591000
      8 C08         3.5290   -0.9540   -0.0970 c1        1 X63     -0.225000
      9 C09         2.1160   -1.1320    0.1960 c3        1 X63     -0.090000
     10 C10         1.1810   -0.5490   -0.8550 c2        1 X63      0.187000
     11 C11         1.7200   -0.1140   -2.0680 c2        1 X63     -0.413000
     12 C12         3.1210   -0.0990   -2.3600 c2        1 X63      0.295000
     13 C13         4.0120   -0.4910   -1.2750 c2        1 X63     -0.280000
     14 C15        -1.1290    0.0160   -1.5170 c3        1 X63      0.105000
     15 C16        -2.4230    0.1510   -0.9080 c1        1 X63     -0.270000
     16 C17        -3.3530   -0.2400    2.7840 c2        1 X63     -0.038000
     17 C18        -5.1430    0.1250    1.2530 c2        1 X63      0.187000
     18 C19        -3.5070    0.2790   -0.4020 c1        1 X63     -0.007000
     19 C20         2.6980    0.7190   -4.6440 c3        1 X63     -0.042000
     20 C21         3.4700    1.2440   -5.8630 c3        1 X63     -0.034000
     21 O22         0.6160   -0.7020    2.0640 o         1 X63     -0.445000
     22 O23         4.1660    0.1450   -6.4220 oh        1 X63     -0.326000
     23 O24         6.1550   -0.1880   -0.4310 o         1 X63     -0.388000
     24 O25         5.9970   -0.4590   -2.4990 o         1 X63     -0.388000
     25 HN01       -0.4690   -0.8240    0.3000 hn        1 X63      0.277000
     26 H102        2.6450   -0.0400    3.3650 hn        1 X63      0.250000
     27 H202        3.7570   -0.3300    2.0840 hn        1 X63      0.250000
     28 HN05        4.5350    0.1800   -3.8110 hn        1 X63      0.286000
     29 H106       -6.8370   -0.0650    2.3830 hn        1 X63      0.219500
     30 H206       -7.0420    0.8390    0.9860 hn        1 X63      0.219500
     31 H08         1.9450   -2.2590    0.1990 hc        1 X63      0.179000
     32 H11         1.0300    0.2290   -2.8550 ha        1 X63      0.139000
     33 H115       -0.7720    1.0370   -1.8580 h1        1 X63      0.104500
     34 H215       -1.2070   -0.6460   -2.4330 h1        1 X63      0.104500
     35 H17        -2.8090   -0.9500    3.4390 h4        1 X63      0.139000
     36 H19        -2.9350    0.7840    2.7310 h4        1 X63      0.139000
     37 H120        2.0570   -0.1500   -4.9730 h1        1 X63      0.104000
     38 H220        2.0260    1.5480   -4.2810 h1        1 X63      0.104000
     39 H121        2.7280    1.6450   -6.6050 h1        1 X63      0.081000
     40 H221        4.1840    2.0610   -5.5740 h1        1 X63      0.081000
     41 HO23        4.7620    0.4990   -7.0930 ho        1 X63      0.213000
     42 C14         1.7930   -0.6720    1.6260 c2        1 X63      0.333000
@<TRIPOS>BOND
     1    1   10 1   
     2    1   14 1   
     3    1   25 1   
     4    2   26 1   
     5    2   27 1   
     6    2   42 1   
     7    3   16 1   
     8    3   17 1   
     9    4   17 1   
    10    4   18 1   
    11    5   12 1   
    12    5   19 1   
    13    5   28 1   
    14    6   17 1   
    15    6   29 1   
    16    6   30 1   
    17    7   13 1   
    18    7   23 1   
    19    7   24 1   
    20    8    9 1   
    21    8   13 1   
    22    9   10 1   
    23    9   31 1   
    24    9   42 1   
    25   10   11 1   
    26   11   12 1   
    27   11   32 1   
    28   12   13 1   
    29   14   15 1   
    30   14   33 1   
    31   14   34 1   
    32   15   18 1   
    33   16   35 1   
    34   16   36 1   
    35   19   20 1   
    36   19   37 1   
    37   19   38 1   
    38   20   22 1   
    39   20   39 1   
    40   20   40 1   
    41   21   42 1   
    42   22   41 1   
@<TRIPOS>SUBSTRUCTURE
     1 X63         1 TEMP              0 ****  ****    0 ROOT
