@<TRIPOS>MOLECULE
X64
   42    44     1     0     0
SMALL
bcc


@<TRIPOS>ATOM
      1 N01         0.2760   -0.6510   -0.4410 nc        1 X64     -0.710000
      2 N02        -1.7540   -0.3630    0.8780 nu        1 X64     -0.683300
      3 N03         2.5530   -0.7140   -1.2680 nv        1 X64     -0.910500
      4 N04        -6.4210    2.5140   -2.5210 nz        1 X64     -0.779500
      5 N05         3.9090   -2.2660    3.4310 no        1 X64      0.313200
      6 C06         2.0230   -0.1200    1.0760 cd        1 X64     -0.393000
      7 C07         1.6680   -0.5200   -0.2470 cc        1 X64      0.702200
      8 C08        -0.3580   -0.3270    0.7040 cd        1 X64      0.587300
      9 C09        -2.6780   -0.0900   -0.0950 ca        1 X64      0.320600
     10 C10         3.3850   -0.0300    1.5620 c         1 X64      0.647300
     11 C11         3.5460    0.1960    3.0280 ca        1 X64     -0.108600
     12 C12         3.8270   -0.8600    3.9170 ca        1 X64     -0.145200
     13 C13         4.0420   -0.6060    5.2820 ca        1 X64     -0.067000
     14 C14         3.9730    0.7030    5.7550 ca        1 X64     -0.120000
     15 C15         3.6980    1.7530    4.8810 ca        1 X64     -0.088000
     16 C16         3.4880    1.5010    3.5250 ca        1 X64     -0.117000
     17 C17        -4.0460   -0.4730    0.1180 ca        1 X64     -0.213000
     18 C18        -5.0080   -0.1820   -0.8130 ca        1 X64      0.051000
     19 C19        -4.7150    0.5150   -2.0170 ca        1 X64     -0.655500
     20 C20        -3.3590    0.9040   -2.2070 ca        1 X64      0.051000
     21 C21        -2.3750    0.6270   -1.2940 ca        1 X64     -0.213000
     22 O22         4.3780   -0.1120    0.8290 o         1 X64     -0.517100
     23 O23        -6.9840    0.0560   -2.9700 o         1 X64     -0.579800
     24 O24        -5.3390    1.1120   -4.3690 o         1 X64     -0.579800
     25 O25         4.2790   -3.1150    4.1940 o         1 X64     -0.198000
     26 O26         3.5860   -2.5180    2.3010 o         1 X64     -0.198000
     27 S27         0.6580    0.1330    2.0110 ss        1 X64      0.020700
     28 S28        -5.8010    0.7480   -3.1230 sy        1 X64      1.517200
     29 HN02       -2.0580   -0.9060    1.6650 hn        1 X64      0.468800
     30 H103        2.2530   -1.1900   -2.0860 hn        1 X64      0.458300
     31 H203        3.5210   -0.7620   -1.0240 hn        1 X64      0.458300
     32 H104       -5.9210    2.8310   -1.6990 hn        1 X64      0.445800
     33 H204       -6.2880    3.1990   -3.2590 hn        1 X64      0.445800
     34 H13         4.2740   -1.4380    5.9710 ha        1 X64      0.182000
     35 H14         4.1480    0.9030    6.8250 ha        1 X64      0.160000
     36 H15         3.6560    2.7880    5.2570 ha        1 X64      0.155000
     37 H16         3.2960    2.3370    2.8330 ha        1 X64      0.155000
     38 H17        -4.3260   -1.0260    1.0310 ha        1 X64      0.179000
     39 H18        -6.0480   -0.5190   -0.6390 ha        1 X64      0.165000
     40 H20        -3.0910    1.4350   -3.1420 ha        1 X64      0.165000
     41 H21        -1.3420    0.9550   -1.5020 ha        1 X64      0.179000
     42 H043       -7.4110    2.4780   -2.2990 hn        1 X64      0.445800
@<TRIPOS>BOND
     1    1    7 1   
     2    1    8 2   
     3    2    8 1   
     4    2    9 1   
     5    2   29 1   
     6    3    7 1   
     7    3   30 1   
     8    3   31 1   
     9    4   28 1   
    10    4   32 1   
    11    4   33 1   
    12    4   42 1   
    13    5   12 1   
    14    5   25 1   
    15    5   26 1   
    16    6    7 2   
    17    6   10 1   
    18    6   27 1   
    19    8   27 1   
    20    9   17 ar  
    21    9   21 ar  
    22   10   11 1   
    23   10   22 2   
    24   11   12 ar  
    25   11   16 ar  
    26   12   13 ar  
    27   13   14 ar  
    28   13   34 1   
    29   14   15 ar  
    30   14   35 1   
    31   15   16 ar  
    32   15   36 1   
    33   16   37 1   
    34   17   18 ar  
    35   17   38 1   
    36   18   19 ar  
    37   18   39 1   
    38   19   20 ar  
    39   19   28 1   
    40   20   21 ar  
    41   20   40 1   
    42   21   41 1   
    43   23   28 2   
    44   24   28 2   
@<TRIPOS>SUBSTRUCTURE
     1 X64         1 TEMP              0 ****  ****    0 ROOT
