@<TRIPOS>MOLECULE
X64
   41    43     1     0     0
SMALL
bcc


@<TRIPOS>ATOM
      1 N01         0.1560   -0.9870   -0.5550 nc        1 X64     -0.742000
      2 N02         1.0070    0.8400    0.8240 nh        1 X64     -0.710300
      3 N03        -1.2170   -2.6820   -1.6040 nh        1 X64     -0.921500
      4 N04         7.3860    0.0620    1.6220 n3        1 X64     -1.027700
      5 N05        -5.5600    0.3410   -1.8780 no        1 X64      0.315200
      6 C06        -2.1980   -0.9200   -0.1840 cd        1 X64     -0.411000
      7 C07        -1.1030   -1.5700   -0.8230 cc        1 X64      0.727200
      8 C08        -0.0040    0.0520    0.2860 cd        1 X64      0.696300
      9 C09         2.3790    0.6280    0.5930 ca        1 X64      0.203600
     10 C10        -3.5800   -1.2650   -0.3680 c         1 X64      0.647300
     11 C11        -4.5720   -0.3870    0.3240 ca        1 X64     -0.091600
     12 C12        -5.5380    0.3470   -0.3870 ca        1 X64     -0.135200
     13 C13        -6.5040    1.1080    0.2920 ca        1 X64     -0.076000
     14 C14        -6.4940    1.1420    1.6840 ca        1 X64     -0.127000
     15 C15        -5.5360    0.4240    2.3980 ca        1 X64     -0.095000
     16 C16        -4.5820   -0.3360    1.7220 ca        1 X64     -0.119000
     17 C17         3.2320    1.7520    0.4640 ca        1 X64     -0.181500
     18 C18         4.6010    1.5760    0.3280 ca        1 X64      0.005500
     19 C19         5.1750    0.2990    0.3130 ca        1 X64     -0.409500
     20 C20         4.3250   -0.8060    0.4310 ca        1 X64      0.005500
     21 C21         2.9520   -0.6620    0.5750 ca        1 X64     -0.181500
     22 O22        -3.9770   -2.2350   -1.0330 o         1 X64     -0.554100
     23 O23         7.3490    1.2470   -0.5300 o         1 X64     -0.658800
     24 O24         7.0690   -1.1540   -0.4880 o         1 X64     -0.658800
     25 O25        -6.5940    0.6060   -2.4320 o         1 X64     -0.198500
     26 O26        -4.5520    0.1050   -2.4830 o         1 X64     -0.198500
     27 S27        -1.6500    0.3620    0.7690 ss        1 X64     -0.124300
     28 S28         6.8380    0.1000    0.1160 sy        1 X64      1.531200
     29 HN02        0.7460    1.7980    0.9490 hn        1 X64      0.439800
     30 H103       -0.4420   -2.9860   -2.1420 hn        1 X64      0.456800
     31 H203       -2.1350   -2.9580   -1.8780 hn        1 X64      0.456800
     32 H104        7.6810    0.8650    2.1170 hn        1 X64      0.446800
     33 H204        7.4920   -0.7700    2.1440 hn        1 X64      0.446800
     34 H13        -7.2680    1.6670   -0.2760 ha        1 X64      0.172000
     35 H14        -7.2520    1.7370    2.2180 ha        1 X64      0.150000
     36 H15        -5.5340    0.4500    3.4990 ha        1 X64      0.147000
     37 H16        -3.8330   -0.9140    2.2880 ha        1 X64      0.158000
     38 H17         2.8200    2.7730    0.4650 ha        1 X64      0.151500
     39 H18         5.2520    2.4600    0.2040 ha        1 X64      0.156000
     40 H20         4.7580   -1.8230    0.3930 ha        1 X64      0.156000
     41 H21         2.3260   -1.5620    0.6720 ha        1 X64      0.151500
@<TRIPOS>BOND
     1    1    7 1   
     2    1    8 2   
     3    2    8 1   
     4    2    9 1   
     5    2   29 1   
     6    3    7 1   
     7    3   30 1   
     8    3   31 1   
     9    4   28 1   
    10    4   32 1   
    11    4   33 1   
    12    5   12 1   
    13    5   25 1   
    14    5   26 1   
    15    6    7 2   
    16    6   10 1   
    17    6   27 1   
    18    8   27 1   
    19    9   17 ar  
    20    9   21 ar  
    21   10   11 1   
    22   10   22 2   
    23   11   12 ar  
    24   11   16 ar  
    25   12   13 ar  
    26   13   14 ar  
    27   13   34 1   
    28   14   15 ar  
    29   14   35 1   
    30   15   16 ar  
    31   15   36 1   
    32   16   37 1   
    33   17   18 ar  
    34   17   38 1   
    35   18   19 ar  
    36   18   39 1   
    37   19   20 ar  
    38   19   28 1   
    39   20   21 ar  
    40   20   40 1   
    41   21   41 1   
    42   23   28 2   
    43   24   28 2   
@<TRIPOS>SUBSTRUCTURE
     1 X64         1 TEMP              0 ****  ****    0 ROOT
