@<TRIPOS>MOLECULE
X64
   42    44     1     0     0
SMALL
bcc


@<TRIPOS>ATOM
      1 N01         0.2770   -0.6510   -0.4450 nc        1 X64     -0.709000
      2 N02        -1.7550   -0.3700    0.8720 nh        1 X64     -0.683300
      3 N03         2.5560   -0.7090   -1.2680 nh        1 X64     -0.910500
      4 N04        -6.4150    2.5310   -2.5140 n4        1 X64     -0.779500
      5 N05         3.9080   -2.2760    3.4290 no        1 X64      0.313200
      6 C06         2.0220   -0.1250    1.0770 cd        1 X64     -0.393000
      7 C07         1.6690   -0.5190   -0.2480 cc        1 X64      0.701200
      8 C08        -0.3580   -0.3320    0.7010 cd        1 X64      0.587300
      9 C09        -2.6770   -0.0900   -0.1010 ca        1 X64      0.320600
     10 C10         3.3830   -0.0360    1.5660 c         1 X64      0.647300
     11 C11         3.5410    0.1860    3.0340 ca        1 X64     -0.108600
     12 C12         3.8230   -0.8720    3.9190 ca        1 X64     -0.145200
     13 C13         4.0350   -0.6230    5.2850 ca        1 X64     -0.067000
     14 C14         3.9630    0.6850    5.7630 ca        1 X64     -0.120000
     15 C15         3.6870    1.7370    4.8910 ca        1 X64     -0.088000
     16 C16         3.4800    1.4890    3.5340 ca        1 X64     -0.117000
     17 C17        -4.0450   -0.4750    0.1060 ca        1 X64     -0.213000
     18 C18        -5.0050   -0.1770   -0.8250 ca        1 X64      0.051000
     19 C19        -4.7090    0.5290   -2.0230 ca        1 X64     -0.655500
     20 C20        -3.3540    0.9190   -2.2070 ca        1 X64      0.051000
     21 C21        -2.3720    0.6360   -1.2940 ca        1 X64     -0.213000
     22 O22         4.3780   -0.1150    0.8350 o         1 X64     -0.517100
     23 O23        -6.9760    0.0760   -2.9840 o         1 X64     -0.579800
     24 O24        -5.3280    1.1440   -4.3720 o         1 X64     -0.579800
     25 O25         4.2800   -3.1280    4.1890 o         1 X64     -0.198000
     26 O26         3.5840   -2.5260    2.2980 o         1 X64     -0.198000
     27 S27         0.6550    0.1230    2.0110 ss        1 X64      0.021700
     28 S28        -5.7930    0.7700   -3.1290 sy        1 X64      1.517200
     29 HN02       -2.0600   -0.9190    1.6540 hn        1 X64      0.468800
     30 H103        3.5240   -0.7580   -1.0220 hn        1 X64      0.458300
     31 H203        2.2580   -1.1810   -2.0890 hn        1 X64      0.458300
     32 H104       -7.4060    2.4930   -2.2950 hn        1 X64      0.445800
     33 H204       -5.9180    2.8420   -1.6890 hn        1 X64      0.445800
     34 H13         4.2680   -1.4560    5.9720 ha        1 X64      0.182000
     35 H14         4.1360    0.8820    6.8330 ha        1 X64      0.160000
     36 H15         3.6440    2.7710    5.2710 ha        1 X64      0.155000
     37 H16         3.2880    2.3260    2.8450 ha        1 X64      0.155000
     38 H17        -4.3270   -1.0350    1.0140 ha        1 X64      0.179000
     39 H18        -6.0450   -0.5160   -0.6550 ha        1 X64      0.165000
     40 H20        -3.0830    1.4580   -3.1370 ha        1 X64      0.165000
     41 H21        -1.3380    0.9650   -1.4980 ha        1 X64      0.179000
     42 H043       -6.2810    3.2220   -3.2470 hn        1 X64      0.445800
@<TRIPOS>BOND
     1    1    7 1   
     2    1    8 2   
     3    2    8 1   
     4    2    9 1   
     5    2   29 1   
     6    3    7 1   
     7    3   30 1   
     8    3   31 1   
     9    4   28 1   
    10    4   32 1   
    11    4   33 1   
    12    4   42 1   
    13    5   12 1   
    14    5   25 1   
    15    5   26 1   
    16    6    7 2   
    17    6   10 1   
    18    6   27 1   
    19    8   27 1   
    20    9   17 ar  
    21    9   21 ar  
    22   10   11 1   
    23   10   22 2   
    24   11   12 ar  
    25   11   16 ar  
    26   12   13 ar  
    27   13   14 ar  
    28   13   34 1   
    29   14   15 ar  
    30   14   35 1   
    31   15   16 ar  
    32   15   36 1   
    33   16   37 1   
    34   17   18 ar  
    35   17   38 1   
    36   18   19 ar  
    37   18   39 1   
    38   19   20 ar  
    39   19   28 1   
    40   20   21 ar  
    41   20   40 1   
    42   21   41 1   
    43   23   28 2   
    44   24   28 2   
@<TRIPOS>SUBSTRUCTURE
     1 X64         1 TEMP              0 ****  ****    0 ROOT
