@<TRIPOS>MOLECULE
X64
   41    43     1     0     0
SMALL
bcc


@<TRIPOS>ATOM
      1 N01         0.1940   -0.1690   -0.3800 nc        1 X64     -0.742000
      2 N02        -1.7360    0.4510    0.9820 nh        1 X64     -0.710300
      3 N03         2.4240   -0.5890   -1.2210 nh        1 X64     -0.921500
      4 N04        -6.6150    2.1070   -2.9410 n3        1 X64     -1.027700
      5 N05         4.3080   -2.4580    3.3660 no        1 X64      0.315200
      6 C06         2.0140   -0.0850    1.1580 cd        1 X64     -0.411000
      7 C07         1.5870   -0.3050   -0.1830 cc        1 X64      0.727200
      8 C08        -0.3880    0.1730    0.7850 cd        1 X64      0.696300
      9 C09        -2.6980    0.4570   -0.0460 ca        1 X64      0.203600
     10 C10         3.3610   -0.2510    1.6300 c         1 X64      0.647300
     11 C11         3.5670   -0.0630    3.0980 ca        1 X64     -0.091600
     12 C12         4.0530   -1.0970    3.9180 ca        1 X64     -0.135200
     13 C13         4.3080   -0.8720    5.2820 ca        1 X64     -0.076000
     14 C14         4.0630    0.3870    5.8250 ca        1 X64     -0.127000
     15 C15         3.5740    1.4160    5.0210 ca        1 X64     -0.095000
     16 C16         3.3290    1.1920    3.6670 ca        1 X64     -0.119000
     17 C17        -4.0020   -0.0230    0.2340 ca        1 X64     -0.181500
     18 C18        -4.9950    0.0560   -0.7300 ca        1 X64      0.005500
     19 C19        -4.7450    0.6030   -1.9930 ca        1 X64     -0.409500
     20 C20        -3.4530    1.0660   -2.2670 ca        1 X64      0.005500
     21 C21        -2.4390    1.0070   -1.3200 ca        1 X64     -0.181500
     22 O22         4.3310   -0.5130    0.9010 o         1 X64     -0.554100
     23 O23        -6.9130   -0.3300   -2.8670 o         1 X64     -0.658800
     24 O24        -5.3470    0.6310   -4.4390 o         1 X64     -0.658800
     25 O25         5.0880   -3.1690    3.9420 o         1 X64     -0.198500
     26 O26         3.7140   -2.8200    2.3880 o         1 X64     -0.198500
     27 S27         0.7010    0.3310    2.1360 ss        1 X64     -0.124300
     28 S28        -5.9560    0.6640   -3.1660 sy        1 X64      1.531200
     29 HN02       -2.0800    0.1590    1.8760 hn        1 X64      0.439800
     30 H103        2.0480   -0.8850   -2.0890 hn        1 X64      0.456800
     31 H203        3.3690   -0.8190   -0.9990 hn        1 X64      0.456800
     32 H104       -7.3820    2.2710   -2.3390 hn        1 X64      0.446800
     33 H204       -6.3170    2.9240   -3.4100 hn        1 X64      0.446800
     34 H13         4.7050   -1.6860    5.9130 ha        1 X64      0.172000
     35 H14         4.2630    0.5650    6.8930 ha        1 X64      0.150000
     36 H15         3.3850    2.4110    5.4540 ha        1 X64      0.147000
     37 H16         2.9550    2.0100    3.0300 ha        1 X64      0.158000
     38 H17        -4.2380   -0.4670    1.2140 ha        1 X64      0.151500
     39 H18        -6.0020   -0.3440   -0.5060 ha        1 X64      0.156000
     40 H20        -3.2300    1.4760   -3.2690 ha        1 X64      0.156000
     41 H21        -1.4400    1.3910   -1.5800 ha        1 X64      0.151500
@<TRIPOS>BOND
     1    1    7 1   
     2    1    8 2   
     3    2    8 1   
     4    2    9 1   
     5    2   29 1   
     6    3    7 1   
     7    3   30 1   
     8    3   31 1   
     9    4   28 1   
    10    4   32 1   
    11    4   33 1   
    12    5   12 1   
    13    5   25 1   
    14    5   26 1   
    15    6    7 2   
    16    6   10 1   
    17    6   27 1   
    18    8   27 1   
    19    9   17 ar  
    20    9   21 ar  
    21   10   11 1   
    22   10   22 2   
    23   11   12 ar  
    24   11   16 ar  
    25   12   13 ar  
    26   13   14 ar  
    27   13   34 1   
    28   14   15 ar  
    29   14   35 1   
    30   15   16 ar  
    31   15   36 1   
    32   16   37 1   
    33   17   18 ar  
    34   17   38 1   
    35   18   19 ar  
    36   18   39 1   
    37   19   20 ar  
    38   19   28 1   
    39   20   21 ar  
    40   20   40 1   
    41   21   41 1   
    42   23   28 2   
    43   24   28 2   
@<TRIPOS>SUBSTRUCTURE
     1 X64         1 TEMP              0 ****  ****    0 ROOT
