@<TRIPOS>MOLECULE
X65
   40    41     1     0     0
SMALL
bcc


@<TRIPOS>ATOM
      1 C1         -1.2890    0.7670    0.8340 c2        1 X65     -0.222000
      2 C2         -0.1610    0.8870    0.0740 c2        1 X65      0.060000
      3 C3          1.1330    0.3270    0.5430 c3        1 X65     -0.200000
      4 C4          1.1650   -0.1090    1.9310 c1        1 X65     -0.104000
      5 C5         -0.0190   -0.2080    2.6820 c2        1 X65     -0.275000
      6 C6         -1.2480    0.2120    2.1550 c2        1 X65      0.186000
      7 N7         -2.5190    0.1300    2.8960 ny        1 X65      0.057000
      8 N8          2.3680    1.2240    0.1960 no        1 X65      0.579000
      9 O9          3.4280    0.6960    0.2040 o         1 X65     -0.262500
     10 O10         2.1370    2.3640   -0.0520 o         1 X65     -0.262500
     11 C11         0.1720   -0.7090    4.0500 c2        1 X65      0.330000
     12 N12         1.5870   -1.0380    4.4150 nz        1 X65     -0.127000
     13 O13        -0.6860   -0.8770    4.9130 o         1 X65     -0.220000
     14 C14        -3.4490   -0.7760    2.2480 c2        1 X65     -0.424000
     15 C15        -6.7330    0.2800   -0.2090 c2        1 X65     -1.066000
     16 C16        -5.9000    1.2880    0.3520 c2        1 X65      0.161000
     17 C17        -4.8340    0.9700    1.1540 c2        1 X65     -0.335000
     18 C18        -4.5200   -0.3790    1.4860 c2        1 X65      0.136000
     19 C19        -5.4280   -1.4650    0.9820 c3        1 X65     -0.147000
     20 C20        -6.5180   -1.0430    0.1250 c1        1 X65     -0.182000
     21 O22        -8.8740    1.4620   -0.7830 o         1 X65     -0.872500
     22 O23        -7.5740    0.5650   -2.5680 o         1 X65     -0.872500
     23 N24        -8.8670   -1.0510   -1.1300 nz        1 X65     -0.529000
     24 H1         -2.2630    1.1130    0.4290 ha        1 X65      0.209000
     25 H2         -0.1890    1.3840   -0.9180 ha        1 X65      0.219000
     26 H4          1.3160   -0.6460   -0.0580 h1        1 X65      0.263000
     27 HN7        -2.9290    1.0790    2.9430 hn        1 X65      0.277500
     28 H112        1.6660   -2.0340    4.6550 hn        1 X65      0.293000
     29 H212        2.2030   -0.8180    3.5930 hn        1 X65      0.293000
     30 H114       -2.3600   -0.2060    3.8610 hn        1 X65      0.277500
     31 H214       -3.2370   -1.8360    2.4630 hx        1 X65      0.194000
     32 H16        -4.2330    1.7970    1.5600 ha        1 X65      0.116000
     33 H17        -6.1220    2.3520    0.1400 ha        1 X65      0.157000
     34 H19        -4.8230   -2.2350    0.4160 hc        1 X65      0.169500
     35 H20        -5.8790   -2.0070    1.8680 hc        1 X65      0.169500
     36 H124       -8.2640   -1.7320   -0.6190 hn        1 X65      0.267333
     37 H224       -9.7490   -0.9540   -0.6350 hn        1 X65      0.267333
     38 H123        1.8780   -0.4830    5.2290 hn        1 X65      0.293000
     39 H243       -9.0620   -1.4300   -2.0540 hn        1 X65      0.267333
     40 S21        -7.9380    0.5530   -1.2360 s6        1 X65      2.860000
@<TRIPOS>BOND
     1    1    2 1   
     2    1    6 1   
     3    1   24 1   
     4    2    3 1   
     5    2   25 1   
     6    3    4 1   
     7    3    8 1   
     8    3   26 1   
     9    4    5 1   
    10    5    6 1   
    11    5   11 1   
    12    6    7 1   
    13    7   14 1   
    14    7   27 1   
    15    7   30 1   
    16    8    9 1   
    17    8   10 1   
    18   11   12 1   
    19   11   13 1   
    20   12   28 1   
    21   12   29 1   
    22   12   38 1   
    23   14   18 1   
    24   14   31 1   
    25   15   16 1   
    26   15   20 1   
    27   15   40 1   
    28   16   17 1   
    29   16   33 1   
    30   17   18 1   
    31   17   32 1   
    32   18   19 1   
    33   19   20 1   
    34   19   34 1   
    35   19   35 1   
    36   21   40 1   
    37   22   40 1   
    38   23   36 1   
    39   23   37 1   
    40   23   39 1   
    41   23   40 1   
@<TRIPOS>SUBSTRUCTURE
     1 X65         1 TEMP              0 ****  ****    0 ROOT
