@<TRIPOS>MOLECULE
X65
   38    39     1     0     0
SMALL
bcc


@<TRIPOS>ATOM
      1 C1         -2.8550    1.4880    0.4460 ca        1 X65     -0.237000
      2 C2         -4.2190    1.6480    0.3180 ca        1 X65      0.002000
      3 C3         -5.0110    0.5780   -0.1400 ca        1 X65     -0.257200
      4 C4         -4.4160   -0.6490   -0.4660 ca        1 X65      0.008000
      5 C5         -3.0430   -0.8230   -0.3340 ca        1 X65     -0.241600
      6 C6         -2.2170    0.2520    0.1260 ca        1 X65      0.280600
      7 N7         -0.8680    0.0780    0.3070 nh        1 X65     -0.747600
      8 N8         -6.4720    0.7490   -0.2790 no        1 X65      0.325200
      9 O9         -7.1370   -0.1870   -0.6430 o         1 X65     -0.217500
     10 O10        -6.9630    1.8160   -0.0230 o         1 X65     -0.217500
     11 C11        -2.4330   -2.1270   -0.7210 c         1 X65      0.683700
     12 N12        -3.0770   -3.2780   -0.3530 n         1 X65     -0.661000
     13 O13        -1.3560   -2.1970   -1.3580 o         1 X65     -0.637100
     14 C14         0.0110    1.1940    0.5520 c3        1 X65      0.245100
     15 C15         4.2140    0.2760    0.2620 ca        1 X65     -0.373500
     16 C16         3.3290   -0.1300   -0.7440 ca        1 X65     -0.016000
     17 C17         1.9680    0.1510   -0.6580 ca        1 X65     -0.146000
     18 C18         1.4670    0.8400    0.4520 ca        1 X65     -0.047300
     19 C19         2.3400    1.2380    1.4710 ca        1 X65     -0.146000
     20 C20         3.7000    0.9580    1.3700 ca        1 X65     -0.016000
     21 O22         6.3940   -0.0900    1.4700 o         1 X65     -0.654800
     22 O23         6.0150   -1.2570   -0.6130 o         1 X65     -0.654800
     23 N24         6.4640    1.1590   -0.6460 n3        1 X65     -1.027700
     24 H1         -2.2550    2.3380    0.8050 ha        1 X65      0.149000
     25 H2         -4.6920    2.6140    0.5720 ha        1 X65      0.171000
     26 H4         -5.0510   -1.4700   -0.8480 ha        1 X65      0.169000
     27 HN7        -0.4490   -0.7540   -0.0620 hn        1 X65      0.467800
     28 H112       -3.9180   -3.2550    0.1640 hn        1 X65      0.320000
     29 H212       -2.6960   -4.1530   -0.6170 hn        1 X65      0.320000
     30 H114       -0.1950    2.0260   -0.1880 h1        1 X65      0.058700
     31 H214       -0.2110    1.5960    1.5860 h1        1 X65      0.058700
     32 H16         3.7160   -0.6980   -1.6090 ha        1 X65      0.158000
     33 H17         1.2950   -0.1750   -1.4680 ha        1 X65      0.149000
     34 H19         1.9540    1.7670    2.3550 ha        1 X65      0.149000
     35 H20         4.3830    1.2570    2.1850 ha        1 X65      0.158000
     36 H124        6.8090    1.9780   -0.2130 hn        1 X65      0.448800
     37 H224        6.5570    1.1790   -1.6300 hn        1 X65      0.448800
     38 S21         5.8670   -0.0880    0.1620 sy        1 X65      1.526200
@<TRIPOS>BOND
     1    1    2 ar  
     2    1    6 ar  
     3    1   24 1   
     4    2    3 ar  
     5    2   25 1   
     6    3    4 ar  
     7    3    8 1   
     8    4    5 ar  
     9    4   26 1   
    10    5    6 ar  
    11    5   11 1   
    12    6    7 1   
    13    7   14 1   
    14    7   27 1   
    15    8    9 1   
    16    8   10 1   
    17   11   12 1   
    18   11   13 2   
    19   12   28 1   
    20   12   29 1   
    21   14   18 1   
    22   14   30 1   
    23   14   31 1   
    24   15   16 ar  
    25   15   20 ar  
    26   15   38 1   
    27   16   17 ar  
    28   16   32 1   
    29   17   18 ar  
    30   17   33 1   
    31   18   19 ar  
    32   19   20 ar  
    33   19   34 1   
    34   20   35 1   
    35   21   38 2   
    36   22   38 2   
    37   23   36 1   
    38   23   37 1   
    39   23   38 1   
@<TRIPOS>SUBSTRUCTURE
     1 X65         1 TEMP              0 ****  ****    0 ROOT
