@<TRIPOS>MOLECULE
X65
   38    38     1     0     0
SMALL
bcc


@<TRIPOS>ATOM
      1 C1         -1.0470   -0.8240    0.7830 c2        1 X65     -0.105000
      2 C2          0.1670   -0.4370    0.0890 c2        1 X65     -0.055000
      3 C3          0.5610    0.8520   -0.0090 c2        1 X65     -0.163000
      4 C4          0.8720    0.6850    2.2900 c1        1 X65      0.271000
      5 C5         -0.0670   -0.0600    2.8950 c2        1 X65     -0.430000
      6 C6         -1.1700   -0.6490    2.1210 c2        1 X65     -0.034000
      7 N7         -2.4060   -1.0160    2.8290 n4        1 X65      0.123000
      8 N8          1.8290    1.2370   -0.6790 no        1 X65      0.557000
      9 O9          2.0510    2.4050   -0.8250 o         1 X65     -0.333000
     10 O10         2.5840    0.3760   -1.0440 o         1 X65     -0.333000
     11 C11         0.0300   -0.2980    4.3710 c2        1 X65      0.383000
     12 N12         1.2420   -0.1150    4.9730 n         1 X65     -0.406000
     13 O13        -0.9610   -0.6580    5.0460 o         1 X65     -0.399000
     14 C14        -3.4280   -1.5930    1.9960 c2        1 X65     -0.487000
     15 C15        -6.5620    0.5100    0.0750 c2        1 X65     -1.000000
     16 C16        -5.5810    1.2010    0.8090 c2        1 X65      0.159000
     17 C17        -4.5430    0.5450    1.4440 c2        1 X65     -0.374000
     18 C18        -4.4300   -0.8630    1.3950 c2        1 X65      0.128000
     19 C19        -5.4710   -1.6350    0.6360 c3        1 X65     -0.154000
     20 C20        -6.5100   -0.8680   -0.0420 c1        1 X65     -0.153000
     21 O22        -9.0070    1.1320    0.1170 o         1 X65     -0.975500
     22 O23        -7.4850    2.6200   -0.9210 o         1 X65     -0.975500
     23 N24        -7.9920    0.5020   -2.0650 n3        1 X65     -0.944000
     24 H1         -1.8490   -1.2800    0.1660 ha        1 X65      0.213000
     25 H2          0.7630   -1.2650   -0.3500 ha        1 X65      0.196000
     26 H4         -0.0330    1.7410    0.2870 h4        1 X65      0.209000
     27 HN7        -2.1540   -1.6820    3.5780 hn        1 X65      0.258500
     28 H112        1.3170   -0.2530    5.9530 hn        1 X65      0.247000
     29 H212        2.0420    0.1730    4.4670 hn        1 X65      0.247000
     30 H114       -2.7580   -0.1600    3.2860 hn        1 X65      0.258500
     31 H214       -3.3560   -2.6850    1.9040 hx        1 X65      0.168000
     32 H16        -3.8040    1.1450    1.9900 ha        1 X65      0.098000
     33 H17        -5.6380    2.3050    0.8640 ha        1 X65      0.142000
     34 H19        -4.9630   -2.2870   -0.1290 hc        1 X65      0.137500
     35 H20        -6.0010   -2.3260    1.3560 hc        1 X65      0.137500
     36 H124       -7.9460   -0.4840   -2.1410 hn        1 X65      0.239000
     37 H224       -8.0560    0.9680   -2.9320 hn        1 X65      0.239000
     38 S21        -7.8400    1.2640   -0.6620 s6        1 X65      2.910000
@<TRIPOS>BOND
     1    1    2 1   
     2    1    6 1   
     3    1   24 1   
     4    2    3 1   
     5    2   25 1   
     6    3    8 1   
     7    3   26 1   
     8    4    5 1   
     9    5    6 1   
    10    5   11 1   
    11    6    7 1   
    12    7   14 1   
    13    7   27 1   
    14    7   30 1   
    15    8    9 1   
    16    8   10 1   
    17   11   12 1   
    18   11   13 1   
    19   12   28 1   
    20   12   29 1   
    21   14   18 1   
    22   14   31 1   
    23   15   16 1   
    24   15   20 1   
    25   15   38 1   
    26   16   17 1   
    27   16   33 1   
    28   17   18 1   
    29   17   32 1   
    30   18   19 1   
    31   19   20 1   
    32   19   34 1   
    33   19   35 1   
    34   21   38 1   
    35   22   38 1   
    36   23   36 1   
    37   23   37 1   
    38   23   38 1   
@<TRIPOS>SUBSTRUCTURE
     1 X65         1 TEMP              0 ****  ****    0 ROOT
