@<TRIPOS>MOLECULE
X65
   40    41     1     0     0
SMALL
bcc


@<TRIPOS>ATOM
      1 C1          0.1420    0.5170   -0.2260 c2        1 X65     -0.227000
      2 C2          1.2710   -0.2290   -0.0420 c2        1 X65      0.063000
      3 C3          1.7260   -0.5990    1.3230 c3        1 X65     -0.202000
      4 C4          0.7930   -0.3040    2.3990 c1        1 X65     -0.102000
      5 C5         -0.3470    0.4850    2.1690 c2        1 X65     -0.267000
      6 C6         -0.7040    0.8820    0.8740 c2        1 X65      0.193000
      7 N7         -1.9390    1.6190    0.5600 n4        1 X65      0.058000
      8 N8          2.2730   -2.0630    1.4250 no        1 X65      0.580000
      9 O9          2.9660   -2.3060    2.3540 o         1 X65     -0.261000
     10 O10         1.9460   -2.8080    0.5590 o         1 X65     -0.261000
     11 C11        -1.1250    0.7950    3.3760 c2        1 X65      0.333000
     12 N12        -0.6410    0.1290    4.6290 n4        1 X65     -0.127000
     13 O13        -2.0970    1.5390    3.4720 o         1 X65     -0.221000
     14 C14        -2.8850    0.7600   -0.1320 c2        1 X65     -0.428000
     15 C15        -6.8240   -0.2230    1.0740 c2        1 X65     -1.061000
     16 C16        -6.0050    0.6040    1.8940 c2        1 X65      0.154000
     17 C17        -4.7230    0.9250    1.5340 c2        1 X65     -0.327000
     18 C18        -4.1520    0.4750    0.3080 c2        1 X65      0.141000
     19 C19        -5.0010   -0.3650   -0.6060 c3        1 X65     -0.145000
     20 C20        -6.3380   -0.6700   -0.1370 c1        1 X65     -0.187000
     21 O22        -8.3690   -1.7940    2.2930 o         1 X65     -0.875000
     22 O23        -9.2180    0.3300    1.6260 o         1 X65     -0.875000
     23 N24        -8.8640   -1.4380   -0.1550 n4        1 X65     -0.536000
     24 H1         -0.1440    0.8190   -1.2540 ha        1 X65      0.203000
     25 H2          1.8860   -0.5570   -0.9070 ha        1 X65      0.220000
     26 H4          2.6480    0.0610    1.5620 h1        1 X65      0.264000
     27 HN7        -2.3640    2.0080    1.4190 hn        1 X65      0.274000
     28 H112        0.2410   -0.3960    4.4080 hn        1 X65      0.292667
     29 H212       -1.3550   -0.5240    4.9750 hn        1 X65      0.292667
     30 H114       -1.6980    2.4050   -0.0700 hn        1 X65      0.274000
     31 H214       -2.4990    0.3860   -1.0950 hx        1 X65      0.192000
     32 H16        -4.1420    1.5660    2.2140 ha        1 X65      0.123000
     33 H17        -6.4170    0.9980    2.8430 ha        1 X65      0.152000
     34 H19        -5.1000    0.1600   -1.6050 hc        1 X65      0.169500
     35 H20        -4.4750   -1.3440   -0.8140 hc        1 X65      0.169500
     36 H124       -8.0280   -1.4540   -0.7890 hn        1 X65      0.268667
     37 H224       -9.6020   -0.8960   -0.5970 hn        1 X65      0.268667
     38 H123       -0.4620    0.8320    5.3560 hn        1 X65      0.292667
     39 H243       -9.1970   -2.3920   -0.0380 hn        1 X65      0.268667
     40 S21        -8.3130   -0.7000    1.4510 s6        1 X65      2.858000
@<TRIPOS>BOND
     1    1    2 1   
     2    1    6 1   
     3    1   24 1   
     4    2    3 1   
     5    2   25 1   
     6    3    4 1   
     7    3    8 1   
     8    3   26 1   
     9    4    5 1   
    10    5    6 1   
    11    5   11 1   
    12    6    7 1   
    13    7   14 1   
    14    7   27 1   
    15    7   30 1   
    16    8    9 1   
    17    8   10 1   
    18   11   12 1   
    19   11   13 1   
    20   12   28 1   
    21   12   29 1   
    22   12   38 1   
    23   14   18 1   
    24   14   31 1   
    25   15   16 1   
    26   15   20 1   
    27   15   40 1   
    28   16   17 1   
    29   16   33 1   
    30   17   18 1   
    31   17   32 1   
    32   18   19 1   
    33   19   20 1   
    34   19   34 1   
    35   19   35 1   
    36   21   40 1   
    37   22   40 1   
    38   23   36 1   
    39   23   37 1   
    40   23   39 1   
    41   23   40 1   
@<TRIPOS>SUBSTRUCTURE
     1 X65         1 TEMP              0 ****  ****    0 ROOT
