@<TRIPOS>MOLECULE
X66
   25    18     1     0     0
SMALL
bcc


@<TRIPOS>ATOM
      1 N1         -1.6020    0.0740   -2.7970 n1        1 X66     -0.319000
      2 C2         -1.2850   -1.0890   -2.2080 c1        1 X66      0.198000
      3 N3         -1.6530   -2.3170   -2.8180 n3        1 X66     -0.334000
      4 N4         -0.6210   -1.0910   -1.0420 n1        1 X66     -0.273000
      5 C5         -0.2740    0.0690   -0.4650 c1        1 X66      0.177500
      6 C6          0.4230    0.0670    0.7330 c1        1 X66     -0.018000
      7 C7         -0.2650    0.0980    1.9360 c1        1 X66      0.082000
      8 O8         -1.6720    0.1030    1.9410 oh        1 X66     -0.239000
      9 C9          0.4320    0.0910    3.1340 c1        1 X66     -0.146500
     10 C10         1.8170    0.0530    3.1290 c1        1 X66     -0.146500
     11 C11         2.5060    0.0220    1.9270 c1        1 X66      0.039000
     12 O12         3.9100   -0.0540    1.9220 oh        1 X66     -0.252000
     13 C13         1.8090    0.0290    0.7280 c1        1 X66     -0.142000
     14 N14        -0.5910    1.2320   -1.0540 n1        1 X66     -0.273000
     15 C15        -1.2550    1.2340   -2.2200 c1        1 X66      0.177500
     16 N16        -1.5620    2.4630   -2.8590 n2        1 X66     -0.336000
     17 H1N3       -2.2660   -2.3250   -3.4960 hn        1 X66      0.231000
     18 H2N3       -1.2780   -3.1000   -2.5310 hn        1 X66      0.231000
     19 HO8        -1.9690   -0.5410    2.4780 ho        1 X66      0.217000
     20 H9         -0.0530    0.1130    3.9810 ha        1 X66      0.145500
     21 H10         2.3080    0.0490    3.9730 ha        1 X66      0.145500
     22 HO12        4.1610   -0.9050    1.8620 ho        1 X66      0.219000
     23 H13         2.2930    0.0070   -0.1180 ha        1 X66      0.150000
     24 H116       -2.0770    2.4700   -3.6140 hn        1 X66      0.233500
     25 H216       -1.2360    3.2480   -2.5210 hn        1 X66      0.233500
@<TRIPOS>BOND
     1    1    2 1   
     2    2    3 1   
     3    3   17 1   
     4    3   18 1   
     5    4    5 1   
     6    6    7 1   
     7    7    8 1   
     8    8   19 1   
     9    9   10 1   
    10    9   20 1   
    11   10   21 1   
    12   11   12 1   
    13   11   13 1   
    14   12   22 1   
    15   13   23 1   
    16   14   15 1   
    17   16   24 1   
    18   16   25 1   
@<TRIPOS>SUBSTRUCTURE
     1 X66         1 TEMP              0 ****  ****    0 ROOT
