@<TRIPOS>MOLECULE
X66
   25    26     1     0     0
SMALL
bcc


@<TRIPOS>ATOM
      1 N1         -0.0530    0.0410   -0.0720 nb        1 X66     -0.846000
      2 C2          1.2140    0.5870    0.0740 ca        1 X66      0.920900
      3 N3          1.7630    1.2360   -1.0210 nh        1 X66     -0.942500
      4 N4          1.9580    0.5670    1.2560 nb        1 X66     -0.800500
      5 C5          1.3210   -0.0080    2.3170 cp        1 X66      0.789500
      6 C6          2.0620   -0.0250    3.6090 cp        1 X66     -0.124500
      7 C7          1.5760    0.6680    4.7320 ca        1 X66      0.128100
      8 O8          0.4200    1.4000    4.5800 oh        1 X66     -0.483100
      9 C9          2.2760    0.6260    5.9490 ca        1 X66     -0.187000
     10 C10         3.4580   -0.0950    6.0500 ca        1 X66     -0.106000
     11 C11         3.9470   -0.7730    4.9220 ca        1 X66      0.084100
     12 O12         5.1280   -1.4650    5.0870 oh        1 X66     -0.498100
     13 C13         3.2570   -0.7400    3.7040 ca        1 X66     -0.143000
     14 N14         0.0830   -0.5780    2.3110 nb        1 X66     -0.800500
     15 C15        -0.5670   -0.5430    1.0750 ca        1 X66      0.920900
     16 N16        -1.7930   -1.1910    0.9730 nh        1 X66     -0.942500
     17 H1N3        1.3300    1.1290   -1.9050 hn        1 X66      0.438800
     18 H2N3        2.7150    1.5050   -0.9840 hn        1 X66      0.438800
     19 HO8         0.1790    1.7520    5.4490 ho        1 X66      0.418000
     20 H9          1.8850    1.1660    6.8240 ha        1 X66      0.139000
     21 H10         4.0170   -0.1410    6.9960 ha        1 X66      0.153000
     22 HO12        5.3560   -1.8680    4.2370 ho        1 X66      0.419000
     23 H13         3.6510   -1.2690    2.8240 ha        1 X66      0.148000
     24 H116       -2.3550   -0.9950    0.1790 hn        1 X66      0.438800
     25 H216       -2.2590   -1.4230    1.8180 hn        1 X66      0.438800
@<TRIPOS>BOND
     1    1    2 ar  
     2    1   15 ar  
     3    2    3 1   
     4    2    4 ar  
     5    3   17 1   
     6    3   18 1   
     7    4    5 ar  
     8    5    6 1   
     9    5   14 ar  
    10    6    7 ar  
    11    6   13 ar  
    12    7    8 1   
    13    7    9 ar  
    14    8   19 1   
    15    9   10 ar  
    16    9   20 1   
    17   10   11 ar  
    18   10   21 1   
    19   11   12 1   
    20   11   13 ar  
    21   12   22 1   
    22   13   23 1   
    23   14   15 ar  
    24   15   16 1   
    25   16   24 1   
    26   16   25 1   
@<TRIPOS>SUBSTRUCTURE
     1 X66         1 TEMP              0 ****  ****    0 ROOT
