@<TRIPOS>MOLECULE
X66
   27    28     1     0     0
SMALL
bcc


@<TRIPOS>ATOM
      1 N1         -0.0860    0.0090   -0.1390 nb        1 X66     -0.744000
      2 C2          1.2710    0.2430   -0.0120 ca        1 X66      0.794900
      3 N3          2.0100    0.5310   -1.2790 n4        1 X66     -0.824300
      4 N4          1.9960    0.2540    1.1330 nb        1 X66     -0.670500
      5 C5          1.2890   -0.0110    2.3080 cp        1 X66      0.877500
      6 C6          2.0190   -0.0180    3.5610 cp        1 X66     -0.229500
      7 C7          1.4330    0.3500    4.8020 ca        1 X66      0.215100
      8 O8          0.1510    0.8120    4.8070 oh        1 X66     -0.488100
      9 C9          2.1910    0.2920    5.9920 ca        1 X66     -0.193000
     10 C10         3.5100   -0.1130    5.9680 ca        1 X66     -0.055000
     11 C11         4.1110   -0.4600    4.7330 ca        1 X66      0.109100
     12 O12         5.4150   -0.8630    4.6220 oh        1 X66     -0.470100
     13 C13         3.3840   -0.4080    3.5490 ca        1 X66     -0.087000
     14 N14        -0.0760   -0.2870    2.2960 nb        1 X66     -0.670500
     15 C15        -0.6800   -0.2480    1.0820 ca        1 X66      0.794900
     16 N16        -2.1470   -0.5270    1.0550 n4        1 X66     -0.824300
     17 H1N3        3.0020    0.7390   -1.0710 hn        1 X66      0.501800
     18 H2N3        1.9560   -0.2920   -1.8990 hn        1 X66      0.501800
     19 HO8        -0.0910    1.0650    5.7160 ho        1 X66      0.466000
     20 H9          1.7170    0.5770    6.9480 ha        1 X66      0.179000
     21 H10         4.0980   -0.1630    6.9020 ha        1 X66      0.183000
     22 HO12        5.8190   -0.8730    5.5060 ho        1 X66      0.452000
     23 H13         3.8880   -0.6990    2.6140 ha        1 X66      0.174000
     24 H116       -2.4900   -0.7050    2.0160 hn        1 X66      0.501800
     25 H216       -2.6430    0.2870    0.6610 hn        1 X66      0.501800
     26 H33         1.5820    1.3420   -1.7510 hn        1 X66      0.501800
     27 H163       -2.3300   -1.3550    0.4680 hn        1 X66      0.501800
@<TRIPOS>BOND
     1    1    2 ar  
     2    1   15 ar  
     3    2    3 1   
     4    2    4 ar  
     5    3   17 1   
     6    3   18 1   
     7    3   26 1   
     8    4    5 ar  
     9    5    6 1   
    10    5   14 ar  
    11    6    7 ar  
    12    6   13 ar  
    13    7    8 1   
    14    7    9 ar  
    15    8   19 1   
    16    9   10 ar  
    17    9   20 1   
    18   10   11 ar  
    19   10   21 1   
    20   11   12 1   
    21   11   13 ar  
    22   12   22 1   
    23   13   23 1   
    24   14   15 ar  
    25   15   16 1   
    26   16   24 1   
    27   16   25 1   
    28   16   27 1   
@<TRIPOS>SUBSTRUCTURE
     1 X66         1 TEMP              0 ****  ****    0 ROOT
