@<TRIPOS>MOLECULE
X66
   25    26     1     0     0
SMALL
bcc


@<TRIPOS>ATOM
      1 N1         -0.0270    0.2150   -0.0740 nb        1 X66     -0.845000
      2 C2          1.2120   -0.3960    0.0450 ca        1 X66      0.917900
      3 N3          1.7990   -0.8920   -1.1150 nv        1 X66     -0.937500
      4 N4          1.9300   -0.5110    1.2350 nb        1 X66     -0.799000
      5 C5          1.3310    0.0630    2.3180 cp        1 X66      0.788500
      6 C6          2.0570   -0.0450    3.6150 cp        1 X66     -0.125500
      7 C7          1.5020   -0.7430    4.7020 ca        1 X66      0.127100
      8 O8          0.2900   -1.3670    4.5090 oh        1 X66     -0.485100
      9 C9          2.1890   -0.8150    5.9250 ca        1 X66     -0.187000
     10 C10         3.4290   -0.2050    6.0660 ca        1 X66     -0.106000
     11 C11         3.9860    0.4770    4.9720 ca        1 X66      0.084100
     12 O12         5.2220    1.0540    5.1760 oh        1 X66     -0.498100
     13 C13         3.3090    0.5570    3.7490 ca        1 X66     -0.142000
     14 N14         0.1430    0.7300    2.3320 nb        1 X66     -0.799000
     15 C15        -0.5030    0.7910    1.0950 ca        1 X66      0.917900
     16 N16        -1.6850    1.5160    1.0210 nv        1 X66     -0.937500
     17 H1N3        2.5640   -1.5150   -1.0120 hn        1 X66      0.437050
     18 H2N3        1.2220   -1.0000   -1.9150 hn        1 X66      0.437050
     19 HO8         0.0020   -1.7200    5.3630 ho        1 X66      0.418000
     20 H9          1.7440   -1.3570    6.7710 ha        1 X66      0.138000
     21 H10         3.9790   -0.2490    7.0160 ha        1 X66      0.153000
     22 HO12        5.4940    1.4720    4.3460 ho        1 X66      0.420000
     23 H13         3.7570    1.0880    2.8960 ha        1 X66      0.150000
     24 H116       -2.1350    1.7560    1.8710 hn        1 X66      0.437050
     25 H216       -2.2470    1.4110    0.2100 hn        1 X66      0.437050
@<TRIPOS>BOND
     1    1    2 ar  
     2    1   15 ar  
     3    2    3 1   
     4    2    4 ar  
     5    3   17 1   
     6    3   18 1   
     7    4    5 ar  
     8    5    6 1   
     9    5   14 ar  
    10    6    7 ar  
    11    6   13 ar  
    12    7    8 1   
    13    7    9 ar  
    14    8   19 1   
    15    9   10 ar  
    16    9   20 1   
    17   10   11 ar  
    18   10   21 1   
    19   11   12 1   
    20   11   13 ar  
    21   12   22 1   
    22   13   23 1   
    23   14   15 ar  
    24   15   16 1   
    25   16   24 1   
    26   16   25 1   
@<TRIPOS>SUBSTRUCTURE
     1 X66         1 TEMP              0 ****  ****    0 ROOT
