@<TRIPOS>MOLECULE
X66
   25    26     1     0     0
SMALL
bcc


@<TRIPOS>ATOM
      1 N1         -3.3250   -0.3510   -0.0830 nb        1 X66     -0.847000
      2 C2         -2.4800   -1.3520    0.3720 ca        1 X66      0.927400
      3 N3         -3.0460   -2.5720    0.6970 nh        1 X66     -0.941000
      4 N4         -1.0920   -1.2300    0.4900 nb        1 X66     -0.821500
      5 C5         -0.5860   -0.0300    0.0840 cp        1 X66      0.781500
      6 C6          0.8950    0.1260    0.1370 cp        1 X66     -0.191500
      7 C7          1.5190    1.2460    0.7140 ca        1 X66      0.144100
      8 O8          0.8720    2.2910    1.3250 oh        1 X66     -0.500100
      9 C9          2.9250    1.3440    0.7310 ca        1 X66     -0.136000
     10 C10         3.7000    0.3390    0.1750 ca        1 X66     -0.160000
     11 C11         3.0740   -0.7770   -0.4010 ca        1 X66      0.075100
     12 O12         3.7810   -1.8130   -0.9760 oh        1 X66     -0.498100
     13 C13         1.6790   -0.8910   -0.4200 ca        1 X66     -0.081000
     14 N14        -1.3080    1.0290   -0.3870 nb        1 X66     -0.821500
     15 C15        -2.6880    0.8280   -0.4370 ca        1 X66      0.927400
     16 N16        -3.4820    1.9000   -0.8220 nh        1 X66     -0.941000
     17 H1N3       -4.0310   -2.6420    0.7620 hn        1 X66      0.442550
     18 H2N3       -2.4850   -3.2520    1.1510 hn        1 X66      0.442550
     19 HO8        -0.0780    2.2250    1.1580 ho        1 X66      0.440000
     20 H9          3.3890    2.2280    1.1920 ha        1 X66      0.154000
     21 H10         4.7970    0.4150    0.1850 ha        1 X66      0.137000
     22 HO12        4.7230   -1.6130   -0.8850 ho        1 X66      0.417000
     23 H13         1.2160   -1.7810   -0.8720 ha        1 X66      0.165000
     24 H116       -3.0400    2.6670   -1.2690 hn        1 X66      0.442550
     25 H216       -4.4310    1.7180   -1.0480 hn        1 X66      0.442550
@<TRIPOS>BOND
     1    1    2 ar  
     2    1   15 ar  
     3    2    3 1   
     4    2    4 ar  
     5    3   17 1   
     6    3   18 1   
     7    4    5 ar  
     8    5    6 1   
     9    5   14 ar  
    10    6    7 ar  
    11    6   13 ar  
    12    7    8 1   
    13    7    9 ar  
    14    8   19 1   
    15    9   10 ar  
    16    9   20 1   
    17   10   11 ar  
    18   10   21 1   
    19   11   12 1   
    20   11   13 ar  
    21   12   22 1   
    22   13   23 1   
    23   14   15 ar  
    24   15   16 1   
    25   16   24 1   
    26   16   25 1   
@<TRIPOS>SUBSTRUCTURE
     1 X66         1 TEMP              0 ****  ****    0 ROOT
