@<TRIPOS>MOLECULE
X67
   24    25     1     0     0
SMALL
bcc


@<TRIPOS>ATOM
      1 C1         -0.0200    0.4990    0.1420 ca        1 X67      0.921900
      2 N2         -0.7050    0.9960   -0.9600 nv        1 X67     -0.941500
      3 N3          1.3750    0.5380    0.1090 nb        1 X67     -0.800500
      4 C4          1.9850   -0.0520    1.1780 cp        1 X67      0.788500
      5 C5          3.4740   -0.0500    1.1780 cp        1 X67     -0.138500
      6 C6          4.1590   -0.7370    0.1770 ca        1 X67     -0.095000
      7 C7          5.5650   -0.7600    0.1830 ca        1 X67      0.081900
      8 F8          6.2310   -1.4340   -0.7870 f         1 X67     -0.140900
      9 C9          6.2850   -0.0890    1.1890 ca        1 X67     -0.115000
     10 C10         5.6000    0.6070    2.1760 ca        1 X67     -0.199000
     11 C11         4.1960    0.6340    2.1740 ca        1 X67      0.149100
     12 O12         3.4790    1.3410    3.1080 oh        1 X67     -0.478100
     13 N13         1.3710   -0.6520    2.2360 nb        1 X67     -0.800500
     14 C14        -0.0250   -0.6060    2.2000 ca        1 X67      0.921900
     15 N15        -0.7140   -1.1170    3.2880 nv        1 X67     -0.941500
     16 N16        -0.7700   -0.0470    1.1720 nb        1 X67     -0.845000
     17 H1N2       -0.2000    1.5640   -1.5980 hn        1 X67      0.439550
     18 H2N2       -1.6780    1.1640   -0.8640 hn        1 X67      0.439550
     19 H6          3.6060   -1.2590   -0.6190 ha        1 X67      0.163000
     20 H9          7.3840   -0.1190    1.1840 ha        1 X67      0.151000
     21 H10         6.1570    1.1380    2.9620 ha        1 X67      0.141000
     22 HO12        4.1040    1.6880    3.7630 ho        1 X67      0.421000
     23 H115       -1.6930   -1.2490    3.2120 hn        1 X67      0.439550
     24 H215       -0.2130   -1.6530    3.9540 hn        1 X67      0.439550
@<TRIPOS>BOND
     1    1    2 1   
     2    1    3 ar  
     3    1   16 ar  
     4    2   17 1   
     5    2   18 1   
     6    3    4 ar  
     7    4    5 1   
     8    4   13 ar  
     9    5    6 ar  
    10    5   11 ar  
    11    6    7 ar  
    12    6   19 1   
    13    7    8 1   
    14    7    9 ar  
    15    9   10 ar  
    16    9   20 1   
    17   10   11 ar  
    18   10   21 1   
    19   11   12 1   
    20   12   22 1   
    21   13   14 ar  
    22   14   15 1   
    23   14   16 ar  
    24   15   23 1   
    25   15   24 1   
@<TRIPOS>SUBSTRUCTURE
     1 X67         1 TEMP              0 ****  ****    0 ROOT
