@<TRIPOS>MOLECULE
X67
   24    25     1     0     0
SMALL
bcc


@<TRIPOS>ATOM
      1 C1          0.0060   -0.3030    0.1040 ca        1 X67      0.929900
      2 N2         -0.6770   -0.6570   -1.0450 nh        1 X67     -0.941500
      3 N3          1.4010   -0.3870    0.0800 nb        1 X67     -0.824500
      4 C4          2.0210    0.0430    1.2160 cp        1 X67      0.782500
      5 C5          3.5110    0.0230    1.2160 cp        1 X67     -0.203500
      6 C6          4.1730    0.5430    0.0970 ca        1 X67     -0.088000
      7 C7          5.5740    0.5550    0.0530 ca        1 X67      0.073900
      8 F8          6.2120    1.0640   -1.0310 f         1 X67     -0.141900
      9 C9          6.3260    0.0410    1.1290 ca        1 X67     -0.114000
     10 C10         5.6740   -0.4760    2.2340 ca        1 X67     -0.151000
     11 C11         4.2630   -0.4860    2.2890 ca        1 X67      0.166100
     12 O12         3.7490   -1.0520    3.4260 oh        1 X67     -0.496100
     13 N13         1.4040    0.5110    2.3410 nb        1 X67     -0.824500
     14 C14         0.0100    0.5290    2.2850 ca        1 X67      0.929900
     15 N15        -0.6760    0.9100    3.4310 nh        1 X67     -0.941500
     16 N16        -0.7400    0.1470    1.1840 nb        1 X67     -0.846000
     17 H1N2       -0.1810   -1.1030   -1.7780 hn        1 X67      0.443550
     18 H2N2       -1.6640   -0.7380   -1.0130 hn        1 X67      0.443550
     19 H6          3.6030    0.9420   -0.7560 ha        1 X67      0.163000
     20 H9          7.4250    0.0570    1.0800 ha        1 X67      0.152000
     21 H10         6.2390   -0.8850    3.0860 ha        1 X67      0.158000
     22 HO12        2.7890   -0.9300    3.4460 ho        1 X67      0.444000
     23 H115       -0.1660    1.3720    4.1450 hn        1 X67      0.443550
     24 H215       -1.6450    1.1080    3.3500 hn        1 X67      0.443550
@<TRIPOS>BOND
     1    1    2 1   
     2    1    3 ar  
     3    1   16 ar  
     4    2   17 1   
     5    2   18 1   
     6    3    4 ar  
     7    4    5 1   
     8    4   13 ar  
     9    5    6 ar  
    10    5   11 ar  
    11    6    7 ar  
    12    6   19 1   
    13    7    8 1   
    14    7    9 ar  
    15    9   10 ar  
    16    9   20 1   
    17   10   11 ar  
    18   10   21 1   
    19   11   12 1   
    20   12   22 1   
    21   13   14 ar  
    22   14   15 1   
    23   14   16 ar  
    24   15   23 1   
    25   15   24 1   
@<TRIPOS>SUBSTRUCTURE
     1 X67         1 TEMP              0 ****  ****    0 ROOT
