@<TRIPOS>MOLECULE
X67
   24    25     1     0     0
SMALL
bcc


@<TRIPOS>ATOM
      1 C1          2.4350    1.3980   -0.3530 ca        1 X67      0.929900
      2 N2          2.9460    2.6490   -0.6460 nh        1 X67     -0.941500
      3 N3          1.0460    1.2380   -0.4000 nb        1 X67     -0.824500
      4 C4          0.5990    0.0050   -0.0310 cp        1 X67      0.782500
      5 C5         -0.8770   -0.1960   -0.0120 cp        1 X67     -0.203500
      6 C6         -1.6650    0.7880    0.6010 ca        1 X67     -0.088000
      7 C7         -3.0570    0.6420    0.6530 ca        1 X67      0.073900
      8 F8         -3.8150    1.5940    1.2520 f         1 X67     -0.141900
      9 C9         -3.6770   -0.4910    0.0860 ca        1 X67     -0.114000
     10 C10        -2.9030   -1.4620   -0.5230 ca        1 X67     -0.151000
     11 C11        -1.4980   -1.3250   -0.5750 ca        1 X67      0.166100
     12 O12        -0.8580   -2.3430   -1.2300 oh        1 X67     -0.496100
     13 N13         1.3760   -1.0550    0.3430 nb        1 X67     -0.824500
     14 C14         2.7500   -0.8130    0.3280 ca        1 X67      0.929900
     15 N15         3.5950   -1.8770    0.6130 nh        1 X67     -0.941500
     16 N16         3.3330    0.4020    0.0020 nb        1 X67     -0.846000
     17 H1N2        3.9250    2.7550   -0.7560 hn        1 X67      0.443550
     18 H2N2        2.3420    3.3350   -1.0290 hn        1 X67      0.443550
     19 H6         -1.1980    1.6820    1.0430 ha        1 X67      0.163000
     20 H9         -4.7720   -0.5920    0.1330 ha        1 X67      0.152000
     21 H10        -3.3630   -2.3530   -0.9750 ha        1 X67      0.158000
     22 HO12        0.1000   -2.2410   -1.1350 ho        1 X67      0.444000
     23 H115        3.2010   -2.6820    1.0390 hn        1 X67      0.443550
     24 H215        4.5510   -1.6800    0.7900 hn        1 X67      0.443550
@<TRIPOS>BOND
     1    1    2 1   
     2    1    3 ar  
     3    1   16 ar  
     4    2   17 1   
     5    2   18 1   
     6    3    4 ar  
     7    4    5 1   
     8    4   13 ar  
     9    5    6 ar  
    10    5   11 ar  
    11    6    7 ar  
    12    6   19 1   
    13    7    8 1   
    14    7    9 ar  
    15    9   10 ar  
    16    9   20 1   
    17   10   11 ar  
    18   10   21 1   
    19   11   12 1   
    20   12   22 1   
    21   13   14 ar  
    22   14   15 1   
    23   14   16 ar  
    24   15   23 1   
    25   15   24 1   
@<TRIPOS>SUBSTRUCTURE
     1 X67         1 TEMP              0 ****  ****    0 ROOT
