@<TRIPOS>MOLECULE
X67
   26    27     1     0     0
SMALL
bcc


@<TRIPOS>ATOM
      1 C1         -0.0060    0.2150    0.0250 ca        1 X67      0.796900
      2 N2         -0.7220    0.4770   -1.2600 n4        1 X67     -0.824800
      3 N3          1.3490    0.2320   -0.0150 nb        1 X67     -0.672000
      4 C4          2.0000   -0.0070    1.1970 cp        1 X67      0.878500
      5 C5          3.4500   -0.0040    1.2100 cp        1 X67     -0.242500
      6 C6          4.1410   -0.4120    0.0380 ca        1 X67     -0.091000
      7 C7          5.5320   -0.4580    0.0140 ca        1 X67      0.115900
      8 F8          6.1770   -0.8640   -1.1000 f         1 X67     -0.092900
      9 C9          6.2850   -0.0820    1.1630 ca        1 X67     -0.012000
     10 C10         5.6270    0.3400    2.2980 ca        1 X67     -0.208000
     11 C11         4.2150    0.3910    2.3400 ca        1 X67      0.237100
     12 O12         3.5630    0.8690    3.4340 oh        1 X67     -0.484100
     13 N13         1.2950   -0.2660    2.3710 nb        1 X67     -0.672000
     14 C14        -0.0570   -0.2370    2.2700 ca        1 X67      0.796900
     15 N15        -0.8280   -0.4990    3.5230 n4        1 X67     -0.824800
     16 N16        -0.8050   -0.0040    1.1320 nb        1 X67     -0.741000
     17 H1N2       -1.2710   -0.3570   -1.5210 hn        1 X67      0.502633
     18 H2N2       -0.0400    0.6860   -2.0100 hn        1 X67      0.502633
     19 H6          3.5900   -0.7210   -0.8650 ha        1 X67      0.172000
     20 H9          7.3890   -0.1300    1.1240 ha        1 X67      0.200000
     21 H10         6.2050    0.6450    3.1890 ha        1 X67      0.184000
     22 HO12        4.2190    1.1370    4.1050 ho        1 X67      0.469000
     23 H115       -0.1760   -0.6630    4.3110 hn        1 X67      0.502633
     24 H215       -1.4220    0.3170    3.7360 hn        1 X67      0.502633
     25 H23        -1.3580    1.2810   -1.1430 hn        1 X67      0.502633
     26 H153       -1.4240   -1.3310    3.3930 hn        1 X67      0.502633
@<TRIPOS>BOND
     1    1    2 1   
     2    1    3 ar  
     3    1   16 ar  
     4    2   17 1   
     5    2   18 1   
     6    2   25 1   
     7    3    4 ar  
     8    4    5 1   
     9    4   13 ar  
    10    5    6 ar  
    11    5   11 ar  
    12    6    7 ar  
    13    6   19 1   
    14    7    8 1   
    15    7    9 ar  
    16    9   10 ar  
    17    9   20 1   
    18   10   11 ar  
    19   10   21 1   
    20   11   12 1   
    21   12   22 1   
    22   13   14 ar  
    23   14   15 1   
    24   14   16 ar  
    25   15   23 1   
    26   15   24 1   
    27   15   26 1   
@<TRIPOS>SUBSTRUCTURE
     1 X67         1 TEMP              0 ****  ****    0 ROOT
