@<TRIPOS>MOLECULE
X69
   37    35     1     0     0
SMALL
bcc


@<TRIPOS>ATOM
      1 N01        -0.2270    0.3690   -0.1020 nh        1 X69     -0.354100
      2 N02         3.8990    0.3490    2.8580 n3        1 X69     -1.060400
      3 N03        -0.3950   -2.5640    1.0360 n1        1 X69     -0.500800
      4 N04         5.1090   -0.6890   -1.8270 no        1 X69      0.317100
      5 C05         3.3430   -0.7050   -0.0940 cc        1 X69      0.090000
      6 C06         2.0200   -0.4530    0.3660 cc        1 X69     -0.432700
      7 C07         1.0290    0.1110   -0.5320 cc        1 X69      0.516900
      8 C08         1.4460    0.4030   -1.8620 cc        1 X69     -0.439600
      9 C09         2.7430    0.1580   -2.2930 cd        1 X69      0.314100
     10 C10         3.7140   -0.4120   -1.3860 cd        1 X69     -0.243100
     11 C12        -1.2540    0.9450   -0.9600 c3        1 X69      0.131400
     12 C13        -2.5020    1.1320   -0.2740 c1        1 X69     -0.241100
     13 C14        -1.0190   -3.5390    0.9650 c1        1 X69      0.295300
     14 C15        -5.9710    1.1240    0.4110 c2        1 X69     -0.135000
     15 C16        -4.7950    1.5510    0.8840 ce        1 X69     -0.080700
     16 C17        -3.5630    1.3160    0.2520 cg        1 X69     -0.034300
     17 C18         2.2810    0.9870   -4.4880 c3        1 X69      0.098700
     18 O19         1.4200   -1.0240    2.7650 o         1 X69     -0.199500
     19 O20         5.8790   -1.0970   -0.9990 o         1 X69     -0.172000
     20 O21         5.4070   -0.4980   -2.9680 o         1 X69     -0.172000
     21 O22         3.1940    0.4190   -3.5400 os        1 X69     -0.250900
     22 HN01       -0.5110    0.0950    0.8140 hn        1 X69      0.305700
     23 H102        3.7040    0.2030    3.8290 hn        1 X69      0.357467
     24 H202        3.9490    1.3330    2.6890 hn        1 X69      0.357467
     25 H05         4.0810   -1.1470    0.6070 ha        1 X69      0.199000
     26 H08         0.7180    0.8320   -2.5690 ha        1 X69      0.176000
     27 H112       -1.4120    0.2610   -1.8500 h1        1 X69      0.082700
     28 H212       -0.8810    1.9450   -1.3420 h1        1 X69      0.082700
     29 H14        -1.5970   -4.4420    0.9010 ha        1 X69      0.208500
     30 H15        -6.0720    0.5460   -0.5180 ha        1 X69      0.133000
     31 H16        -6.9120    1.3390    0.9370 ha        1 X69      0.133000
     32 H17        -4.7300    2.1370    1.8210 ha        1 X69      0.155000
     33 H118        1.9260    1.9850   -4.1340 h1        1 X69      0.074700
     34 H218        2.9230    1.0900   -5.4030 h1        1 X69      0.074700
     35 H318        1.4300    0.2890   -4.6720 h1        1 X69      0.074700
     36 H023        4.7940   -0.0510    2.6530 hn        1 X69      0.357467
     37 C11         1.7140   -0.7550    1.6700 c1        1 X69      0.780600
@<TRIPOS>BOND
     1    1    7 2   
     2    1   11 1   
     3    1   22 1   
     4    2   23 1   
     5    2   24 1   
     6    2   36 1   
     7    3   13 3   
     8    4   10 1   
     9    4   19 1   
    10    4   20 1   
    11    5    6 1   
    12    5   10 2   
    13    5   25 1   
    14    6    7 1   
    15    6   37 2   
    16    7    8 1   
    17    8    9 2   
    18    8   26 1   
    19    9   10 1   
    20    9   21 1   
    21   11   12 1   
    22   11   27 1   
    23   11   28 1   
    24   12   16 3   
    25   13   29 1   
    26   14   15 2   
    27   14   30 1   
    28   14   31 1   
    29   15   16 1   
    30   15   32 1   
    31   17   21 1   
    32   17   33 1   
    33   17   34 1   
    34   17   35 1   
    35   18   37 2   
@<TRIPOS>SUBSTRUCTURE
     1 X69         1 TEMP              0 ****  ****    0 ROOT
