@<TRIPOS>MOLECULE
X69
   37    37     1     0     0
SMALL
bcc


@<TRIPOS>ATOM
      1 N01        -0.1100    0.4530   -0.4780 nu        1 X69     -0.254000
      2 N02         2.8500    0.6530    2.8010 nz        1 X69     -0.146000
      3 N03        -4.4920   -1.7240    1.0680 n7        1 X69     -0.109000
      4 N04         5.4290   -0.4650   -1.4310 no        1 X69      0.588000
      5 C05         3.5360    0.0150    0.0860 ca        1 X69      0.029000
      6 C06         2.1790    0.2680    0.3890 ca        1 X69     -0.327000
      7 C07         1.2090    0.2630   -0.6920 ca        1 X69      0.274000
      8 C08         1.7000    0.0470   -2.0200 ca        1 X69     -0.341000
      9 C09         3.0380   -0.1770   -2.2870 ca        1 X69      0.246000
     10 C10         3.9840   -0.2050   -1.1980 ca        1 X69     -0.204000
     11 C12        -1.0930    0.5020   -1.5420 c3        1 X69     -0.007000
     12 C13        -2.4810    0.8070   -1.0630 c2        1 X69     -0.126000
     13 C14        -5.1010   -2.8050    1.4290 c1        1 X69      0.234000
     14 C15        -4.1190   -0.6610    1.8600 c2        1 X69     -0.423000
     15 C16        -3.4220    0.4620    1.3510 c2        1 X69      0.055000
     16 C17        -2.9160    0.5960    0.1410 c1        1 X69     -0.343000
     17 C18         2.6620   -0.3620   -4.6380 c3        1 X69     -0.089000
     18 O19         0.6460    0.6990    2.2270 o         1 X69     -0.250000
     19 O20         6.1550   -0.4360   -0.4690 o         1 X69     -0.331500
     20 O21         5.8190   -0.6880   -2.5370 o         1 X69     -0.331500
     21 O22         3.5580   -0.3840   -3.5210 os        1 X69     -0.146000
     22 HN01       -0.4690    0.5800    0.4500 hn        1 X69      0.276000
     23 H102        2.4120    0.9050    3.6960 hn        1 X69      0.260000
     24 H202        3.3410   -0.2380    2.9080 hn        1 X69      0.260000
     25 H05         4.2980   -0.0240    0.8880 ha        1 X69      0.150000
     26 H08         0.9870    0.0560   -2.8600 ha        1 X69      0.173000
     27 H112       -0.7850    1.2970   -2.2840 h1        1 X69      0.103000
     28 H212       -1.1010   -0.4940   -2.0770 h1        1 X69      0.103000
     29 H14        -3.1200    1.2420   -1.8530 ha        1 X69      0.146000
     30 H15        -4.2530   -1.6110    0.0840 hn        1 X69      0.281000
     31 H16        -4.4220   -0.6980    2.9140 h4        1 X69      0.175000
     32 H17        -3.3000    1.2930    2.0750 ha        1 X69      0.156000
     33 H118        2.1740    0.6380   -4.7260 h1        1 X69      0.110000
     34 H218        1.9050   -1.1780   -4.5450 h1        1 X69      0.110000
     35 H318        3.3520   -0.5510   -5.5030 h1        1 X69      0.110000
     36 H023        3.5230    1.3770    2.5380 hn        1 X69      0.260000
     37 C11         1.7600    0.5310    1.7340 c2        1 X69      0.327000
@<TRIPOS>BOND
     1    1    7 1   
     2    1   11 1   
     3    1   22 1   
     4    2   23 1   
     5    2   24 1   
     6    2   36 1   
     7    2   37 1   
     8    3   13 1   
     9    3   14 1   
    10    3   30 1   
    11    4   10 1   
    12    4   19 1   
    13    4   20 1   
    14    5    6 1   
    15    5   10 1   
    16    5   25 1   
    17    6    7 1   
    18    6   37 1   
    19    7    8 1   
    20    8    9 1   
    21    8   26 1   
    22    9   10 1   
    23    9   21 1   
    24   11   12 1   
    25   11   27 1   
    26   11   28 1   
    27   12   16 1   
    28   12   29 1   
    29   14   15 1   
    30   14   31 1   
    31   15   16 1   
    32   15   32 1   
    33   17   21 1   
    34   17   33 1   
    35   17   34 1   
    36   17   35 1   
    37   18   37 1   
@<TRIPOS>SUBSTRUCTURE
     1 X69         1 TEMP              0 ****  ****    0 ROOT
