@<TRIPOS>MOLECULE
X69
   36    36     1     0     0
SMALL
bcc


@<TRIPOS>ATOM
      1 N01         0.0460    0.1450   -0.1110 nh        1 X69     -0.750600
      2 N02         2.9200    0.5010    2.7840 n         1 X69     -0.665000
      3 N03        -4.9950   -1.2500    0.5830 n1        1 X69     -1.123500
      4 N04         5.4940   -0.3540   -1.6740 no        1 X69      0.336200
      5 C05         3.7190   -0.2530    0.0590 ca        1 X69      0.031000
      6 C06         2.4000   -0.1290    0.4700 ca        1 X69     -0.268600
      7 C07         1.3520    0.0040   -0.5020 ca        1 X69      0.316600
      8 C08         1.7190    0.0400   -1.8740 ca        1 X69     -0.332000
      9 C09         3.0500   -0.0680   -2.2720 ca        1 X69      0.261100
     10 C10         4.0750   -0.2230   -1.2980 ca        1 X69     -0.289200
     11 C12        -1.0350    0.1710   -1.0640 c3        1 X69      0.240000
     12 C13        -2.4030    0.2360   -0.4660 c2        1 X69     -0.172200
     13 C14        -4.9770   -2.3130    0.0600 c1        1 X69      0.467800
     14 C15        -5.0380   -0.0310    1.2020 ce        1 X69      0.496700
     15 C16        -4.0450    0.8810    1.2670 cf        1 X69     -0.145000
     16 C17        -2.7130    0.7900    0.7120 cf        1 X69     -0.119000
     17 C18         2.4460    0.1040   -4.5750 c3        1 X69      0.106700
     18 O19         1.0810   -0.7560    2.3860 o         1 X69     -0.639100
     19 O20         6.3150   -0.4240   -0.7910 o         1 X69     -0.216000
     20 O21         5.8080   -0.3860   -2.8310 o         1 X69     -0.216000
     21 O22         3.4570   -0.0360   -3.5780 os        1 X69     -0.281900
     22 HN01       -0.1890   -0.0960    0.8320 hn        1 X69      0.470800
     23 H102        3.7220    0.9770    2.4600 hn        1 X69      0.318000
     24 H202        2.7470    0.4580    3.7580 hn        1 X69      0.318000
     25 H05         4.5240   -0.3950    0.8050 ha        1 X69      0.171000
     26 H08         0.9390    0.1500   -2.6410 ha        1 X69      0.152000
     27 H112       -0.9030    1.0770   -1.7310 h1        1 X69      0.054700
     28 H212       -0.9820   -0.7470   -1.7260 h1        1 X69      0.054700
     29 H14        -3.1750   -0.1950   -1.1250 ha        1 X69      0.140000
     30 H15        -1.9380    1.2570    1.3490 ha        1 X69      0.138000
     31 H16        -6.0120    0.1700    1.6990 h4        1 X69      0.150000
     32 H17        -4.2450    1.8090    1.8350 ha        1 X69      0.145000
     33 H118        1.7380   -0.7590   -4.5410 h1        1 X69      0.054700
     34 H218        3.0360    0.0960   -5.5270 h1        1 X69      0.054700
     35 H318        1.9030    1.0720   -4.4520 h1        1 X69      0.054700
     36 C11         2.0830   -0.1630    1.9240 c         1 X69      0.687700
@<TRIPOS>BOND
     1    1    7 1   
     2    1   11 1   
     3    1   22 1   
     4    2   23 1   
     5    2   24 1   
     6    2   36 1   
     7    3   13 3   
     8    3   14 1   
     9    4   10 1   
    10    4   19 1   
    11    4   20 1   
    12    5    6 ar  
    13    5   10 ar  
    14    5   25 1   
    15    6    7 ar  
    16    6   36 1   
    17    7    8 ar  
    18    8    9 ar  
    19    8   26 1   
    20    9   10 ar  
    21    9   21 1   
    22   11   12 1   
    23   11   27 1   
    24   11   28 1   
    25   12   16 2   
    26   12   29 1   
    27   14   15 2   
    28   14   31 1   
    29   15   16 1   
    30   15   32 1   
    31   16   30 1   
    32   17   21 1   
    33   17   33 1   
    34   17   34 1   
    35   17   35 1   
    36   18   36 2   
@<TRIPOS>SUBSTRUCTURE
     1 X69         1 TEMP              0 ****  ****    0 ROOT
