@<TRIPOS>MOLECULE
X69
   36    37     1     0     0
SMALL
bcc


@<TRIPOS>ATOM
      1 N01         1.2010   -0.1670   -0.1310 nh        1 X69     -0.750600
      2 N02        -0.8650   -3.6490   -0.7190 n         1 X69     -0.664000
      3 N03         5.6350    1.0490    1.0470 nb        1 X69     -0.660000
      4 N04        -4.4750    0.0070    0.2160 no        1 X69      0.336200
      5 C05        -2.3300   -1.2390    0.1130 ca        1 X69      0.031000
      6 C06        -0.9480   -1.3120    0.0270 ca        1 X69     -0.267600
      7 C07        -0.1650   -0.1110   -0.0220 ca        1 X69      0.314600
      8 C08        -0.8520    1.1320   -0.0140 ca        1 X69     -0.332000
      9 C09        -2.2430    1.1910    0.0570 ca        1 X69      0.260100
     10 C10        -3.0040   -0.0080    0.1270 ca        1 X69     -0.289200
     11 C12         2.0190    1.0180   -0.0430 c3        1 X69      0.262100
     12 C13         3.4840    0.7170   -0.0280 ca        1 X69     -0.231600
     13 C14         4.3050    1.2440    0.9910 ca        1 X69      0.413200
     14 C15         6.1950    0.3020    0.0760 ca        1 X69      0.405200
     15 C16         5.4620   -0.2710   -0.9800 ca        1 X69     -0.244300
     16 C17         4.0850   -0.0560   -1.0290 ca        1 X69     -0.075000
     17 C18        -2.2120    3.5770    0.0020 c3        1 X69      0.106700
     18 O19         0.7740   -2.8790    0.6400 o         1 X69     -0.637100
     19 O20        -5.0590   -1.0490    0.2120 o         1 X69     -0.215000
     20 O21        -5.0610    1.0520    0.2880 o         1 X69     -0.215000
     21 O22        -2.9530    2.3600    0.0640 os        1 X69     -0.280900
     22 HN01        1.6520   -1.0410    0.0590 hn        1 X69      0.471800
     23 H102       -1.7040   -3.5040   -1.2180 hn        1 X69      0.318000
     24 H202       -0.4610   -4.5530   -0.7070 hn        1 X69      0.318000
     25 H05        -2.9340   -2.1640    0.1890 ha        1 X69      0.171000
     26 H08        -0.2790    2.0690   -0.0630 ha        1 X69      0.152000
     27 H112        1.7950    1.6720   -0.9390 h1        1 X69      0.053200
     28 H212        1.7480    1.6080    0.8840 h1        1 X69      0.053200
     29 H14         3.8750    1.8540    1.8060 h4        1 X69      0.025100
     30 H15         7.2880    0.1570    0.1520 h4        1 X69      0.027100
     31 H16         5.9680   -0.8740   -1.7450 ha        1 X69      0.149000
     32 H17         3.4800   -0.4850   -1.8420 ha        1 X69      0.147000
     33 H118       -3.0160    4.3570    0.0240 h1        1 X69      0.054367
     34 H218       -1.5400    3.6750    0.8880 h1        1 X69      0.054367
     35 H318       -1.6300    3.6350   -0.9500 h1        1 X69      0.054367
     36 C11        -0.2880   -2.6460    0.0180 c         1 X69      0.686700
@<TRIPOS>BOND
     1    1    7 1   
     2    1   11 1   
     3    1   22 1   
     4    2   23 1   
     5    2   24 1   
     6    2   36 1   
     7    3   13 ar  
     8    3   14 ar  
     9    4   10 1   
    10    4   19 1   
    11    4   20 1   
    12    5    6 ar  
    13    5   10 ar  
    14    5   25 1   
    15    6    7 ar  
    16    6   36 1   
    17    7    8 ar  
    18    8    9 ar  
    19    8   26 1   
    20    9   10 ar  
    21    9   21 1   
    22   11   12 1   
    23   11   27 1   
    24   11   28 1   
    25   12   13 ar  
    26   12   16 ar  
    27   13   29 1   
    28   14   15 ar  
    29   14   30 1   
    30   15   16 ar  
    31   15   31 1   
    32   16   32 1   
    33   17   21 1   
    34   17   33 1   
    35   17   34 1   
    36   17   35 1   
    37   18   36 2   
@<TRIPOS>SUBSTRUCTURE
     1 X69         1 TEMP              0 ****  ****    0 ROOT
