@<TRIPOS>MOLECULE
X6A
   34    34     1     0     0
SMALL
bcc


@<TRIPOS>ATOM
      1 N01         0.2960    0.6950   -1.6970 nu        1 X6A     -0.448400
      2 N02         0.5610   -0.5010    1.9410 nz        1 X6A     -0.781400
      3 N03        -3.9880    0.4280    2.0670 nb        1 X6A     -0.741000
      4 N04        -2.0340    0.3330    0.5910 nb        1 X6A     -0.741000
      5 C07         3.2890   -0.1860    0.3720 ca        1 X6A     -0.017000
      6 C08         2.0050    0.2250    0.0180 ca        1 X6A     -0.236600
      7 C09         1.6290    0.3270   -1.3460 ca        1 X6A      0.145600
      8 C10         2.5850    0.0220   -2.3280 ca        1 X6A     -0.152000
      9 C11         3.8810   -0.3850   -1.9830 ca        1 X6A      0.125400
     10 C12         4.2220   -0.5150   -0.6200 ca        1 X6A     -0.184200
     11 C14        -0.4210    0.2730   -2.7010 c1        1 X6A     -0.053500
     12 C15        -4.2650    0.0480   -0.3020 ca        1 X6A     -0.340600
     13 C16        -4.7760    0.1970    1.0010 ca        1 X6A      0.453200
     14 C17        -2.6330    0.5000    1.8260 ca        1 X6A      0.771900
     15 C18        -2.8690    0.1260   -0.4480 ca        1 X6A      0.453200
     16 O19         0.6010    1.7270    1.3060 o         1 X6A     -0.396100
     17 O20         6.0020   -0.4860    0.8420 o         1 X6A     -0.162000
     18 O21         6.1300   -1.8480   -0.7640 o         1 X6A     -0.162000
     19 Cl22        4.9770   -0.6650   -3.2230 cl        1 X6A      0.045600
     20 HN01       -0.1260    1.3580   -1.0680 hn        1 X6A      0.473800
     21 H102        1.3120   -0.8420    2.5410 hn        1 X6A      0.477800
     22 H202       -0.2570   -0.1500    2.5360 hn        1 X6A      0.477800
     23 H106       -2.2010    0.5470    3.8170 hn        1 X6A      0.412300
     24 H206       -1.4470    1.7070    2.9240 hn        1 X6A      0.412300
     25 H07         3.5920   -0.2300    1.4360 ha        1 X6A      0.177000
     26 H10         2.3230    0.1170   -3.3990 ha        1 X6A      0.192000
     27 H114       -4.9230   -0.1170   -1.1650 ha        1 X6A      0.184000
     28 H214        0.0240   -0.4260   -3.4340 ha        1 X6A      0.024500
     29 H16        -5.8630    0.1400    1.2110 h4        1 X6A      0.064600
     30 H18        -2.3900    0.0350   -1.4500 h4        1 X6A      0.064600
     31 H023        0.2270   -1.2670    1.3510 hn        1 X6A      0.477800
     32 C13         1.0520    0.6170    1.0690 c         1 X6A      0.585700
     33 N05         5.5700   -0.9820   -0.1610 no        1 X6A      0.319200
     34 N06        -1.7430    0.7440    2.9430 nv        1 X6A     -0.923500
@<TRIPOS>BOND
     1    1    7 1   
     2    1   11 3   
     3    1   20 1   
     4    2   21 1   
     5    2   22 1   
     6    2   31 1   
     7    2   32 1   
     8    3   13 ar  
     9    3   14 ar  
    10    4   14 ar  
    11    4   15 ar  
    12    5    6 ar  
    13    5   10 ar  
    14    5   25 1   
    15    6    7 ar  
    16    6   32 1   
    17    7    8 ar  
    18    8    9 ar  
    19    8   26 1   
    20    9   10 ar  
    21    9   19 1   
    22   10   33 1   
    23   11   28 1   
    24   12   13 ar  
    25   12   15 ar  
    26   12   27 1   
    27   13   29 1   
    28   14   34 1   
    29   15   30 1   
    30   16   32 2   
    31   17   33 1   
    32   18   33 1   
    33   23   34 1   
    34   24   34 1   
@<TRIPOS>SUBSTRUCTURE
     1 X6A         1 TEMP              0 ****  ****    0 ROOT
