@<TRIPOS>MOLECULE
X6A
   33    28     1     0     0
SMALL
bcc


@<TRIPOS>ATOM
      1 N01        -0.1720    0.1340    0.3260 n3        1 X6A     -0.294000
      2 N02         3.0460    0.3160    3.1250 n         1 X6A     -0.422000
      3 N03        -4.4780   -0.3180   -1.3820 n1        1 X6A     -0.227000
      4 N04        -4.5050    0.0990    0.9650 n1        1 X6A     -0.223000
      5 N05         5.1660    0.2910   -1.5230 n2        1 X6A      0.471400
      6 N06        -6.5970    0.2900   -0.3030 n3        1 X6A     -0.335000
      7 C07         3.5580    0.3000    0.2730 c1        1 X6A      0.004000
      8 C08         2.2370    0.2560    0.7430 c1        1 X6A     -0.213000
      9 C09         1.1820    0.1580   -0.1550 c1        1 X6A      0.198000
     10 C10         1.4350    0.1050   -1.5150 c1        1 X6A     -0.229000
     11 C11         2.7550    0.1490   -1.9830 c1        1 X6A      0.055000
     12 C12         3.8100    0.2470   -1.0810 c1        1 X6A     -0.198000
     13 C13         1.9640    0.3490    2.1990 c2        1 X6A      0.358000
     14 C14        -1.0370   -0.9710   -0.0080 c3        1 X6A      0.026000
     15 C15        -2.4820   -0.4730   -0.1170 c2        1 X6A     -0.307000
     16 C16        -3.1470   -0.5590   -1.3240 c2        1 X6A      0.021000
     17 C17        -5.1670    0.0130   -0.2390 c1        1 X6A      0.169000
     18 C18        -3.1750   -0.1420    1.0260 c1        1 X6A      0.025000
     19 O19         0.7940    0.3120    2.6120 o         1 X6A     -0.395000
     20 O20         5.4160    0.2530   -2.7020 o         1 X6A     -0.299200
     21 O21         6.1800    0.3490   -0.6120 o         1 X6A     -0.299200
     22 CL22        3.0730    0.1180   -3.6850 cl        1 X6A      0.046000
     23 HN01       -0.4960    0.8340    0.7980 hn        1 X6A      0.252000
     24 H102        2.8810    0.3180    4.0180 hn        1 X6A      0.233500
     25 H202        3.9030    0.2730    2.8220 hn        1 X6A      0.233500
     26 H106       -7.0230    0.2800   -1.0990 hn        1 X6A      0.238000
     27 H206       -7.0590    0.5300    0.4680 hn        1 X6A      0.238000
     28 H07         4.3010    0.3690    0.9070 ha        1 X6A      0.168000
     29 H10         0.7000    0.0350   -2.1420 ha        1 X6A      0.162000
     30 H114       -0.9770   -1.6760    0.7160 h1        1 X6A      0.105000
     31 H214       -0.7560   -1.3590   -0.8700 h1        1 X6A      0.105000
     32 H16        -2.6390   -0.8040   -2.1670 h4        1 X6A      0.161000
     33 H18        -2.6910   -0.0770    1.9080 ha        1 X6A      0.170000
@<TRIPOS>BOND
     1    1    9 1   
     2    1   14 1   
     3    1   23 1   
     4    2   13 1   
     5    2   24 1   
     6    2   25 1   
     7    3   16 1   
     8    4   17 1   
     9    5   20 2   
    10    5   21 2   
    11    6   17 1   
    12    6   26 1   
    13    6   27 1   
    14    7    8 1   
    15    7   28 1   
    16    8   13 1   
    17    9   10 1   
    18   10   29 1   
    19   11   12 1   
    20   11   22 1   
    21   13   19 1   
    22   14   15 1   
    23   14   30 1   
    24   14   31 1   
    25   15   16 1   
    26   15   18 1   
    27   16   32 1   
    28   18   33 1   
@<TRIPOS>SUBSTRUCTURE
     1 X6A         1 TEMP              0 ****  ****    0 ROOT
