@<TRIPOS>MOLECULE
X6A
   33    33     1     0     0
SMALL
bcc


@<TRIPOS>ATOM
      1 N01        -0.1250   -0.6680   -0.3460 n3        1 X6A     -0.228000
      2 N02         2.5540    1.2820    2.2510 n         1 X6A     -0.372000
      3 N03        -3.1870    1.0690    1.8680 n2        1 X6A      0.084000
      4 N04        -3.9740   -0.2410    0.0140 n2        1 X6A     -0.012000
      5 N05         5.3080    0.5010   -1.5500 no        1 X6A      0.595000
      6 N06        -5.3560    1.5360    1.0330 n3        1 X6A     -0.239000
      7 C07         3.2270    1.0160   -0.3630 c1        1 X6A     -0.202000
      8 C08         1.8030    0.8650   -0.0830 c3        1 X6A     -0.112000
      9 C09         1.1390   -0.3720   -0.6730 c2        1 X6A      0.187000
     10 C10         1.8780   -1.1320   -1.6180 c2        1 X6A     -0.350000
     11 C11         3.2040   -0.8480   -1.9210 c2        1 X6A      0.161000
     12 C12         3.8710    0.2240   -1.2700 c2        1 X6A     -0.253000
     13 C14        -0.8700   -1.7980   -0.8760 c3        1 X6A      0.008000
     14 C15        -2.1470   -2.0210   -0.1360 c2        1 X6A     -0.227000
     15 C16        -2.3160    1.3580    2.5890 c1        1 X6A     -0.088000
     16 C17        -4.1270    0.8170    0.9180 c2        1 X6A     -0.204000
     17 C18        -3.0560   -1.0840    0.0040 c1        1 X6A     -0.107000
     18 O19         0.3290    1.0400    1.8410 o         1 X6A     -0.477000
     19 O20         5.6240    0.8800   -2.6460 o         1 X6A     -0.359000
     20 O21         6.1120    0.3420   -0.6740 o         1 X6A     -0.359000
     21 CL22        3.9950   -1.8390   -3.0350 cl        1 X6A      0.051000
     22 HN01       -0.5840   -0.1190    0.3630 hn        1 X6A      0.276000
     23 H102        3.4740    1.3970    1.8800 hn        1 X6A      0.253500
     24 H202        2.3820    1.4770    3.2070 hn        1 X6A      0.253500
     25 H106       -6.1300    0.9050    1.1230 hn        1 X6A      0.161000
     26 H206       -5.4780    2.1070    0.2170 hn        1 X6A      0.161000
     27 H07         1.3190    1.7620   -0.6030 hc        1 X6A      0.194000
     28 H10         1.3940   -1.9850   -2.1210 ha        1 X6A      0.161000
     29 H114       -0.2320   -2.7260   -0.8020 h1        1 X6A      0.109000
     30 H214       -1.0770   -1.6030   -1.9700 h1        1 X6A      0.109000
     31 H16        -1.4430    1.6660    3.1300 ha        1 X6A      0.320000
     32 H18        -2.2990   -3.0260    0.2840 ha        1 X6A      0.161000
     33 C13         1.5130    1.0600    1.4110 c2        1 X6A      0.345000
@<TRIPOS>BOND
     1    1    9 1   
     2    1   13 1   
     3    1   22 1   
     4    2   23 1   
     5    2   24 1   
     6    2   33 1   
     7    3   15 1   
     8    3   16 1   
     9    4   16 1   
    10    4   17 1   
    11    5   12 1   
    12    5   19 1   
    13    5   20 1   
    14    6   16 1   
    15    6   25 1   
    16    6   26 1   
    17    7    8 1   
    18    7   12 1   
    19    8    9 1   
    20    8   27 1   
    21    8   33 1   
    22    9   10 1   
    23   10   11 1   
    24   10   28 1   
    25   11   12 1   
    26   11   21 1   
    27   13   14 1   
    28   13   29 1   
    29   13   30 1   
    30   14   17 1   
    31   14   32 1   
    32   15   31 1   
    33   18   33 1   
@<TRIPOS>SUBSTRUCTURE
     1 X6A         1 TEMP              0 ****  ****    0 ROOT
