@<TRIPOS>MOLECULE
X6A
   34    35     1     0     0
SMALL
bcc


@<TRIPOS>ATOM
      1 N01         0.0280    0.0680   -0.0240 nh        1 X6A     -0.703600
      2 N02         3.4490    0.0800    2.7750 n4        1 X6A     -0.758400
      3 N03        -4.2180    1.3200    0.8970 nb        1 X6A     -0.752500
      4 N04        -4.2570   -1.1500    0.6890 nb        1 X6A     -0.752500
      5 C07         3.7340   -0.1360   -0.0830 ca        1 X6A      0.011000
      6 C08         2.4320   -0.0370    0.4570 ca        1 X6A     -0.331600
      7 C09         1.3080    0.0640   -0.4470 ca        1 X6A      0.331600
      8 C10         1.6080    0.1750   -1.8520 ca        1 X6A     -0.233000
      9 C11         2.8890    0.1150   -2.3480 ca        1 X6A      0.155400
     10 C12         3.9790   -0.0850   -1.4420 ca        1 X6A     -0.224200
     11 C14        -1.1170    0.1800   -0.9200 c3        1 X6A      0.280100
     12 C15        -2.4010    0.1390   -0.1820 ca        1 X6A     -0.491900
     13 C16        -3.0440    1.3150    0.2660 ca        1 X6A      0.510700
     14 C17        -4.8190    0.0680    1.1050 ca        1 X6A      0.918900
     15 C18        -3.0820   -1.0760    0.0650 ca        1 X6A      0.510700
     16 O19         1.1870   -0.0990    2.5440 o         1 X6A     -0.483100
     17 O20         6.2430    0.1510   -1.1300 o         1 X6A     -0.175000
     18 O21         5.6450   -0.7450   -2.9410 o         1 X6A     -0.175000
     19 CL22        3.1270    0.3150   -3.9990 cl        1 X6A      0.036600
     20 HN01       -0.1860   -0.0150    0.9510 hn        1 X6A      0.472800
     21 H102        4.0080    0.8930    2.5030 hn        1 X6A      0.467800
     22 H202        3.1430    0.1870    3.7510 hn        1 X6A      0.467800
     23 H106       -6.4930   -0.8330    1.8850 hn        1 X6A      0.462800
     24 H206       -6.4670    0.8760    2.0290 hn        1 X6A      0.462800
     25 H07         4.6090   -0.2710    0.5800 ha        1 X6A      0.148000
     26 H10         0.7730    0.3190   -2.5630 ha        1 X6A      0.185000
     27 H114       -1.0720   -0.6700   -1.6630 h1        1 X6A      0.072200
     28 H214       -1.0310    1.1540   -1.4870 h1        1 X6A      0.072200
     29 H16        -2.5910    2.3120    0.1010 h4        1 X6A      0.030100
     30 H18        -2.6580   -2.0450   -0.2660 h4        1 X6A      0.030100
     31 H023        4.0250   -0.7620    2.6980 hn        1 X6A      0.467800
     32 C13         2.2200   -0.0390    1.8780 c         1 X6A      0.585700
     33 N05         5.3950   -0.2310   -1.8940 no        1 X6A      0.325200
     34 N06        -6.0200    0.0300    1.7660 nh        1 X6A     -0.926500
@<TRIPOS>BOND
     1    1    7 1   
     2    1   11 1   
     3    1   20 1   
     4    2   21 1   
     5    2   22 1   
     6    2   31 1   
     7    2   32 1   
     8    3   13 ar  
     9    3   14 ar  
    10    4   14 ar  
    11    4   15 ar  
    12    5    6 ar  
    13    5   10 ar  
    14    5   25 1   
    15    6    7 ar  
    16    6   32 1   
    17    7    8 ar  
    18    8    9 ar  
    19    8   26 1   
    20    9   10 ar  
    21    9   19 1   
    22   10   33 1   
    23   11   12 1   
    24   11   27 1   
    25   11   28 1   
    26   12   13 ar  
    27   12   15 ar  
    28   13   29 1   
    29   14   34 1   
    30   15   30 1   
    31   16   32 2   
    32   17   33 1   
    33   18   33 1   
    34   23   34 1   
    35   24   34 1   
@<TRIPOS>SUBSTRUCTURE
     1 X6A         1 TEMP              0 ****  ****    0 ROOT
