@<TRIPOS>MOLECULE
X6A
   33    34     1     0     0
SMALL
bcc


@<TRIPOS>ATOM
      1 N01         0.9040   -0.1680   -0.1290 nh        1 X6A     -0.749600
      2 N02        -1.0710   -3.7350   -0.3570 n         1 X6A     -0.663000
      3 N03         5.2600    0.3520   -1.2270 nb        1 X6A     -0.756500
      4 N04         5.1540    0.5130    1.2380 nb        1 X6A     -0.756500
      5 N05        -4.7740   -0.1020    0.2350 no        1 X6A      0.326200
      6 N06         7.2260    0.1860    0.1090 nh        1 X6A     -0.942500
      7 C07        -2.6040   -1.2830    0.2210 ca        1 X6A      0.011000
      8 C08        -1.2200   -1.3370    0.1420 ca        1 X6A     -0.242600
      9 C09        -0.4610   -0.1370   -0.0440 ca        1 X6A      0.289600
     10 C10        -1.1850    1.0800   -0.1970 ca        1 X6A     -0.246000
     11 C11        -2.5710    1.1190   -0.1290 ca        1 X6A      0.139400
     12 C12        -3.2970   -0.0660    0.1080 ca        1 X6A     -0.253200
     13 C14         1.6950    1.0410   -0.1850 c3        1 X6A      0.283100
     14 C15         3.1560    0.7710   -0.1040 ca        1 X6A     -0.435900
     15 C16         3.9410    0.5680   -1.2590 ca        1 X6A      0.497200
     16 C17         5.8540    0.3410    0.0400 ca        1 X6A      0.896900
     17 C18         3.8380    0.7220    1.1300 ca        1 X6A      0.497200
     18 O19         0.5170   -2.7900    0.9560 o         1 X6A     -0.631100
     19 O20        -5.3440   -1.0860   -0.1640 o         1 X6A     -0.205500
     20 O21        -5.3650    0.8030    0.7540 o         1 X6A     -0.205500
     21 CL22       -3.3280    2.6130   -0.3770 cl        1 X6A     -0.034400
     22 HN01        1.3760   -1.0100    0.1360 hn        1 X6A      0.470800
     23 H102       -1.8840   -3.6530   -0.9120 hn        1 X6A      0.319500
     24 H202       -0.6380   -4.6200   -0.2630 hn        1 X6A      0.319500
     25 H106        7.6480    0.0400    0.9930 hn        1 X6A      0.447300
     26 H206        7.7220   -0.0710   -0.7090 hn        1 X6A      0.447300
     27 H07        -3.1850   -2.2090    0.3910 ha        1 X6A      0.168000
     28 H10        -0.6390    2.0210   -0.3780 ha        1 X6A      0.161000
     29 H114        1.4650    1.5700   -1.1580 h1        1 X6A      0.051700
     30 H214        1.3980    1.7320    0.6590 h1        1 X6A      0.051700
     31 H16         3.4840    0.5780   -2.2670 h4        1 X6A      0.031100
     32 H18         3.2970    0.8580    2.0860 h4        1 X6A      0.031100
     33 C13        -0.5310   -2.6510    0.2850 c         1 X6A      0.683700
@<TRIPOS>BOND
     1    1    9 1   
     2    1   13 1   
     3    1   22 1   
     4    2   23 1   
     5    2   24 1   
     6    2   33 1   
     7    3   15 ar  
     8    3   16 ar  
     9    4   16 ar  
    10    4   17 ar  
    11    5   12 1   
    12    5   19 1   
    13    5   20 1   
    14    6   16 1   
    15    6   25 1   
    16    6   26 1   
    17    7    8 ar  
    18    7   12 ar  
    19    7   27 1   
    20    8    9 ar  
    21    8   33 1   
    22    9   10 ar  
    23   10   11 ar  
    24   10   28 1   
    25   11   12 ar  
    26   11   21 1   
    27   13   14 1   
    28   13   29 1   
    29   13   30 1   
    30   14   15 ar  
    31   14   17 ar  
    32   15   31 1   
    33   17   32 1   
    34   18   33 2   
@<TRIPOS>SUBSTRUCTURE
     1 X6A         1 TEMP              0 ****  ****    0 ROOT
