@<TRIPOS>MOLECULE
X6B
   42    44     1     0     0
SMALL
bcc


@<TRIPOS>ATOM
      1 N01         0.2910   -0.9330   -0.8140 nc        1 X6B     -0.704000
      2 N02        -1.6940   -0.8930    0.6020 nu        1 X6B     -0.685300
      3 N03         3.6920   -0.0660    2.4380 ns        1 X6B     -0.465100
      4 N04         2.5330   -0.8190   -1.7240 nv        1 X6B     -0.919500
      5 N05        -6.4490    2.6790   -1.8800 nz        1 X6B     -0.780500
      6 C06         2.0840   -0.5890    0.7000 cd        1 X6B     -0.392000
      7 C07         1.6890   -0.8000   -0.6530 cc        1 X6B      0.700200
      8 C08        -0.3050   -0.7970    0.3860 cd        1 X6B      0.588300
      9 C09        -2.6500   -0.4130   -0.2540 ca        1 X6B      0.319600
     10 C10         3.4840   -0.4980    1.1340 c         1 X6B      0.735700
     11 C11        -4.0110   -0.8380   -0.0900 ca        1 X6B     -0.213000
     12 C12        -5.0010   -0.3390   -0.8940 ca        1 X6B      0.051500
     13 C13        -4.7440    0.6180   -1.9130 ca        1 X6B     -0.652500
     14 C14        -3.3930    1.0400   -2.0570 ca        1 X6B      0.051500
     15 C15        -2.3810    0.5590   -1.2680 ca        1 X6B     -0.213000
     16 C16         4.9370    0.1070    3.0730 ca        1 X6B      0.082600
     17 C17         4.9870    0.9050    4.2430 ca        1 X6B     -0.196000
     18 C18         6.1870    1.0770    4.9230 ca        1 X6B     -0.078000
     19 C19         7.3610    0.4800    4.4740 ca        1 X6B     -0.182000
     20 C20         7.3170   -0.3120    3.3140 ca        1 X6B      0.155900
     21 C21         6.1150   -0.5060    2.6100 ca        1 X6B     -0.185000
     22 O22         4.4230   -0.8120    0.3740 o         1 X6B     -0.599100
     23 O23        -7.0490    0.3940   -2.8650 o         1 X6B     -0.578800
     24 O24        -5.4440    1.7450   -4.0400 o         1 X6B     -0.578800
     25 F25         8.4480   -0.9030    2.8610 f         1 X6B     -0.130900
     26 S26         0.7520   -0.5190    1.7110 ss        1 X6B      0.001700
     27 S27        -5.8670    1.1030   -2.8950 sy        1 X6B      1.516200
     28 HN02       -1.9660   -1.6160    1.2420 hn        1 X6B      0.468800
     29 HN03        2.9100    0.2930    2.9400 hn        1 X6B      0.311500
     30 HN04        2.2000   -1.1390   -2.6030 hn        1 X6B      0.462300
     31 HN0A        3.5120   -0.8750   -1.5340 hn        1 X6B      0.462300
     32 HN05       -7.4320    2.5940   -1.6380 hn        1 X6B      0.446800
     33 HN0B       -6.3350    3.5170   -2.4430 hn        1 X6B      0.446800
     34 H11        -4.2640   -1.5870    0.6790 ha        1 X6B      0.178000
     35 H12        -6.0380   -0.7080   -0.7670 ha        1 X6B      0.166000
     36 H14        -3.1510    1.7710   -2.8540 ha        1 X6B      0.166000
     37 H15        -1.3520    0.9230   -1.4310 ha        1 X6B      0.178000
     38 H17         4.0800    1.3950    4.6270 ha        1 X6B      0.131000
     39 H18         6.2090    1.7000    5.8310 ha        1 X6B      0.144000
     40 H19         8.3100    0.6190    5.0100 ha        1 X6B      0.158000
     41 H21         6.1250   -1.1320    1.7030 ha        1 X6B      0.184000
     42 H053       -5.9190    2.7970   -1.0250 hn        1 X6B      0.446800
@<TRIPOS>BOND
     1    1    7 1   
     2    1    8 2   
     3    2    8 1   
     4    2    9 1   
     5    2   28 1   
     6    3   10 1   
     7    3   16 1   
     8    3   29 1   
     9    4    7 1   
    10    4   30 1   
    11    4   31 1   
    12    5   27 1   
    13    5   32 1   
    14    5   33 1   
    15    5   42 1   
    16    6    7 2   
    17    6   10 1   
    18    6   26 1   
    19    8   26 1   
    20    9   11 ar  
    21    9   15 ar  
    22   10   22 2   
    23   11   12 ar  
    24   11   34 1   
    25   12   13 ar  
    26   12   35 1   
    27   13   14 ar  
    28   13   27 1   
    29   14   15 ar  
    30   14   36 1   
    31   15   37 1   
    32   16   17 ar  
    33   16   21 ar  
    34   17   18 ar  
    35   17   38 1   
    36   18   19 ar  
    37   18   39 1   
    38   19   20 ar  
    39   19   40 1   
    40   20   21 ar  
    41   20   25 1   
    42   21   41 1   
    43   23   27 2   
    44   24   27 2   
@<TRIPOS>SUBSTRUCTURE
     1 X6B         1 TEMP              0 ****  ****    0 ROOT
