@<TRIPOS>MOLECULE
X6B
   41    38     1     0     0
SMALL
bcc


@<TRIPOS>ATOM
      1 N01        -0.1560    0.0120   -2.2180 n2        1 X6B     -0.215000
      2 N02        -1.8390   -0.3920   -0.4940 n3        1 X6B     -0.232000
      3 N03         3.6330   -0.1580    0.9650 n3        1 X6B     -0.325000
      4 N04         2.2180   -0.2740   -3.3840 n3        1 X6B     -0.330000
      5 N05        -8.1380    1.6740    0.4420 n3        1 X6B     -0.954000
      6 C06         1.8800   -0.0500   -0.8690 c1        1 X6B     -0.592000
      7 C07         1.4080   -0.1170   -2.2310 c2        1 X6B      0.209000
      8 C08        -0.5850    0.1540   -0.8640 c2        1 X6B     -0.062000
      9 C09        -2.9850    0.4390   -0.4370 c2        1 X6B      0.121000
     10 C10         3.3090   -0.2480   -0.4140 c1        1 X6B      0.421000
     11 C11        -3.7050    0.6910   -1.5940 c1        1 X6B     -0.158000
     12 C12        -5.0910    0.6910   -1.5620 c1        1 X6B      0.004000
     13 C13        -5.7560    0.4390   -0.3720 c1        1 X6B     -0.852000
     14 C14        -5.0360    0.1870    0.7850 c1        1 X6B      0.007000
     15 C15        -3.6500    0.1870    0.7520 c2        1 X6B     -0.205000
     16 C16         4.9720   -0.3490    1.3920 c2        1 X6B      0.111000
     17 C17         5.7450    0.7410    1.7600 c2        1 X6B     -0.205000
     18 C18         7.0430    0.5520    2.2070 c1        1 X6B     -0.079000
     19 C19         7.5690   -0.7280    2.2850 c1        1 X6B     -0.197000
     20 C20         6.7960   -1.8190    1.9170 c1        1 X6B      0.117000
     21 C21         5.4980   -1.6290    1.4700 c2        1 X6B     -0.195000
     22 O22         4.1780   -0.4890   -1.2270 o         1 X6B     -0.387000
     23 O23        -7.9910   -0.8590    0.2410 o         1 X6B     -0.938000
     24 O24        -8.0640    0.2620   -1.6740 o         1 X6B     -0.938000
     25 F25         7.3030   -3.0550    1.9960 f         1 X6B     -0.105000
     26 S26         0.6670    0.1220    0.0370 ss        1 X6B      0.428000
     27 S27        -7.5270    0.3670   -0.3460 s6        1 X6B      2.870000
     28 HN02       -1.9090   -1.2800   -0.2950 hn        1 X6B      0.236000
     29 HN03        2.9870    0.0590    1.5710 hn        1 X6B      0.228000
     30 HN04        1.8320   -0.3150   -4.2110 hn        1 X6B      0.256000
     31 HN0A        3.1260   -0.3390   -3.2990 hn        1 X6B      0.256000
     32 HN05       -8.1910    2.4810    0.0150 hn        1 X6B      0.242500
     33 HN0B       -8.4570    1.5860    1.2940 hn        1 X6B      0.242500
     34 H11        -3.2370    0.8680   -2.4320 ha        1 X6B      0.165000
     35 H12        -5.5980    0.8680   -2.3760 ha        1 X6B      0.156000
     36 H14        -5.5040    0.0100    1.6230 ha        1 X6B      0.157000
     37 H15        -3.1430    0.0090    1.5670 ha        1 X6B      0.139000
     38 H17         5.3740    1.6420    1.7050 ha        1 X6B      0.131000
     39 H18         7.5870    1.3200    2.4660 ha        1 X6B      0.136000
     40 H19         8.4830   -0.8620    2.5990 ha        1 X6B      0.149000
     41 H21         4.9530   -2.3980    1.2110 ha        1 X6B      0.187000
@<TRIPOS>BOND
     1    1    7 1   
     2    1    8 1   
     3    2    8 1   
     4    2    9 1   
     5    2   28 1   
     6    3   10 1   
     7    3   16 1   
     8    3   29 1   
     9    4    7 1   
    10    4   30 1   
    11    4   31 1   
    12    5   27 1   
    13    5   32 1   
    14    5   33 1   
    15    6    7 1   
    16    6   26 1   
    17    8   26 1   
    18    9   11 1   
    19    9   15 1   
    20   10   22 1   
    21   11   34 1   
    22   12   13 1   
    23   12   35 1   
    24   13   27 1   
    25   14   15 1   
    26   14   36 1   
    27   15   37 1   
    28   16   17 1   
    29   16   21 1   
    30   17   18 1   
    31   17   38 1   
    32   18   39 1   
    33   19   20 1   
    34   19   40 1   
    35   20   21 1   
    36   21   41 1   
    37   23   27 1   
    38   24   27 1   
@<TRIPOS>SUBSTRUCTURE
     1 X6B         1 TEMP              0 ****  ****    0 ROOT
