@<TRIPOS>MOLECULE
X6B
   45    47     1     0     0
SMALL
bcc


@<TRIPOS>ATOM
      1 N01         0.9010   -0.1210   -0.8690 nc        1 X6B     -0.570000
      2 N02        -0.3130    1.3470    0.6790 n4        1 X6B     -0.602100
      3 N03         4.6390   -1.9260    1.7930 n4        1 X6B     -0.531200
      4 N04         2.3970   -1.6050   -2.1380 n4        1 X6B     -0.810300
      5 N05        -6.6680    1.8470   -1.4730 n4        1 X6B     -0.814500
      6 C06         2.7420   -1.0060    0.3340 cd        1 X6B     -0.316000
      7 C07         2.0230   -0.9210   -0.9010 cc        1 X6B      0.503200
      8 C08         0.7740    0.4070    0.3840 cd        1 X6B      0.367300
      9 C09        -1.6130    1.1000    0.0130 ca        1 X6B      0.030600
     10 C10         3.9690   -1.7940    0.4560 c         1 X6B      0.585700
     11 C11        -2.6130    0.3760    0.6860 ca        1 X6B     -0.112000
     12 C12        -3.8660    0.2320    0.0860 ca        1 X6B      0.028500
     13 C13        -4.1460    0.7860   -1.1730 ca        1 X6B     -0.403500
     14 C14        -3.1300    1.5020   -1.8240 ca        1 X6B      0.028500
     15 C15        -1.8660    1.6630   -1.2490 ca        1 X6B     -0.112000
     16 C16         4.5000   -0.7400    2.6450 ca        1 X6B     -0.021400
     17 C17         3.2890   -0.5610    3.3750 ca        1 X6B     -0.296000
     18 C18         3.2280    0.5030    4.2900 ca        1 X6B     -0.016000
     19 C19         4.2850    1.3950    4.4480 ca        1 X6B     -0.129000
     20 C20         5.4650    1.2220    3.6950 ca        1 X6B      0.266900
     21 C21         5.5710    0.1400    2.7720 ca        1 X6B     -0.142000
     22 O22         4.5130   -2.3750   -0.4780 o         1 X6B     -0.395100
     23 O23        -6.2070   -0.6350   -1.3530 o         1 X6B     -0.511300
     24 O24        -5.4400    0.6290   -3.3170 o         1 X6B     -0.511300
     25 F25         6.5000    2.0540    3.8390 f         1 X6B     -0.023900
     26 S26         1.9940   -0.0750    1.4840 ss        1 X6B      0.413700
     27 S27        -5.5860    0.4240   -1.9670 sy        1 X6B      1.438200
     28 HN02        0.0050    2.2960    0.3940 hn        1 X6B      0.493800
     29 HN03        4.2450   -2.7500    2.2890 hn        1 X6B      0.515300
     30 HN04        2.0420   -2.5780   -2.1190 hn        1 X6B      0.511133
     31 HN0A        3.4300   -1.6280   -2.2300 hn        1 X6B      0.511133
     32 HN05       -7.0000    2.3560   -2.3050 hn        1 X6B      0.486133
     33 HN0B       -7.5120    1.5100   -0.9900 hn        1 X6B      0.486133
     34 H11        -2.4470   -0.0790    1.6790 ha        1 X6B      0.190000
     35 H12        -4.6420   -0.3610    0.6210 ha        1 X6B      0.214500
     36 H14        -3.3090    1.9360   -2.8320 ha        1 X6B      0.214500
     37 H15        -1.0990    2.2350   -1.8040 ha        1 X6B      0.190000
     38 H17         2.5720   -1.3970    3.5090 ha        1 X6B      0.187000
     39 H18         2.3340    0.6090    4.9370 ha        1 X6B      0.199000
     40 H19         4.2320    2.2150    5.1950 ha        1 X6B      0.234000
     41 H21         6.5260    0.0240    2.2200 ha        1 X6B      0.215000
     42 H022       -0.4740    1.3420    1.7000 hn        1 X6B      0.493800
     43 H032        5.6520   -2.1250    1.6320 hn        1 X6B      0.515300
     44 H043        1.9990   -1.1240   -2.9660 hn        1 X6B      0.511133
     45 H053       -6.2360    2.5370   -0.8610 hn        1 X6B      0.486133
@<TRIPOS>BOND
     1    1    7 1   
     2    1    8 2   
     3    2    8 1   
     4    2    9 1   
     5    2   28 1   
     6    2   42 1   
     7    3   10 1   
     8    3   16 1   
     9    3   29 1   
    10    3   43 1   
    11    4    7 1   
    12    4   30 1   
    13    4   31 1   
    14    4   44 1   
    15    5   27 1   
    16    5   32 1   
    17    5   33 1   
    18    5   45 1   
    19    6    7 2   
    20    6   10 1   
    21    6   26 1   
    22    8   26 1   
    23    9   11 ar  
    24    9   15 ar  
    25   10   22 2   
    26   11   12 ar  
    27   11   34 1   
    28   12   13 ar  
    29   12   35 1   
    30   13   14 ar  
    31   13   27 1   
    32   14   15 ar  
    33   14   36 1   
    34   15   37 1   
    35   16   17 ar  
    36   16   21 ar  
    37   17   18 ar  
    38   17   38 1   
    39   18   19 ar  
    40   18   39 1   
    41   19   20 ar  
    42   19   40 1   
    43   20   21 ar  
    44   20   25 1   
    45   21   41 1   
    46   23   27 2   
    47   24   27 2   
@<TRIPOS>SUBSTRUCTURE
     1 X6B         1 TEMP              0 ****  ****    0 ROOT
