@<TRIPOS>MOLECULE
X6B
   41    43     1     0     0
SMALL
bcc


@<TRIPOS>ATOM
      1 N01        -0.4310    0.8730   -0.1400 nc        1 X6B     -0.741000
      2 N02        -1.4740   -1.3350   -0.0960 nh        1 X6B     -0.711300
      3 N03         4.1710   -0.4180    0.1370 n         1 X6B     -0.471100
      4 N04         1.1070    2.7340   -0.0430 nh        1 X6B     -0.932500
      5 N05        -7.7610   -0.6480    1.3100 n3        1 X6B     -1.027700
      6 C06         1.9000    0.3980   -0.0450 cd        1 X6B     -0.408000
      7 C07         0.8850    1.3910   -0.0850 cc        1 X6B      0.730200
      8 C08        -0.3870   -0.4690   -0.1120 cd        1 X6B      0.708300
      9 C09        -2.8180   -0.9150   -0.0890 ca        1 X6B      0.202600
     10 C10         3.3290    0.6830   -0.0380 c         1 X6B      0.747700
     11 C11        -3.7730   -1.6670   -0.8170 ca        1 X6B     -0.181500
     12 C12        -5.1170   -1.3310   -0.7580 ca        1 X6B      0.005500
     13 C13        -5.5660   -0.2510    0.0120 ca        1 X6B     -0.407500
     14 C14        -4.6170    0.4920    0.7220 ca        1 X6B      0.005500
     15 C15        -3.2640    0.1760    0.6880 ca        1 X6B     -0.181500
     16 C16         5.5720   -0.4160    0.1890 ca        1 X6B      0.103600
     17 C17         6.2260   -1.6010    0.6180 ca        1 X6B     -0.205000
     18 C18         7.6130   -1.6620    0.6660 ca        1 X6B     -0.079000
     19 C19         8.3950   -0.5710    0.3000 ca        1 X6B     -0.197000
     20 C20         7.7550    0.6050   -0.1270 ca        1 X6B      0.151900
     21 C21         6.3540    0.6930   -0.1870 ca        1 X6B     -0.195000
     22 O22         3.7820    1.8380   -0.1890 o         1 X6B     -0.626100
     23 O23        -7.8090   -0.3290   -1.1260 o         1 X6B     -0.658800
     24 O24        -7.3020    1.5490    0.3110 o         1 X6B     -0.658800
     25 F25         8.4990    1.6780   -0.4890 f         1 X6B     -0.139900
     26 S26         1.2190   -1.1490   -0.0350 ss        1 X6B     -0.156300
     27 S27        -7.2000    0.1660    0.0480 sy        1 X6B      1.531200
     28 HN02       -1.3070   -2.2020   -0.5670 hn        1 X6B      0.440800
     29 HN03        3.7420   -1.2930    0.3450 hn        1 X6B      0.314500
     30 HN04        0.3590    3.3670   -0.1890 hn        1 X6B      0.460800
     31 HN0A        2.0470    3.0550   -0.1200 hn        1 X6B      0.460800
     32 HN05       -7.7930   -0.2800    2.2270 hn        1 X6B      0.447300
     33 HN0B       -8.1370   -1.5600    1.2500 hn        1 X6B      0.447300
     34 H11        -3.4590   -2.5200   -1.4390 ha        1 X6B      0.152000
     35 H12        -5.8480   -1.9110   -1.3490 ha        1 X6B      0.156500
     36 H14        -4.9500    1.3640    1.3140 ha        1 X6B      0.156500
     37 H15        -2.5570    0.7850    1.2710 ha        1 X6B      0.152000
     38 H17         5.6420   -2.4830    0.9180 ha        1 X6B      0.131000
     39 H18         8.1010   -2.5890    1.0020 ha        1 X6B      0.136000
     40 H19         9.4920   -0.6180    0.3390 ha        1 X6B      0.149000
     41 H21         5.8940    1.6350   -0.5250 ha        1 X6B      0.187000
@<TRIPOS>BOND
     1    1    7 1   
     2    1    8 2   
     3    2    8 1   
     4    2    9 1   
     5    2   28 1   
     6    3   10 1   
     7    3   16 1   
     8    3   29 1   
     9    4    7 1   
    10    4   30 1   
    11    4   31 1   
    12    5   27 1   
    13    5   32 1   
    14    5   33 1   
    15    6    7 2   
    16    6   10 1   
    17    6   26 1   
    18    8   26 1   
    19    9   11 ar  
    20    9   15 ar  
    21   10   22 2   
    22   11   12 ar  
    23   11   34 1   
    24   12   13 ar  
    25   12   35 1   
    26   13   14 ar  
    27   13   27 1   
    28   14   15 ar  
    29   14   36 1   
    30   15   37 1   
    31   16   17 ar  
    32   16   21 ar  
    33   17   18 ar  
    34   17   38 1   
    35   18   19 ar  
    36   18   39 1   
    37   19   20 ar  
    38   19   40 1   
    39   20   21 ar  
    40   20   25 1   
    41   21   41 1   
    42   23   27 2   
    43   24   27 2   
@<TRIPOS>SUBSTRUCTURE
     1 X6B         1 TEMP              0 ****  ****    0 ROOT
