@<TRIPOS>MOLECULE
X6B
   42    44     1     0     0
SMALL
bcc


@<TRIPOS>ATOM
      1 N01         0.2930   -0.9170   -0.8200 nc        1 X6B     -0.704000
      2 N02        -1.6910   -0.8890    0.5980 nh        1 X6B     -0.685300
      3 N03         3.6960   -0.0720    2.4350 n         1 X6B     -0.465100
      4 N04         2.5330   -0.7950   -1.7320 nh        1 X6B     -0.919500
      5 N05        -6.4570    2.6780   -1.8710 n4        1 X6B     -0.780500
      6 C06         2.0870   -0.5820    0.6950 cd        1 X6B     -0.392000
      7 C07         1.6910   -0.7840   -0.6590 cc        1 X6B      0.700200
      8 C08        -0.3030   -0.7910    0.3820 cd        1 X6B      0.588300
      9 C09        -2.6490   -0.4090   -0.2550 ca        1 X6B      0.319600
     10 C10         3.4870   -0.4950    1.1280 c         1 X6B      0.735700
     11 C11        -4.0090   -0.8370   -0.0900 ca        1 X6B     -0.213000
     12 C12        -5.0010   -0.3380   -0.8920 ca        1 X6B      0.051500
     13 C13        -4.7470    0.6210   -1.9100 ca        1 X6B     -0.652500
     14 C14        -3.3970    1.0460   -2.0540 ca        1 X6B      0.051500
     15 C15        -2.3830    0.5660   -1.2670 ca        1 X6B     -0.213000
     16 C16         4.9430    0.0960    3.0700 ca        1 X6B      0.082600
     17 C17         4.9940    0.8850    4.2450 ca        1 X6B     -0.196000
     18 C18         6.1950    1.0530    4.9250 ca        1 X6B     -0.078000
     19 C19         7.3680    0.4570    4.4710 ca        1 X6B     -0.182000
     20 C20         7.3230   -0.3270    3.3060 ca        1 X6B      0.155900
     21 C21         6.1190   -0.5160    2.6020 ca        1 X6B     -0.185000
     22 O22         4.4250   -0.8020    0.3640 o         1 X6B     -0.599100
     23 O23        -7.0530    0.3930   -2.8590 o         1 X6B     -0.578800
     24 O24        -5.4520    1.7510   -4.0330 o         1 X6B     -0.578800
     25 F25         8.4520   -0.9170    2.8480 f         1 X6B     -0.130900
     26 S26         0.7560   -0.5210    1.7080 ss        1 X6B      0.001700
     27 S27        -5.8720    1.1050   -2.8890 sy        1 X6B      1.516200
     28 HN02       -1.9610   -1.6130    1.2380 hn        1 X6B      0.468800
     29 HN03        2.9150    0.2830    2.9400 hn        1 X6B      0.311500
     30 HN04        3.5130   -0.8510   -1.5430 hn        1 X6B      0.462300
     31 HN0A        2.2000   -1.1080   -2.6120 hn        1 X6B      0.462300
     32 HN05       -6.3480    3.5170   -2.4330 hn        1 X6B      0.446800
     33 HN0B       -7.4400    2.5890   -1.6270 hn        1 X6B      0.446800
     34 H11        -4.2590   -1.5890    0.6780 ha        1 X6B      0.178000
     35 H12        -6.0370   -0.7100   -0.7650 ha        1 X6B      0.166000
     36 H14        -3.1590    1.7800   -2.8490 ha        1 X6B      0.166000
     37 H15        -1.3550    0.9330   -1.4310 ha        1 X6B      0.178000
     38 H17         4.0880    1.3740    4.6330 ha        1 X6B      0.131000
     39 H18         6.2180    1.6690    5.8370 ha        1 X6B      0.144000
     40 H19         8.3180    0.5910    5.0070 ha        1 X6B      0.158000
     41 H21         6.1280   -1.1350    1.6910 ha        1 X6B      0.184000
     42 H053       -5.9270    2.7960   -1.0160 hn        1 X6B      0.446800
@<TRIPOS>BOND
     1    1    7 1   
     2    1    8 2   
     3    2    8 1   
     4    2    9 1   
     5    2   28 1   
     6    3   10 1   
     7    3   16 1   
     8    3   29 1   
     9    4    7 1   
    10    4   30 1   
    11    4   31 1   
    12    5   27 1   
    13    5   32 1   
    14    5   33 1   
    15    5   42 1   
    16    6    7 2   
    17    6   10 1   
    18    6   26 1   
    19    8   26 1   
    20    9   11 ar  
    21    9   15 ar  
    22   10   22 2   
    23   11   12 ar  
    24   11   34 1   
    25   12   13 ar  
    26   12   35 1   
    27   13   14 ar  
    28   13   27 1   
    29   14   15 ar  
    30   14   36 1   
    31   15   37 1   
    32   16   17 ar  
    33   16   21 ar  
    34   17   18 ar  
    35   17   38 1   
    36   18   19 ar  
    37   18   39 1   
    38   19   20 ar  
    39   19   40 1   
    40   20   21 ar  
    41   20   25 1   
    42   21   41 1   
    43   23   27 2   
    44   24   27 2   
@<TRIPOS>SUBSTRUCTURE
     1 X6B         1 TEMP              0 ****  ****    0 ROOT
