@<TRIPOS>MOLECULE
X6C
   44    46     1     0     0
SMALL
bcc


@<TRIPOS>ATOM
      1 CAA         1.3050   -0.8060    0.5700 c3        1 X6C     -0.171100
      2 CAQ         2.6230   -0.2030    0.1850 c         1 X6C      0.677100
      3 OAB         3.5170    0.0360    1.0280 o         1 X6C     -0.651100
      4 N           2.8540    0.1830   -1.1410 n         1 X6C     -0.472800
      5 CD2         1.9610   -0.2110   -2.2210 c3        1 X6C      0.037000
      6 CG          2.8180   -0.4510   -3.4910 c3        1 X6C      0.136100
      7 OD1         2.8760   -1.8320   -3.7830 oh        1 X6C     -0.585800
      8 CB          4.2420   -0.0040   -3.1270 c3        1 X6C     -0.096400
      9 CA          4.2130    0.3610   -1.6270 c3        1 X6C      0.038700
     10 C           4.7140    1.8020   -1.4260 c         1 X6C      0.534100
     11 O           5.0850    2.5790   -2.2900 o         1 X6C     -0.416100
     12 NAO         4.7680    2.2620    0.0060 ny        1 X6C     -0.677800
     13 CAK         5.7780    3.3370    0.2850 c3        1 X6C      0.174100
     14 CAS         7.1400    2.7740    0.4990 ca        1 X6C     -0.190300
     15 CAF         8.1290    2.9360   -0.4780 ca        1 X6C     -0.095000
     16 CAH         9.4140    2.4520   -0.2570 ca        1 X6C     -0.113500
     17 CAE         7.4460    2.1230    1.7000 ca        1 X6C     -0.095000
     18 CAG         8.7280    1.6340    1.9240 ca        1 X6C     -0.113500
     19 CAT         9.7260    1.7950    0.9460 ca        1 X6C     -0.052500
     20 CAU        11.0470    1.2900    1.1890 cc        1 X6C      0.155900
     21 OAP        12.0180    1.4520    0.1800 os        1 X6C     -0.380800
     22 CAI        13.1790    0.8750    0.7010 cc        1 X6C      0.519300
     23 NAN        13.0030    0.3810    1.9240 nd        1 X6C     -0.660000
     24 CAJ        11.6670    0.6320    2.2520 cd        1 X6C      0.293900
     25 HAA1        1.2160   -0.7940    1.6860 hc        1 X6C      0.091367
     26 HAA2        1.2650   -1.8680    0.2180 hc        1 X6C      0.091367
     27 HAA3        0.4500   -0.2400    0.1260 hc        1 X6C      0.091367
     28 HD21        1.3980   -1.1500   -1.9610 h1        1 X6C      0.077700
     29 HD22        1.2250    0.6220   -2.3930 h1        1 X6C      0.077700
     30 HA          4.9310   -0.3010   -1.0500 h1        1 X6C      0.112700
     31 HG          2.4120    0.1330   -4.3580 h1        1 X6C      0.076700
     32 HD1         2.1290   -2.0430   -4.3570 ho        1 X6C      0.425000
     33 HB1C        4.5540    0.8620   -3.7610 hc        1 X6C      0.103700
     34 HB2C        4.9630   -0.8470   -3.2950 hc        1 X6C      0.103700
     35 HAO         3.8310    2.5970    0.2580 hn        1 X6C      0.475300
     36 HAK1        5.7690    4.0610   -0.5810 hx        1 X6C      0.112200
     37 HAK2        5.4310    3.8760    1.2160 hx        1 X6C      0.112200
     38 HAF         7.8960    3.4550   -1.4220 ha        1 X6C      0.144000
     39 HAE         6.6780    2.0070    2.4820 ha        1 X6C      0.144000
     40 HAH        10.1980    2.5860   -1.0210 ha        1 X6C      0.164500
     41 HAG         8.9670    1.1250    2.8710 ha        1 X6C      0.164500
     42 HAJ        11.2580    0.3260    3.2170 h4        1 X6C      0.061100
     43 HAI        14.0620    0.9030    0.0560 h5        1 X6C      0.103100
     44 HAO2        4.9720    1.4380    0.6050 hn        1 X6C      0.475300
@<TRIPOS>BOND
     1    1    2 1   
     2    1   25 1   
     3    1   26 1   
     4    1   27 1   
     5    2    3 2   
     6    2    4 1   
     7    4    5 1   
     8    4    9 1   
     9    5    6 1   
    10    5   28 1   
    11    5   29 1   
    12    6    7 1   
    13    6    8 1   
    14    6   31 1   
    15    7   32 1   
    16    8    9 1   
    17    8   33 1   
    18    8   34 1   
    19    9   10 1   
    20    9   30 1   
    21   10   11 2   
    22   10   12 1   
    23   12   13 1   
    24   12   35 1   
    25   12   44 1   
    26   13   14 1   
    27   13   36 1   
    28   13   37 1   
    29   14   15 ar  
    30   14   17 ar  
    31   15   16 ar  
    32   15   38 1   
    33   16   19 ar  
    34   16   40 1   
    35   17   18 ar  
    36   17   39 1   
    37   18   19 ar  
    38   18   41 1   
    39   19   20 1   
    40   20   21 1   
    41   20   24 2   
    42   21   22 1   
    43   22   23 2   
    44   22   43 1   
    45   23   24 1   
    46   24   42 1   
@<TRIPOS>SUBSTRUCTURE
     1 X6C         1 TEMP              0 ****  ****    0 ROOT
