@<TRIPOS>MOLECULE
X6C
   44    46     1     0     0
SMALL
bcc


@<TRIPOS>ATOM
      1 CAA         1.3340   -0.8850    0.5530 c3        1 X6C     -0.171100
      2 CAQ         2.6430   -0.2560    0.1760 c         1 X6C      0.677100
      3 OAB         3.5380   -0.0280    1.0200 o         1 X6C     -0.651100
      4 N           2.8600    0.1670   -1.1400 n         1 X6C     -0.472800
      5 CD2         1.9660   -0.2100   -2.2250 c3        1 X6C      0.037000
      6 CG          2.8190   -0.4070   -3.5060 c3        1 X6C      0.136100
      7 OD1         2.8920   -1.7790   -3.8340 oh        1 X6C     -0.585800
      8 CB          4.2390    0.0480   -3.1390 c3        1 X6C     -0.096400
      9 CA          4.2140    0.3740   -1.6300 c3        1 X6C      0.038700
     10 C           4.6990    1.8150   -1.3940 c         1 X6C      0.534100
     11 O           5.0550    2.6200   -2.2390 o         1 X6C     -0.416100
     12 NAO         4.7560    2.2390    0.0490 n4        1 X6C     -0.677800
     13 CAK         5.7550    3.3180    0.3500 c3        1 X6C      0.174100
     14 CAS         7.1250    2.7660    0.5400 ca        1 X6C     -0.190300
     15 CAF         8.1050    2.9660   -0.4380 ca        1 X6C     -0.095000
     16 CAH         9.3980    2.4920   -0.2370 ca        1 X6C     -0.113500
     17 CAE         7.4470    2.0870    1.7230 ca        1 X6C     -0.095000
     18 CAG         8.7360    1.6080    1.9250 ca        1 X6C     -0.113500
     19 CAT         9.7260    1.8070    0.9460 ca        1 X6C     -0.052500
     20 CAU        11.0540    1.3120    1.1670 cc        1 X6C      0.155900
     21 OAP        12.0160    1.5120    0.1570 os        1 X6C     -0.380800
     22 CAI        13.1880    0.9360    0.6550 cc        1 X6C      0.519300
     23 NAN        13.0250    0.4070    1.8660 nd        1 X6C     -0.660000
     24 CAJ        11.6890    0.6330    2.2090 cd        1 X6C      0.293900
     25 HAA1        0.4690   -0.3190    0.1290 hc        1 X6C      0.091367
     26 HAA2        1.2510   -0.9030    1.6690 hc        1 X6C      0.091367
     27 HAA3        1.3040   -1.9380    0.1740 hc        1 X6C      0.091367
     28 HD21        1.4160   -1.1630   -1.9870 h1        1 X6C      0.077700
     29 HD22        1.2180    0.6170   -2.3720 h1        1 X6C      0.077700
     30 HA          4.9440   -0.2940   -1.0740 h1        1 X6C      0.112700
     31 HG          2.4000    0.1940   -4.3550 h1        1 X6C      0.076700
     32 HD1         2.1430   -1.9840   -4.4090 ho        1 X6C      0.425000
     33 HB1C        4.9690   -0.7810   -3.3320 hc        1 X6C      0.103700
     34 HB2C        4.5360    0.9340   -3.7520 hc        1 X6C      0.103700
     35 HAO         4.9730    1.4020    0.6250 hn        1 X6C      0.475300
     36 HAK1        5.4080    3.8280    1.2970 hx        1 X6C      0.112200
     37 HAK2        5.7320    4.0650   -0.4960 hx        1 X6C      0.112200
     38 HAF         7.8610    3.5070   -1.3660 ha        1 X6C      0.144000
     39 HAE         6.6850    1.9420    2.5050 ha        1 X6C      0.144000
     40 HAH        10.1750    2.6560   -1.0020 ha        1 X6C      0.164500
     41 HAG         8.9870    1.0780    2.8570 ha        1 X6C      0.164500
     42 HAJ        11.2890    0.2980    3.1670 h4        1 X6C      0.061100
     43 HAI        14.0660    0.9920    0.0060 h5        1 X6C      0.103100
     44 HAO2        3.8170    2.5560    0.3160 hn        1 X6C      0.475300
@<TRIPOS>BOND
     1    1    2 1   
     2    1   25 1   
     3    1   26 1   
     4    1   27 1   
     5    2    3 2   
     6    2    4 1   
     7    4    5 1   
     8    4    9 1   
     9    5    6 1   
    10    5   28 1   
    11    5   29 1   
    12    6    7 1   
    13    6    8 1   
    14    6   31 1   
    15    7   32 1   
    16    8    9 1   
    17    8   33 1   
    18    8   34 1   
    19    9   10 1   
    20    9   30 1   
    21   10   11 2   
    22   10   12 1   
    23   12   13 1   
    24   12   35 1   
    25   12   44 1   
    26   13   14 1   
    27   13   36 1   
    28   13   37 1   
    29   14   15 ar  
    30   14   17 ar  
    31   15   16 ar  
    32   15   38 1   
    33   16   19 ar  
    34   16   40 1   
    35   17   18 ar  
    36   17   39 1   
    37   18   19 ar  
    38   18   41 1   
    39   19   20 1   
    40   20   21 1   
    41   20   24 2   
    42   21   22 1   
    43   22   23 2   
    44   22   43 1   
    45   23   24 1   
    46   24   42 1   
@<TRIPOS>SUBSTRUCTURE
     1 X6C         1 TEMP              0 ****  ****    0 ROOT
