@<TRIPOS>MOLECULE
X6C
   43    45     1     0     0
SMALL
bcc


@<TRIPOS>ATOM
      1 CAA         5.2940    1.7450   -1.2990 c3        1 X6C     -0.168100
      2 CAQ         3.9950    1.0070   -1.1050 c         1 X6C      0.666100
      3 OAB         2.9490    1.3730   -1.6830 o         1 X6C     -0.623100
      4 N           3.9630   -0.0660   -0.2270 n         1 X6C     -0.458800
      5 CD2         5.1650   -0.7010    0.2730 c3        1 X6C      0.051000
      6 CG          4.8280   -2.1870    0.5640 c3        1 X6C      0.131100
      7 OD1         5.5650   -3.0470   -0.2860 oh        1 X6C     -0.590800
      8 CB          3.3420   -2.3610    0.2240 c3        1 X6C     -0.088400
      9 CA          2.8140   -0.9620   -0.1540 c3        1 X6C      0.032700
     10 C           1.7510   -0.4790    0.8630 c         1 X6C      0.650100
     11 O           1.4020   -1.1960    1.8230 o         1 X6C     -0.623100
     12 NAO         1.2180    0.7720    0.6570 n         1 X6C     -0.550900
     13 CAK         0.1460    1.2870    1.4650 c3        1 X6C      0.131300
     14 CAS        -1.2340    0.9750    0.9570 ca        1 X6C     -0.108300
     15 CAF        -1.7410   -0.3240    1.0810 ca        1 X6C     -0.117500
     16 CAH        -3.0270   -0.6210    0.6410 ca        1 X6C     -0.109000
     17 CAE        -2.0250    1.9740    0.3840 ca        1 X6C     -0.117500
     18 CAG        -3.3140    1.6830   -0.0570 ca        1 X6C     -0.109000
     19 CAT        -3.8250    0.3820    0.0690 ca        1 X6C     -0.123500
     20 CAU        -5.1570    0.0960   -0.3910 cc        1 X6C      0.217900
     21 OAP        -5.6460   -1.2160   -0.2510 os        1 X6C     -0.381800
     22 CAI        -6.9420   -1.1770   -0.7790 cc        1 X6C      0.479300
     23 NAN        -7.2800    0.0290   -1.2230 nd        1 X6C     -0.667000
     24 CAJ        -6.1690    0.8490   -0.9880 cd        1 X6C      0.236900
     25 HAA1        5.0810    2.7150   -1.8120 hc        1 X6C      0.069700
     26 HAA2        5.7960    1.9480   -0.3230 hc        1 X6C      0.069700
     27 HAA3        5.9770    1.1380   -1.9430 hc        1 X6C      0.069700
     28 HD21        6.0010   -0.6350   -0.4770 h1        1 X6C      0.053700
     29 HD22        5.4870   -0.1810    1.2170 h1        1 X6C      0.053700
     30 HA          2.3010   -0.9990   -1.1620 h1        1 X6C      0.088700
     31 HG          5.0360   -2.4300    1.6390 h1        1 X6C      0.056700
     32 HD1         6.4770   -3.0420    0.0280 ho        1 X6C      0.402000
     33 HB1C        3.2270   -3.0590   -0.6420 hc        1 X6C      0.090700
     34 HB2C        2.7870   -2.7800    1.0990 hc        1 X6C      0.090700
     35 HAO         1.4010    1.2350   -0.2080 hn        1 X6C      0.338500
     36 HAK1        0.2460    0.8580    2.5060 h1        1 X6C      0.067700
     37 HAK2        0.2770    2.4060    1.5270 h1        1 X6C      0.067700
     38 HAF        -1.1090   -1.1090    1.5320 ha        1 X6C      0.147500
     39 HAE        -1.6330    2.9960    0.2800 ha        1 X6C      0.147500
     40 HAH        -3.4260   -1.6430    0.7400 ha        1 X6C      0.142500
     41 HAG        -3.9330    2.4740   -0.5060 ha        1 X6C      0.142500
     42 HAJ        -6.1770    1.9040   -1.2610 h4        1 X6C      0.053100
     43 HAI        -7.4940   -2.1180   -0.7590 h5        1 X6C      0.088100
@<TRIPOS>BOND
     1    1    2 1   
     2    1   25 1   
     3    1   26 1   
     4    1   27 1   
     5    2    3 2   
     6    2    4 1   
     7    4    5 1   
     8    4    9 1   
     9    5    6 1   
    10    5   28 1   
    11    5   29 1   
    12    6    7 1   
    13    6    8 1   
    14    6   31 1   
    15    7   32 1   
    16    8    9 1   
    17    8   33 1   
    18    8   34 1   
    19    9   10 1   
    20    9   30 1   
    21   10   11 2   
    22   10   12 1   
    23   12   13 1   
    24   12   35 1   
    25   13   14 1   
    26   13   36 1   
    27   13   37 1   
    28   14   15 ar  
    29   14   17 ar  
    30   15   16 ar  
    31   15   38 1   
    32   16   19 ar  
    33   16   40 1   
    34   17   18 ar  
    35   17   39 1   
    36   18   19 ar  
    37   18   41 1   
    38   19   20 1   
    39   20   21 1   
    40   20   24 2   
    41   21   22 1   
    42   22   23 2   
    43   22   43 1   
    44   23   24 1   
    45   24   42 1   
@<TRIPOS>SUBSTRUCTURE
     1 X6C         1 TEMP              0 ****  ****    0 ROOT
