@<TRIPOS>MOLECULE
X6D
   67    72     1     0     0
SMALL
bcc


@<TRIPOS>ATOM
      1 CAN        -0.0370   -0.3780    0.3820 c3        1 X6D      0.129800
      2 CAL         1.4790   -0.5760    0.2690 c3        1 X6D      0.126900
      3 OAY         2.1160   -0.5070    1.5390 os        1 X6D     -0.414600
      4 CAM         1.8390    0.7160    2.2120 c3        1 X6D      0.126900
      5 CAO         0.3310    0.9420    2.3720 c3        1 X6D      0.129800
      6 NBI        -0.3840    0.8400    1.1060 n3        1 X6D     -0.725600
      7 CAT        -1.8270    0.9800    1.2620 c3        1 X6D      0.210100
      8 CBB        -2.2580    2.3340    1.7470 ca        1 X6D     -0.066300
      9 CAG        -1.7790    3.5000    1.1410 ca        1 X6D     -0.122500
     10 CAI        -2.2250    4.7500    1.5660 ca        1 X6D     -0.102000
     11 CAH        -3.1960    2.4310    2.7820 ca        1 X6D     -0.122500
     12 CAJ        -3.6480    3.6770    3.2080 ca        1 X6D     -0.102000
     13 CBD        -3.1600    4.8430    2.6050 ca        1 X6D     -0.122900
     14 CBE        -3.6260    6.1620    3.0420 cc        1 X6D      0.477400
     15 NAX        -3.9410    6.4240    4.3970 na        1 X6D     -0.371000
     16 NAW        -3.8030    7.2430    2.2450 nd        1 X6D     -0.557100
     17 CBH        -4.2490    8.2680    3.0920 ca        1 X6D     -0.062900
     18 CBG        -4.3390    7.7650    4.4610 ca        1 X6D      0.410800
     19 NAV        -4.7390    8.5030    5.5370 nb        1 X6D     -0.655000
     20 CAK        -5.0580    9.7650    5.2480 ca        1 X6D      0.436200
     21 CBC        -5.0140   10.3660    3.9580 ca        1 X6D     -0.155200
     22 BR         -5.5180   12.1600    3.8270 br        1 X6D     -0.054100
     23 CBF        -4.6050    9.6200    2.8400 ca        1 X6D      0.222600
     24 NBK        -4.5660   10.2240    1.5500 nh        1 X6D     -0.629000
     25 CAR        -5.5300    9.6610    0.6120 c3        1 X6D      0.143800
     26 CAP        -5.4870   10.3830   -0.7530 c3        1 X6D      0.160800
     27 CAS        -3.2200   10.3490    1.0020 c3        1 X6D      0.143800
     28 CAQ        -3.2210   11.0490   -0.3750 c3        1 X6D      0.160800
     29 NBJ        -4.1640   10.5150   -1.3460 n3        1 X6D     -0.715600
     30 CAU        -3.7110    9.2870   -1.9920 c3        1 X6D      0.199100
     31 CBA        -2.4770    9.4600   -2.8280 ca        1 X6D     -0.083300
     32 CAE        -1.4040    8.5760   -2.6740 ca        1 X6D     -0.110500
     33 CAC        -0.2720    8.6900   -3.4790 ca        1 X6D     -0.128500
     34 CAZ        -0.2130    9.6990   -4.4440 ca        1 X6D      0.016400
     35 CL          1.1670    9.8440   -5.4290 cl        1 X6D     -0.099400
     36 CAD        -1.2780   10.5910   -4.6050 ca        1 X6D     -0.128500
     37 CAF        -2.4060   10.4670   -3.7980 ca        1 X6D     -0.110500
     38 HAN1       -0.4650   -0.2970   -0.6560 h1        1 X6D      0.042700
     39 HAN2       -0.4810   -1.2930    0.8720 h1        1 X6D      0.042700
     40 HAL1        1.9280    0.1880   -0.4190 h1        1 X6D      0.054950
     41 HAL2        1.7050   -1.6100   -0.1010 h1        1 X6D      0.054950
     42 HAM1        2.3110    1.5670    1.6540 h1        1 X6D      0.054950
     43 HAM2        2.3200    0.5980    3.2170 h1        1 X6D      0.054950
     44 HAO1        0.1610    1.9790    2.7760 h1        1 X6D      0.042700
     45 HAO2       -0.0600    0.2030    3.1300 h1        1 X6D      0.042700
     46 HAT1       -2.2460    0.1890    1.9540 h1        1 X6D      0.044700
     47 HAT2       -2.2940    0.8200    0.2450 h1        1 X6D      0.044700
     48 HAG        -1.0430    3.4290    0.3250 ha        1 X6D      0.146500
     49 HAH        -3.5840    1.5190    3.2620 ha        1 X6D      0.146500
     50 HAI        -1.8430    5.6630    1.0830 ha        1 X6D      0.144000
     51 HAJ        -4.4010    3.7310    4.0090 ha        1 X6D      0.144000
     52 HAX        -3.8610    5.7980    5.1550 hn        1 X6D      0.320700
     53 HAK        -5.3830   10.3680    6.1200 h4        1 X6D      0.040100
     54 HAR1       -5.3640    8.5580    0.4450 h1        1 X6D      0.048950
     55 HAR2       -6.5560    9.7980    1.0530 h1        1 X6D      0.048950
     56 HAS1       -2.6170   10.9750    1.7160 h1        1 X6D      0.048950
     57 HAS2       -2.7110    9.3470    0.9000 h1        1 X6D      0.048950
     58 HAP1       -6.1660    9.8270   -1.4560 h1        1 X6D      0.062700
     59 HAP2       -5.8880   11.4280   -0.6280 h1        1 X6D      0.062700
     60 HAQ1       -3.4820   12.1350   -0.2330 h1        1 X6D      0.062700
     61 HAQ2       -2.1790   10.9850   -0.7950 h1        1 X6D      0.062700
     62 HAU1       -3.5350    8.4630   -1.2390 h1        1 X6D      0.045700
     63 HAU2       -4.5380    8.9430   -2.6810 h1        1 X6D      0.045700
     64 HAE        -1.4490    7.7820   -1.9130 ha        1 X6D      0.144000
     65 HAF        -3.2470   11.1670   -3.9200 ha        1 X6D      0.144000
     66 HAC         0.5670    7.9890   -3.3540 ha        1 X6D      0.146000
     67 HAD        -1.2280   11.3860   -5.3640 ha        1 X6D      0.146000
@<TRIPOS>BOND
     1    1    2 1   
     2    1    6 1   
     3    1   38 1   
     4    1   39 1   
     5    2    3 1   
     6    2   40 1   
     7    2   41 1   
     8    3    4 1   
     9    4    5 1   
    10    4   42 1   
    11    4   43 1   
    12    5    6 1   
    13    5   44 1   
    14    5   45 1   
    15    6    7 1   
    16    7    8 1   
    17    7   46 1   
    18    7   47 1   
    19    8    9 ar  
    20    8   11 ar  
    21    9   10 ar  
    22    9   48 1   
    23   10   13 ar  
    24   10   50 1   
    25   11   12 ar  
    26   11   49 1   
    27   12   13 ar  
    28   12   51 1   
    29   13   14 1   
    30   14   15 1   
    31   14   16 2   
    32   15   18 1   
    33   15   52 1   
    34   16   17 1   
    35   17   18 ar  
    36   17   23 ar  
    37   18   19 ar  
    38   19   20 ar  
    39   20   21 ar  
    40   20   53 1   
    41   21   22 1   
    42   21   23 ar  
    43   23   24 1   
    44   24   25 1   
    45   24   27 1   
    46   25   26 1   
    47   25   54 1   
    48   25   55 1   
    49   26   29 1   
    50   26   58 1   
    51   26   59 1   
    52   27   28 1   
    53   27   56 1   
    54   27   57 1   
    55   28   29 1   
    56   28   60 1   
    57   28   61 1   
    58   29   30 1   
    59   30   31 1   
    60   30   62 1   
    61   30   63 1   
    62   31   32 ar  
    63   31   37 ar  
    64   32   33 ar  
    65   32   64 1   
    66   33   34 ar  
    67   33   66 1   
    68   34   35 1   
    69   34   36 ar  
    70   36   37 ar  
    71   36   67 1   
    72   37   65 1   
@<TRIPOS>SUBSTRUCTURE
     1 X6D         1 TEMP              0 ****  ****    0 ROOT
