@<TRIPOS>MOLECULE
X6D
   67    72     1     0     0
SMALL
bcc


@<TRIPOS>ATOM
      1 CAN        -0.0250   -0.3720    0.3890 c3        1 X6D      0.130300
      2 CAL         1.4920   -0.5670    0.2750 c3        1 X6D      0.126900
      3 OAY         2.1300   -0.4950    1.5440 os        1 X6D     -0.414600
      4 CAM         1.8490    0.7280    2.2160 c3        1 X6D      0.126900
      5 CAO         0.3420    0.9510    2.3770 c3        1 X6D      0.130300
      6 NBI        -0.3740    0.8460    1.1110 n3        1 X6D     -0.725600
      7 CAT        -1.8170    0.9830    1.2680 c3        1 X6D      0.210100
      8 CBB        -2.2520    2.3360    1.7520 ca        1 X6D     -0.066300
      9 CAG        -1.7750    3.5020    1.1450 ca        1 X6D     -0.122500
     10 CAI        -2.2240    4.7510    1.5680 ca        1 X6D     -0.102000
     11 CAH        -3.1890    2.4320    2.7870 ca        1 X6D     -0.122500
     12 CAJ        -3.6450    3.6770    3.2120 ca        1 X6D     -0.102000
     13 CBD        -3.1590    4.8440    2.6070 ca        1 X6D     -0.122900
     14 CBE        -3.6280    6.1620    3.0420 cc        1 X6D      0.477400
     15 NAX        -3.9450    6.4250    4.3970 na        1 X6D     -0.371000
     16 NAW        -3.8070    7.2420    2.2440 nd        1 X6D     -0.557100
     17 CBH        -4.2560    8.2670    3.0890 ca        1 X6D     -0.062900
     18 CBG        -4.3450    7.7660    4.4580 ca        1 X6D      0.410800
     19 NAV        -4.7470    8.5040    5.5330 nb        1 X6D     -0.655000
     20 CAK        -5.0690    9.7660    5.2430 ca        1 X6D      0.436200
     21 CBC        -5.0250   10.3650    3.9520 ca        1 X6D     -0.155200
     22 BR         -5.5320   12.1580    3.8190 br        1 X6D     -0.054100
     23 CBF        -4.6130    9.6180    2.8350 ca        1 X6D      0.222600
     24 NBK        -4.5740   10.2210    1.5440 nh        1 X6D     -0.629000
     25 CAR        -5.5370    9.6550    0.6060 c3        1 X6D      0.143800
     26 CAP        -5.4940   10.3740   -0.7600 c3        1 X6D      0.160800
     27 CAS        -3.2280   10.3480    0.9970 c3        1 X6D      0.143800
     28 CAQ        -3.2290   11.0460   -0.3810 c3        1 X6D      0.160800
     29 NBJ        -4.1710   10.5090   -1.3510 n3        1 X6D     -0.715600
     30 CAU        -3.7150    9.2800   -1.9960 c3        1 X6D      0.199100
     31 CBA        -2.4800    9.4540   -2.8300 ca        1 X6D     -0.083300
     32 CAE        -1.4050    8.5720   -2.6730 ca        1 X6D     -0.110500
     33 CAC        -0.2730    8.6870   -3.4770 ca        1 X6D     -0.128500
     34 CAZ        -0.2140    9.6950   -4.4440 ca        1 X6D      0.016400
     35 CL          1.1660    9.8400   -5.4280 cl        1 X6D     -0.099400
     36 CAD        -1.2810   10.5840   -4.6080 ca        1 X6D     -0.128500
     37 CAF        -2.4100   10.4590   -3.8010 ca        1 X6D     -0.110500
     38 HAN1       -0.4530   -0.2930   -0.6490 h1        1 X6D      0.042700
     39 HAN2       -0.4660   -1.2880    0.8790 h1        1 X6D      0.042700
     40 HAL1        1.7200   -1.6000   -0.0950 h1        1 X6D      0.054950
     41 HAL2        1.9390    0.1980   -0.4140 h1        1 X6D      0.054950
     42 HAM1        2.3320    0.6120    3.2220 h1        1 X6D      0.054950
     43 HAM2        2.3200    1.5800    1.6580 h1        1 X6D      0.054950
     44 HAO1       -0.0480    0.2110    3.1360 h1        1 X6D      0.042700
     45 HAO2        0.1690    1.9870    2.7800 h1        1 X6D      0.042700
     46 HAT1       -2.2840    0.8190    0.2530 h1        1 X6D      0.044700
     47 HAT2       -2.2340    0.1910    1.9620 h1        1 X6D      0.044700
     48 HAG        -1.0390    3.4320    0.3280 ha        1 X6D      0.146500
     49 HAH        -3.5750    1.5200    3.2680 ha        1 X6D      0.146500
     50 HAI        -1.8450    5.6650    1.0830 ha        1 X6D      0.144000
     51 HAJ        -4.3980    3.7310    4.0120 ha        1 X6D      0.144000
     52 HAX        -3.8640    5.8000    5.1550 hn        1 X6D      0.320700
     53 HAK        -5.3950   10.3690    6.1140 h4        1 X6D      0.040100
     54 HAR1       -5.3690    8.5520    0.4410 h1        1 X6D      0.048950
     55 HAR2       -6.5630    9.7910    1.0460 h1        1 X6D      0.048950
     56 HAS1       -2.6280   10.9760    1.7110 h1        1 X6D      0.048950
     57 HAS2       -2.7170    9.3470    0.8970 h1        1 X6D      0.048950
     58 HAP1       -6.1720    9.8170   -1.4630 h1        1 X6D      0.062700
     59 HAP2       -5.8970   11.4200   -0.6360 h1        1 X6D      0.062700
     60 HAQ1       -3.4930   12.1320   -0.2400 h1        1 X6D      0.062700
     61 HAQ2       -2.1870   10.9830   -0.7990 h1        1 X6D      0.062700
     62 HAU1       -4.5410    8.9330   -2.6840 h1        1 X6D      0.045700
     63 HAU2       -3.5380    8.4570   -1.2400 h1        1 X6D      0.045700
     64 HAE        -1.4500    7.7800   -1.9100 ha        1 X6D      0.144000
     65 HAF        -3.2520   11.1580   -3.9260 ha        1 X6D      0.144000
     66 HAC         0.5670    7.9880   -3.3490 ha        1 X6D      0.146000
     67 HAD        -1.2310   11.3780   -5.3690 ha        1 X6D      0.146000
@<TRIPOS>BOND
     1    1    2 1   
     2    1    6 1   
     3    1   38 1   
     4    1   39 1   
     5    2    3 1   
     6    2   40 1   
     7    2   41 1   
     8    3    4 1   
     9    4    5 1   
    10    4   42 1   
    11    4   43 1   
    12    5    6 1   
    13    5   44 1   
    14    5   45 1   
    15    6    7 1   
    16    7    8 1   
    17    7   46 1   
    18    7   47 1   
    19    8    9 ar  
    20    8   11 ar  
    21    9   10 ar  
    22    9   48 1   
    23   10   13 ar  
    24   10   50 1   
    25   11   12 ar  
    26   11   49 1   
    27   12   13 ar  
    28   12   51 1   
    29   13   14 1   
    30   14   15 1   
    31   14   16 2   
    32   15   18 1   
    33   15   52 1   
    34   16   17 1   
    35   17   18 ar  
    36   17   23 ar  
    37   18   19 ar  
    38   19   20 ar  
    39   20   21 ar  
    40   20   53 1   
    41   21   22 1   
    42   21   23 ar  
    43   23   24 1   
    44   24   25 1   
    45   24   27 1   
    46   25   26 1   
    47   25   54 1   
    48   25   55 1   
    49   26   29 1   
    50   26   58 1   
    51   26   59 1   
    52   27   28 1   
    53   27   56 1   
    54   27   57 1   
    55   28   29 1   
    56   28   60 1   
    57   28   61 1   
    58   29   30 1   
    59   30   31 1   
    60   30   62 1   
    61   30   63 1   
    62   31   32 ar  
    63   31   37 ar  
    64   32   33 ar  
    65   32   64 1   
    66   33   34 ar  
    67   33   66 1   
    68   34   35 1   
    69   34   36 ar  
    70   36   37 ar  
    71   36   67 1   
    72   37   65 1   
@<TRIPOS>SUBSTRUCTURE
     1 X6D         1 TEMP              0 ****  ****    0 ROOT
