@<TRIPOS>MOLECULE
X6D
   67    72     1     0     0
SMALL
bcc


@<TRIPOS>ATOM
      1 CAN        -0.0090   -0.3690    0.3990 c3        1 X6D      0.129800
      2 CAL         1.5080   -0.5610    0.2860 c3        1 X6D      0.126900
      3 OAY         2.1450   -0.4860    1.5560 os        1 X6D     -0.414600
      4 CAM         1.8630    0.7380    2.2250 c3        1 X6D      0.126900
      5 CAO         0.3550    0.9580    2.3850 c3        1 X6D      0.129800
      6 NBI        -0.3600    0.8500    1.1190 n3        1 X6D     -0.725600
      7 CAT        -1.8040    0.9850    1.2760 c3        1 X6D      0.210100
      8 CBB        -2.2410    2.3370    1.7580 ca        1 X6D     -0.066300
      9 CAG        -1.7660    3.5040    1.1490 ca        1 X6D     -0.122500
     10 CAI        -2.2170    4.7530    1.5710 ca        1 X6D     -0.102000
     11 CAH        -3.1780    2.4330    2.7920 ca        1 X6D     -0.122500
     12 CAJ        -3.6360    3.6780    3.2150 ca        1 X6D     -0.102000
     13 CBD        -3.1530    4.8450    2.6090 ca        1 X6D     -0.122900
     14 CBE        -3.6240    6.1630    3.0420 cc        1 X6D      0.477400
     15 NAX        -3.9400    6.4270    4.3970 na        1 X6D     -0.371000
     16 NAW        -3.8060    7.2420    2.2430 nd        1 X6D     -0.557100
     17 CBH        -4.2570    8.2660    3.0870 ca        1 X6D     -0.062900
     18 CBG        -4.3430    7.7670    4.4570 ca        1 X6D      0.410800
     19 NAV        -4.7460    8.5060    5.5320 nb        1 X6D     -0.655000
     20 CAK        -5.0710    9.7660    5.2400 ca        1 X6D      0.436200
     21 CBC        -5.0300   10.3640    3.9480 ca        1 X6D     -0.155200
     22 Br         -5.5420   12.1550    3.8130 br        1 X6D     -0.054100
     23 CBF        -4.6180    9.6160    2.8320 ca        1 X6D      0.222600
     24 NBK        -4.5820   10.2170    1.5400 nh        1 X6D     -0.629000
     25 CAR        -5.5440    9.6480    0.6040 c3        1 X6D      0.143800
     26 CAP        -5.5060   10.3660   -0.7630 c3        1 X6D      0.160800
     27 CAS        -3.2370   10.3460    0.9910 c3        1 X6D      0.143800
     28 CAQ        -3.2420   11.0420   -0.3880 c3        1 X6D      0.160800
     29 NBJ        -4.1840   10.5020   -1.3560 n3        1 X6D     -0.715600
     30 CAU        -3.7260    9.2740   -2.0000 c3        1 X6D      0.199100
     31 CBA        -2.4920    9.4500   -2.8370 ca        1 X6D     -0.083300
     32 CAE        -1.4160    8.5700   -2.6810 ca        1 X6D     -0.110500
     33 CAC        -0.2850    8.6870   -3.4870 ca        1 X6D     -0.128500
     34 CAZ        -0.2300    9.6950   -4.4550 ca        1 X6D      0.016400
     35 Cl          1.1480    9.8430   -5.4410 cl        1 X6D     -0.099400
     36 CAD        -1.2990   10.5820   -4.6170 ca        1 X6D     -0.128500
     37 CAF        -2.4260   10.4550   -3.8090 ca        1 X6D     -0.110500
     38 HAN1       -0.4490   -1.2840    0.8910 h1        1 X6D      0.042700
     39 HAN2       -0.4360   -0.2920   -0.6390 h1        1 X6D      0.042700
     40 HAL1        1.7390   -1.5950   -0.0820 h1        1 X6D      0.054950
     41 HAL2        1.9540    0.2030   -0.4040 h1        1 X6D      0.054950
     42 HAM1        2.3320    1.5890    1.6660 h1        1 X6D      0.054950
     43 HAM2        2.3450    0.6240    3.2310 h1        1 X6D      0.054950
     44 HAO1       -0.0340    0.2190    3.1460 h1        1 X6D      0.042700
     45 HAO2        0.1800    1.9950    2.7860 h1        1 X6D      0.042700
     46 HAT1       -2.2200    0.1930    1.9700 h1        1 X6D      0.044700
     47 HAT2       -2.2700    0.8190    0.2600 h1        1 X6D      0.044700
     48 HAG        -1.0300    3.4340    0.3330 ha        1 X6D      0.146500
     49 HAH        -3.5630    1.5210    3.2740 ha        1 X6D      0.146500
     50 HAI        -1.8390    5.6660    1.0850 ha        1 X6D      0.144000
     51 HAJ        -4.3890    3.7320    4.0160 ha        1 X6D      0.144000
     52 HAX        -3.8570    5.8040    5.1570 hn        1 X6D      0.320700
     53 HAK        -5.3980   10.3700    6.1110 h4        1 X6D      0.040100
     54 HAR1       -5.3740    8.5450    0.4400 h1        1 X6D      0.048950
     55 HAR2       -6.5710    9.7810    1.0450 h1        1 X6D      0.048950
     56 HAS1       -2.7240    9.3460    0.8920 h1        1 X6D      0.048950
     57 HAS2       -2.6370   10.9770    1.7030 h1        1 X6D      0.048950
     58 HAP1       -6.1830    9.8050   -1.4640 h1        1 X6D      0.062700
     59 HAP2       -5.9110   11.4100   -0.6400 h1        1 X6D      0.062700
     60 HAQ1       -2.2000   10.9820   -0.8070 h1        1 X6D      0.062700
     61 HAQ2       -3.5080   12.1280   -0.2480 h1        1 X6D      0.062700
     62 HAU1       -3.5450    8.4530   -1.2440 h1        1 X6D      0.045700
     63 HAU2       -4.5520    8.9240   -2.6870 h1        1 X6D      0.045700
     64 HAE        -1.4580    7.7780   -1.9180 ha        1 X6D      0.144000
     65 HAF        -3.2700   11.1520   -3.9320 ha        1 X6D      0.144000
     66 HAC         0.5570    7.9900   -3.3610 ha        1 X6D      0.146000
     67 HAD        -1.2520   11.3750   -5.3780 ha        1 X6D      0.146000
@<TRIPOS>BOND
     1    1    2 1   
     2    1    6 1   
     3    1   38 1   
     4    1   39 1   
     5    2    3 1   
     6    2   40 1   
     7    2   41 1   
     8    3    4 1   
     9    4    5 1   
    10    4   42 1   
    11    4   43 1   
    12    5    6 1   
    13    5   44 1   
    14    5   45 1   
    15    6    7 1   
    16    7    8 1   
    17    7   46 1   
    18    7   47 1   
    19    8    9 ar  
    20    8   11 ar  
    21    9   10 ar  
    22    9   48 1   
    23   10   13 ar  
    24   10   50 1   
    25   11   12 ar  
    26   11   49 1   
    27   12   13 ar  
    28   12   51 1   
    29   13   14 1   
    30   14   15 1   
    31   14   16 2   
    32   15   18 1   
    33   15   52 1   
    34   16   17 1   
    35   17   18 ar  
    36   17   23 ar  
    37   18   19 ar  
    38   19   20 ar  
    39   20   21 ar  
    40   20   53 1   
    41   21   22 1   
    42   21   23 ar  
    43   23   24 1   
    44   24   25 1   
    45   24   27 1   
    46   25   26 1   
    47   25   54 1   
    48   25   55 1   
    49   26   29 1   
    50   26   58 1   
    51   26   59 1   
    52   27   28 1   
    53   27   56 1   
    54   27   57 1   
    55   28   29 1   
    56   28   60 1   
    57   28   61 1   
    58   29   30 1   
    59   30   31 1   
    60   30   62 1   
    61   30   63 1   
    62   31   32 ar  
    63   31   37 ar  
    64   32   33 ar  
    65   32   64 1   
    66   33   34 ar  
    67   33   66 1   
    68   34   35 1   
    69   34   36 ar  
    70   36   37 ar  
    71   36   67 1   
    72   37   65 1   
@<TRIPOS>SUBSTRUCTURE
     1 X6D         1 TEMP              0 ****  ****    0 ROOT
