@<TRIPOS>MOLECULE
X6D
   67    63     1     0     0
SMALL
bcc


@<TRIPOS>ATOM
      1 CAN         1.6690   -7.7240   -3.0280 c3        1 X6D     -0.107000
      2 CAL         1.1160   -7.8990   -4.4180 c3        1 X6D     -0.023500
      3 OAY         1.9810   -7.3720   -5.4180 os        1 X6D     -0.271000
      4 CAM         2.3620   -6.0440   -5.1620 c3        1 X6D     -0.023500
      5 CAO         2.9190   -5.8630   -3.7580 c3        1 X6D     -0.107000
      6 NBI         2.0540   -6.3850   -2.7620 n3        1 X6D     -0.251000
      7 CAT         2.7260   -6.3170   -1.4410 c3        1 X6D     -0.034000
      8 CBB         2.1580   -5.1670   -0.6470 c2        1 X6D     -0.061000
      9 CAG         3.0130   -4.2680   -0.0250 c2        1 X6D     -0.134000
     10 CAI         2.4980   -3.2450    0.7490 c1        1 X6D     -0.083000
     11 CAH         0.7650   -5.0390   -0.4910 c1        1 X6D     -0.113000
     12 CAJ         0.2460   -4.0160    0.2830 c1        1 X6D     -0.120000
     13 CBD         1.1030   -3.1140    0.9070 c1        1 X6D     -0.037000
     14 CBE         0.5730   -2.0520    1.6830 c1        1 X6D      0.057000
     15 NAX         0.2340   -2.1150    3.0050 n2        1 X6D     -0.220000
     16 NAW         0.3180   -0.7870    1.2400 n2        1 X6D     -0.095000
     17 CBH        -0.1770   -0.0680    2.2820 c1        1 X6D     -0.099000
     18 CBG        -0.2290   -0.8940    3.3780 c1        1 X6D      0.015000
     19 NAV        -0.6920   -0.4010    4.6070 n1        1 X6D     -0.129000
     20 CAK        -1.0900    0.8920    4.7150 c1        1 X6D     -0.025000
     21 CBC        -1.0380    1.7350    3.6010 c1        1 X6D     -0.277000
     22 BR         -1.8370    3.1800    4.6010 br        1 X6D      0.064000
     23 CBF        -0.5820    1.2520    2.3900 c2        1 X6D      0.166000
     24 NBK        -0.5460    2.2000    1.2820 n3        1 X6D     -0.257000
     25 CAR         0.1940    3.3410    1.6690 c3        1 X6D     -0.078000
     26 CAP         0.1440    4.4630    0.6040 c3        1 X6D     -0.076000
     27 CAS        -1.8950    2.5220    0.8830 c3        1 X6D     -0.078000
     28 CAQ        -1.9410    3.6460   -0.1810 c3        1 X6D     -0.076000
     29 NBJ        -1.1990    4.7850    0.2060 n3        1 X6D     -0.242000
     30 CAU        -1.8790    5.4560    1.2920 c3        1 X6D     -0.042000
     31 CBA        -2.2850    6.9410    0.8370 c2        1 X6D     -0.078000
     32 CAE        -1.3180    7.8010    0.3320 c2        1 X6D     -0.100000
     33 CAC        -1.6710    9.1060   -0.0520 c1        1 X6D     -0.129000
     34 CAZ        -2.9850    9.5370    0.0730 c1        1 X6D     -0.061000
     35 CL         -3.4330   11.0810   -0.5200 cl        1 X6D     -0.020000
     36 CAD        -3.9540    8.6780    0.5770 c1        1 X6D     -0.127000
     37 CAF        -3.6040    7.3730    0.9620 c1        1 X6D     -0.121000
     38 HAN1        1.0000   -7.9910   -2.3930 h1        1 X6D      0.082750
     39 HAN2        2.4460   -8.2970   -2.9290 h1        1 X6D      0.082750
     40 HAL1        0.2690   -7.4510   -4.4740 h1        1 X6D      0.094250
     41 HAL2        0.9860   -8.8240   -4.5810 h1        1 X6D      0.094250
     42 HAM1        1.5640   -5.4490   -5.2760 h1        1 X6D      0.094250
     43 HAM2        3.0430   -5.7840   -5.8050 h1        1 X6D      0.094250
     44 HAO1        3.7910   -6.3300   -3.7010 h1        1 X6D      0.082750
     45 HAO2        3.0610   -4.8900   -3.5880 h1        1 X6D      0.082750
     46 HAT1        3.6820   -6.1820   -1.5710 h1        1 X6D      0.083500
     47 HAT2        2.5760   -7.1670   -0.9460 h1        1 X6D      0.083500
     48 HAG         4.0080   -4.3600   -0.1400 ha        1 X6D      0.139000
     49 HAH         0.1630   -5.6720   -0.9310 ha        1 X6D      0.153000
     50 HAI         3.0870   -2.6290    1.1750 ha        1 X6D      0.159000
     51 HAJ        -0.7620   -3.9250    0.3940 ha        1 X6D      0.133000
     52 HAX         0.3790   -2.8410    3.5730 DU        1 X6D      0.270000
     53 HAK        -1.4500    1.2310    5.5800 ha        1 X6D      0.176000
     54 HAR1       -0.1730    3.6900    2.5230 h1        1 X6D      0.083000
     55 HAR2        1.1680    3.0680    1.8160 h1        1 X6D      0.083000
     56 HAS1       -2.3940    2.8080    1.6670 h1        1 X6D      0.083000
     57 HAS2       -2.3410    1.6770    0.4940 h1        1 X6D      0.083000
     58 HAP1        0.5560    5.2440    0.9610 h1        1 X6D      0.103250
     59 HAP2        0.6370    4.1770   -0.1710 h1        1 X6D      0.103250
     60 HAQ1       -1.5770    3.3010   -1.0210 h1        1 X6D      0.103250
     61 HAQ2       -2.8920    3.9150   -0.3280 h1        1 X6D      0.103250
     62 HAU1       -2.6560    4.9730    1.5200 h1        1 X6D      0.082000
     63 HAU2       -1.2810    5.5040    2.0710 h1        1 X6D      0.082000
     64 HAE        -0.4070    7.5020    0.2460 ha        1 X6D      0.152000
     65 HAF        -4.2850    6.7670    1.3140 ha        1 X6D      0.136000
     66 HAC        -0.9910    9.7140   -0.4060 ha        1 X6D      0.147000
     67 HAD        -4.9280    9.0000    0.6710 ha        1 X6D      0.146000
@<TRIPOS>BOND
     1    1    2 1   
     2    1    6 1   
     3    1   38 1   
     4    1   39 1   
     5    2    3 1   
     6    2   40 1   
     7    2   41 1   
     8    3    4 1   
     9    4    5 1   
    10    4   42 1   
    11    4   43 1   
    12    5    6 1   
    13    5   44 1   
    14    5   45 1   
    15    6    7 1   
    16    7    8 1   
    17    7   46 1   
    18    7   47 1   
    19    8    9 1   
    20    8   11 1   
    21    9   10 1   
    22    9   48 1   
    23   10   50 1   
    24   11   49 1   
    25   12   13 1   
    26   12   51 1   
    27   14   15 1   
    28   14   16 1   
    29   15   18 1   
    30   16   17 1   
    31   17   23 1   
    32   18   19 1   
    33   20   21 1   
    34   20   53 1   
    35   21   23 1   
    36   23   24 1   
    37   24   25 1   
    38   24   27 1   
    39   25   26 1   
    40   25   54 1   
    41   25   55 1   
    42   26   29 1   
    43   26   58 1   
    44   26   59 1   
    45   27   28 1   
    46   27   56 1   
    47   27   57 1   
    48   28   29 1   
    49   28   60 1   
    50   28   61 1   
    51   29   30 1   
    52   30   31 1   
    53   30   62 1   
    54   30   63 1   
    55   31   32 1   
    56   31   37 1   
    57   32   33 1   
    58   32   64 1   
    59   33   66 1   
    60   34   35 1   
    61   34   36 1   
    62   36   67 1   
    63   37   65 1   
@<TRIPOS>SUBSTRUCTURE
     1 X6D         1 TEMP              0 ****  ****    0 ROOT
