@<TRIPOS>MOLECULE
X6D
   67    72     1     0     0
SMALL
bcc


@<TRIPOS>ATOM
      1 CAN        -8.0600    1.3990   -0.6430 c3        1 X6D      0.129800
      2 CAL        -8.9430    0.8490    0.4830 c3        1 X6D      0.126900
      3 OAY        -8.9310    1.6960    1.6250 os        1 X6D     -0.414600
      4 CAM        -7.6130    1.9190    2.1120 c3        1 X6D      0.126900
      5 CAO        -6.7000    2.4980    1.0260 c3        1 X6D      0.129800
      6 NBI        -6.7050    1.6930   -0.1900 n3        1 X6D     -0.725600
      7 CAT        -5.8970    2.2770   -1.2540 c3        1 X6D      0.210100
      8 CBB        -4.4310    2.3440   -0.9390 ca        1 X6D     -0.066300
      9 CAG        -3.7500    1.2250   -0.4510 ca        1 X6D     -0.122500
     10 CAI        -2.3790    1.2840   -0.2100 ca        1 X6D     -0.102000
     11 CAH        -3.7240    3.5260   -1.1900 ca        1 X6D     -0.122500
     12 CAJ        -2.3530    3.5900   -0.9550 ca        1 X6D     -0.102000
     13 CBD        -1.6740    2.4690   -0.4590 ca        1 X6D     -0.122900
     14 CBE        -0.2320    2.5190   -0.2060 cc        1 X6D      0.477400
     15 NAX         0.3970    3.7000    0.2590 na        1 X6D     -0.371000
     16 NAW         0.6380    1.4940   -0.3730 nd        1 X6D     -0.557100
     17 CBH         1.8930    2.0000   -0.0070 ca        1 X6D     -0.062900
     18 CBG         1.7570    3.3970    0.3990 ca        1 X6D      0.410800
     19 NAV         2.7860    4.1900    0.8170 nb        1 X6D     -0.655000
     20 CAK         3.9740    3.5860    0.8310 ca        1 X6D      0.436200
     21 CBC         4.2310    2.2360    0.4560 ca        1 X6D     -0.155200
     22 BR          5.9970    1.6350    0.5660 br        1 X6D     -0.054100
     23 CBF         3.1830    1.4060    0.0230 ca        1 X6D      0.222600
     24 NBK         3.4460    0.0570   -0.3540 nh        1 X6D     -0.629000
     25 CAR         3.2160   -0.2080   -1.7700 c3        1 X6D      0.143800
     26 CAP         3.5650   -1.6660   -2.1420 c3        1 X6D      0.160800
     27 CAS         2.8380   -0.9280    0.5320 c3        1 X6D      0.143800
     28 CAQ         3.1860   -2.3730    0.1120 c3        1 X6D      0.160800
     29 NBJ         2.9660   -2.6850   -1.2920 n3        1 X6D     -0.715600
     30 CAU         1.5680   -2.9450   -1.6250 c3        1 X6D      0.199100
     31 CBA         0.9990   -4.1580   -0.9480 ca        1 X6D     -0.083300
     32 CAE        -0.2300   -4.0700   -0.2840 ca        1 X6D     -0.110500
     33 CAC        -0.7980   -5.1990    0.3020 ca        1 X6D     -0.128500
     34 CAZ        -0.1300   -6.4250    0.2270 ca        1 X6D      0.016400
     35 CL         -0.8190   -7.8060    0.9430 cl        1 X6D     -0.099400
     36 CAD         1.0990   -6.5240   -0.4310 ca        1 X6D     -0.128500
     37 CAF         1.6580   -5.3900   -1.0180 ca        1 X6D     -0.110500
     38 HAN1       -7.9920    0.6230   -1.4550 h1        1 X6D      0.042700
     39 HAN2       -8.5610    2.3140   -1.0750 h1        1 X6D      0.042700
     40 HAL1      -10.0160    0.8330    0.1570 h1        1 X6D      0.054950
     41 HAL2       -8.6130   -0.1830    0.7760 h1        1 X6D      0.054950
     42 HAM1       -7.7430    2.6620    2.9420 h1        1 X6D      0.054950
     43 HAM2       -7.1930    0.9600    2.5150 h1        1 X6D      0.054950
     44 HAO1       -7.0220    3.5610    0.8200 h1        1 X6D      0.042700
     45 HAO2       -5.6440    2.5210    1.4130 h1        1 X6D      0.042700
     46 HAT1       -6.0180    1.6230   -2.1680 h1        1 X6D      0.044700
     47 HAT2       -6.2630    3.3120   -1.5300 h1        1 X6D      0.044700
     48 HAG        -4.3010    0.2920   -0.2540 ha        1 X6D      0.146500
     49 HAH        -4.2490    4.4110   -1.5800 ha        1 X6D      0.146500
     50 HAI        -1.8490    0.3970    0.1730 ha        1 X6D      0.144000
     51 HAJ        -1.8110    4.5210   -1.1790 ha        1 X6D      0.144000
     52 HAX        -0.0400    4.5570    0.4760 hn        1 X6D      0.320700
     53 HAK         4.8120    4.2270    1.1710 h4        1 X6D      0.040100
     54 HAR1        2.1490   -0.0020   -2.0720 h1        1 X6D      0.048950
     55 HAR2        3.8850    0.4770   -2.3590 h1        1 X6D      0.048950
     56 HAS1        3.2450   -0.7530    1.5660 h1        1 X6D      0.048950
     57 HAS2        1.7160   -0.8220    0.5750 h1        1 X6D      0.048950
     58 HAP1        3.2560   -1.8310   -3.2100 h1        1 X6D      0.062700
     59 HAP2        4.6810   -1.8060   -2.0710 h1        1 X6D      0.062700
     60 HAQ1        4.2770   -2.5620    0.3190 h1        1 X6D      0.062700
     61 HAQ2        2.5770   -3.0730    0.7490 h1        1 X6D      0.062700
     62 HAU1        0.9140   -2.0520   -1.3940 h1        1 X6D      0.045700
     63 HAU2        1.5140   -3.1240   -2.7390 h1        1 X6D      0.045700
     64 HAE        -0.7550   -3.1050   -0.2220 ha        1 X6D      0.144000
     65 HAF         2.6270   -5.4630   -1.5370 ha        1 X6D      0.144000
     66 HAC        -1.7660   -5.1230    0.8220 ha        1 X6D      0.146000
     67 HAD         1.6240   -7.4900   -0.4880 ha        1 X6D      0.146000
@<TRIPOS>BOND
     1    1    2 1   
     2    1    6 1   
     3    1   38 1   
     4    1   39 1   
     5    2    3 1   
     6    2   40 1   
     7    2   41 1   
     8    3    4 1   
     9    4    5 1   
    10    4   42 1   
    11    4   43 1   
    12    5    6 1   
    13    5   44 1   
    14    5   45 1   
    15    6    7 1   
    16    7    8 1   
    17    7   46 1   
    18    7   47 1   
    19    8    9 ar  
    20    8   11 ar  
    21    9   10 ar  
    22    9   48 1   
    23   10   13 ar  
    24   10   50 1   
    25   11   12 ar  
    26   11   49 1   
    27   12   13 ar  
    28   12   51 1   
    29   13   14 1   
    30   14   15 1   
    31   14   16 2   
    32   15   18 1   
    33   15   52 1   
    34   16   17 1   
    35   17   18 ar  
    36   17   23 ar  
    37   18   19 ar  
    38   19   20 ar  
    39   20   21 ar  
    40   20   53 1   
    41   21   22 1   
    42   21   23 ar  
    43   23   24 1   
    44   24   25 1   
    45   24   27 1   
    46   25   26 1   
    47   25   54 1   
    48   25   55 1   
    49   26   29 1   
    50   26   58 1   
    51   26   59 1   
    52   27   28 1   
    53   27   56 1   
    54   27   57 1   
    55   28   29 1   
    56   28   60 1   
    57   28   61 1   
    58   29   30 1   
    59   30   31 1   
    60   30   62 1   
    61   30   63 1   
    62   31   32 ar  
    63   31   37 ar  
    64   32   33 ar  
    65   32   64 1   
    66   33   34 ar  
    67   33   66 1   
    68   34   35 1   
    69   34   36 ar  
    70   36   37 ar  
    71   36   67 1   
    72   37   65 1   
@<TRIPOS>SUBSTRUCTURE
     1 X6D         1 TEMP              0 ****  ****    0 ROOT
