@<TRIPOS>MOLECULE
X6K
   42    46     1     0     0
SMALL
bcc


@<TRIPOS>ATOM
      1 N01        -3.8130   -2.7320   -0.1090 nb        1 X6K     -0.646000
      2 C02        -3.6290   -4.0700   -0.1760 ca        1 X6K      0.428200
      3 C03        -2.3770   -4.7170   -0.2280 ca        1 X6K     -0.275300
      4 C04        -1.2000   -3.9620   -0.2120 ca        1 X6K     -0.012000
      5 C05        -1.3330   -2.5820   -0.1420 cp        1 X6K     -0.308800
      6 C06        -2.6630   -2.0260   -0.0950 ca        1 X6K      0.591600
      7 O07        -2.6360   -0.6180   -0.0330 os        1 X6K     -0.287400
      8 C08        -1.2750   -0.2840   -0.0360 ca        1 X6K     -0.198500
      9 C09        -0.4270   -1.4420   -0.1030 cp        1 X6K      0.477800
     10 N10         0.9130   -1.3650   -0.1260 nb        1 X6K     -0.672000
     11 C11        -0.6920    1.0100    0.0060 ca        1 X6K      0.689200
     12 N12        -1.4810    2.1780   -0.0400 nh        1 X6K     -0.724300
     13 C13        -0.7770    3.4520   -0.1350 c3        1 X6K      0.151300
     14 C14        -1.7390    4.6250   -0.3660 c3        1 X6K      0.121900
     15 O15        -2.7870    4.6470    0.5950 os        1 X6K     -0.411600
     16 C16        -3.5240    3.4320    0.6030 c3        1 X6K      0.121900
     17 C17        -2.6190    2.2210    0.8700 c3        1 X6K      0.151300
     18 N18         0.6800    1.0770   -0.0060 nb        1 X6K     -0.731000
     19 C19         1.4050   -0.0800   -0.0810 cp        1 X6K      0.717500
     20 C20         2.8870    0.0690   -0.1060 cp        1 X6K     -0.099500
     21 C21         3.4790    1.0450   -0.9140 ca        1 X6K     -0.124000
     22 C22         4.8690    1.1770   -0.9370 ca        1 X6K     -0.108000
     23 C23         5.6770    0.3500   -0.1650 ca        1 X6K     -0.141000
     24 C24         5.0710   -0.6270    0.6430 ca        1 X6K      0.114100
     25 O25         5.9180   -1.4170    1.3880 oh        1 X6K     -0.498100
     26 C26         3.6790   -0.7760    0.6790 ca        1 X6K     -0.174000
     27 H02        -4.5660   -4.6590   -0.1880 h4        1 X6K      0.033100
     28 H03        -2.3350   -5.8130   -0.2830 ha        1 X6K      0.152000
     29 H04        -0.2090   -4.4370   -0.2530 ha        1 X6K      0.161000
     30 H131       -0.1800    3.6520    0.8010 h1        1 X6K      0.063450
     31 H132       -0.0650    3.4060   -1.0060 h1        1 X6K      0.063450
     32 H171       -3.2400    1.2910    0.7380 h1        1 X6K      0.063450
     33 H172       -2.2660    2.2660    1.9410 h1        1 X6K      0.063450
     34 H141       -1.1960    5.5940   -0.2140 h1        1 X6K      0.059950
     35 H142       -2.1750    4.5840   -1.3990 h1        1 X6K      0.059950
     36 H161       -4.2550    3.5500    1.4450 h1        1 X6K      0.059950
     37 H162       -4.0680    3.3130   -0.3710 h1        1 X6K      0.059950
     38 H21         2.8570    1.7100   -1.5300 ha        1 X6K      0.147000
     39 H26         3.2210   -1.5490    1.3130 ha        1 X6K      0.148000
     40 H22         5.3310    1.9460   -1.5750 ha        1 X6K      0.138000
     41 H23         6.7720    0.4450   -0.1730 ha        1 X6K      0.152000
     42 H25         5.3780   -2.0530    1.8790 ho        1 X6K      0.420000
@<TRIPOS>BOND
     1    1    2 ar  
     2    1    6 ar  
     3    2    3 ar  
     4    2   27 1   
     5    3    4 ar  
     6    3   28 1   
     7    4    5 ar  
     8    4   29 1   
     9    5    6 ar  
    10    5    9 1   
    11    6    7 1   
    12    7    8 1   
    13    8    9 ar  
    14    8   11 ar  
    15    9   10 ar  
    16   10   19 ar  
    17   11   12 1   
    18   11   18 ar  
    19   12   13 1   
    20   12   17 1   
    21   13   14 1   
    22   13   30 1   
    23   13   31 1   
    24   14   15 1   
    25   14   34 1   
    26   14   35 1   
    27   15   16 1   
    28   16   17 1   
    29   16   36 1   
    30   16   37 1   
    31   17   32 1   
    32   17   33 1   
    33   18   19 ar  
    34   19   20 1   
    35   20   21 ar  
    36   20   26 ar  
    37   21   22 ar  
    38   21   38 1   
    39   22   23 ar  
    40   22   40 1   
    41   23   24 ar  
    42   23   41 1   
    43   24   25 1   
    44   24   26 ar  
    45   25   42 1   
    46   26   39 1   
@<TRIPOS>SUBSTRUCTURE
     1 X6K         1 TEMP              0 ****  ****    0 ROOT
