@<TRIPOS>MOLECULE
X6L
   43    45     1     0     0
SMALL
bcc


@<TRIPOS>ATOM
      1 C22         0.0000    0.0000    0.0000 ca        1 X6L     -0.067000
      2 C21         1.3840    0.0000    0.0000 ca        1 X6L     -0.082500
      3 C23        -0.6970    0.0010    1.1950 ca        1 X6L     -0.082500
      4 C20         2.0760    0.0000    1.1940 ca        1 X6L     -0.110500
      5 C24        -0.0160    0.0010    2.3950 ca        1 X6L     -0.110500
      6 C15         1.4140   -0.0000    4.8930 ca        1 X6L     -0.156500
      7 C17         3.5120   -0.0010    3.6890 ca        1 X6L     -0.156500
      8 C14         2.0950   -0.0010    6.0840 ca        1 X6L     -0.016500
      9 C18         4.1970   -0.0020    4.8770 ca        1 X6L     -0.016500
     10 C19         1.3780    0.0010    2.4020 cp        1 X6L     -0.078000
     11 C16         2.1160   -0.0000    3.6870 cp        1 X6L     -0.032000
     12 C13         3.4940   -0.0020    6.0890 ca        1 X6L     -0.137600
     13 C5         10.4350   -0.6880    7.8330 cc        1 X6L      0.126400
     14 C4         10.6890   -0.8400    9.5580 cd        1 X6L     -0.135500
     15 C7          8.4460   -0.7610    8.6560 c1        1 X6L      0.341400
     16 C25        11.7350   -0.6180    7.0340 c         1 X6L      0.659700
     17 C2         13.2390   -0.8080    9.1940 cc        1 X6L     -0.219200
     18 C11         4.2140   -0.0250    7.3700 c         1 X6L      0.552700
     19 C10         4.1730   -0.8790    8.2200 c3        1 X6L     -0.046100
     20 N6          9.3190   -0.6700    7.6250 ne        1 X6L     -0.367000
     21 N3         11.9160   -0.8840   10.0570 nd        1 X6L     -0.380300
     22 N8          9.4630   -0.8740    9.9400 nu        1 X6L      0.134400
     23 N27        13.0360   -0.6720    7.6430 ns        1 X6L     -0.082400
     24 N1         14.4850   -0.8510    9.7680 nz        1 X6L      0.313400
     25 O26        11.8790   -0.4150    5.8930 o         1 X6L     -0.536500
     26 O12         5.3170    0.8080    7.2240 o         1 X6L     -0.567100
     27 S9          5.1730   -0.8640    9.8320 s         1 X6L      0.001700
     28 H22        -0.5930   -0.3520   -0.8350 ha        1 X6L      0.112000
     29 H21         2.0140    0.0900   -0.8770 ha        1 X6L      0.111500
     30 H23        -1.7500    0.2010    1.3540 ha        1 X6L      0.111500
     31 H20         3.1120   -0.2570    1.3820 ha        1 X6L      0.117000
     32 H24        -0.5220   -0.0490    3.3510 ha        1 X6L      0.117000
     33 H15         0.4360   -0.0860    4.4360 ha        1 X6L      0.148000
     34 H14         1.5120   -0.1510    6.9840 ha        1 X6L      0.108500
     35 H17         3.8170   -0.1740    2.6640 ha        1 X6L      0.148000
     36 H18         5.2010   -0.2730    4.5750 ha        1 X6L      0.108500
     37 H8          9.2880   -0.8370   10.9240 hn        1 X6L      0.170700
     38 H27        13.8870   -0.8980    7.1670 hn        1 X6L      0.183500
     39 H11N       14.5290   -0.3450   10.6300 hn        1 X6L      0.190800
     40 H12N       14.9870   -0.1040    9.3310 hn        1 X6L      0.190800
     41 H101        3.1360   -0.9040    8.5320 h1        1 X6L      0.121700
     42 H102        4.1270   -1.9600    8.1640 h1        1 X6L      0.121700
     43 H13        14.8730   -1.7730    9.8130 hn        1 X6L      0.190800
@<TRIPOS>BOND
     1    1    2 ar  
     2    1    3 ar  
     3    1   28 1   
     4    2    4 ar  
     5    2   29 1   
     6    3    5 ar  
     7    3   30 1   
     8    4   10 ar  
     9    4   31 1   
    10    5   10 ar  
    11    5   32 1   
    12    6    8 ar  
    13    6   11 ar  
    14    6   33 1   
    15    7    9 ar  
    16    7   11 ar  
    17    7   35 1   
    18    8   12 ar  
    19    8   34 1   
    20    9   12 ar  
    21    9   36 1   
    22   10   11 1   
    23   12   18 1   
    24   13   14 2   
    25   13   16 1   
    26   13   20 1   
    27   14   21 1   
    28   14   22 1   
    29   15   20 2   
    30   15   22 2   
    31   16   23 1   
    32   16   25 2   
    33   17   21 2   
    34   17   23 1   
    35   17   24 1   
    36   18   19 1   
    37   18   26 2   
    38   19   27 1   
    39   19   41 1   
    40   19   42 1   
    41   22   37 1   
    42   23   38 1   
    43   24   39 1   
    44   24   40 1   
    45   24   43 1   
@<TRIPOS>SUBSTRUCTURE
     1 X6L         1 TEMP              0 ****  ****    0 ROOT
