@<TRIPOS>MOLECULE
X6L
   43    46     1     0     0
SMALL
bcc


@<TRIPOS>ATOM
      1 C22        -0.0030    0.0650    0.2740 ca        1 X6L     -0.112000
      2 C21         1.3310    0.4590    0.1740 ca        1 X6L     -0.128500
      3 C23        -0.5200   -0.3330    1.5070 ca        1 X6L     -0.128500
      4 C20         2.1480    0.4590    1.3030 ca        1 X6L     -0.110500
      5 C24         0.2940   -0.3400    2.6380 ca        1 X6L     -0.110500
      6 C15         2.4030   -0.9860    4.6680 ca        1 X6L     -0.134500
      7 C17         3.4130    1.0890    3.9470 ca        1 X6L     -0.134500
      8 C14         3.2130   -0.9910    5.7980 ca        1 X6L     -0.076500
      9 C18         4.2260    1.0830    5.0760 ca        1 X6L     -0.076500
     10 C19         1.6360    0.0580    2.5450 cp        1 X6L     -0.065000
     11 C16         2.4910    0.0550    3.7300 cp        1 X6L      0.020000
     12 C13         4.1300    0.0460    6.0160 ca        1 X6L     -0.189600
     13 C5          8.8830   -1.4640    9.1290 cc        1 X6L      0.322800
     14 C4          9.1240   -0.5690   10.2420 cd        1 X6L     -0.008200
     15 C7          6.9330   -0.7200    9.7860 cd        1 X6L      0.539800
     16 C25        10.0120   -2.1140    8.4730 c         1 X6L      0.644000
     17 C2         11.3740   -0.8890   10.1200 cc        1 X6L      0.471800
     18 C11         5.0070    0.0830    7.1970 c         1 X6L      0.598700
     19 C10         4.6120   -0.8160    8.3390 c3        1 X6L     -0.154300
     20 N6          7.5370   -1.5500    8.8660 nc        1 X6L     -0.595000
     21 N3         10.3720   -0.2770   10.7570 nd        1 X6L     -0.512100
     22 N8          7.8650   -0.1050   10.6380 na        1 X6L     -0.252900
     23 N27        11.2830   -1.7720    9.0380 n         1 X6L     -0.500400
     24 N1         12.7460   -0.5800   10.6380 n4        1 X6L     -0.789600
     25 O26        10.0130   -2.9000    7.5260 o         1 X6L     -0.513500
     26 O12         6.0130    0.8000    7.2610 o         1 X6L     -0.532100
     27 S9          5.2770   -0.4280    9.9220 ss        1 X6L     -0.121400
     28 H22        -0.6470    0.0680   -0.6190 ha        1 X6L      0.140000
     29 H21         1.7420    0.7710   -0.7980 ha        1 X6L      0.139000
     30 H23        -1.5730   -0.6420    1.5890 ha        1 X6L      0.139000
     31 H20         3.2010    0.7660    1.2180 ha        1 X6L      0.134500
     32 H24        -0.1200   -0.6490    3.6090 ha        1 X6L      0.134500
     33 H15         1.6920   -1.8110    4.5000 ha        1 X6L      0.149000
     34 H14         3.1320   -1.8260    6.5110 ha        1 X6L      0.142000
     35 H17         3.4900    1.9140    3.2210 ha        1 X6L      0.149000
     36 H18         4.9550    1.8940    5.2410 ha        1 X6L      0.142000
     37 H8          7.6730    0.5290   11.3750 hn        1 X6L      0.342700
     38 H27        12.0940   -2.1720    8.6170 hn        1 X6L      0.347500
     39 H11N       12.6770    0.0720   11.4340 hn        1 X6L      0.479800
     40 H12N       13.3020   -0.1440    9.8930 hn        1 X6L      0.479800
     41 H101        3.5030   -0.7370    8.5140 h1        1 X6L      0.124700
     42 H102        4.8460   -1.8720    8.0450 h1        1 X6L      0.124700
     43 H13        13.1970   -1.4470   10.9510 hn        1 X6L      0.479800
@<TRIPOS>BOND
     1    1    2 ar  
     2    1    3 ar  
     3    1   28 1   
     4    2    4 ar  
     5    2   29 1   
     6    3    5 ar  
     7    3   30 1   
     8    4   10 ar  
     9    4   31 1   
    10    5   10 ar  
    11    5   32 1   
    12    6    8 ar  
    13    6   11 ar  
    14    6   33 1   
    15    7    9 ar  
    16    7   11 ar  
    17    7   35 1   
    18    8   12 ar  
    19    8   34 1   
    20    9   12 ar  
    21    9   36 1   
    22   10   11 1   
    23   12   18 1   
    24   13   14 2   
    25   13   16 1   
    26   13   20 1   
    27   14   21 1   
    28   14   22 1   
    29   15   20 2   
    30   15   22 1   
    31   15   27 1   
    32   16   23 1   
    33   16   25 2   
    34   17   21 2   
    35   17   23 1   
    36   17   24 1   
    37   18   19 1   
    38   18   26 2   
    39   19   27 1   
    40   19   41 1   
    41   19   42 1   
    42   22   37 1   
    43   23   38 1   
    44   24   39 1   
    45   24   40 1   
    46   24   43 1   
@<TRIPOS>SUBSTRUCTURE
     1 X6L         1 TEMP              0 ****  ****    0 ROOT
