@<TRIPOS>MOLECULE
X6W
   31    32     1     0     0
SMALL
bcc


@<TRIPOS>ATOM
      1 CAB         0.0780   -0.4330   -0.0220 c3        1 X6W      0.025600
      2 NAO         1.4960   -0.1470   -0.0150 na        1 X6W      0.121400
      3 CAM         2.2680    0.0160    1.1590 cc        1 X6W     -0.260600
      4 CAI         1.7360    0.1010    2.5270 c3        1 X6W      0.209100
      5 NAK         1.5050    1.5420    2.9120 n4        1 X6W     -0.769000
      6 CAA         1.0570    1.6820    4.3130 c3        1 X6W      0.075100
      7 NAJ         2.2690   -0.2080   -1.0970 nc        1 X6W     -0.440800
      8 CAN         3.5730   -0.0530   -0.6910 cd        1 X6W      0.389800
      9 CAH         3.6120    0.0900    0.7480 cd        1 X6W     -0.213300
     10 CAL         4.7220   -0.0340   -1.5780 ca        1 X6W     -0.154500
     11 CAG         4.5880    0.3330   -2.9250 ca        1 X6W     -0.100500
     12 CAE         5.7060    0.3500   -3.7570 ca        1 X6W     -0.127500
     13 CAC         6.9600    0.0010   -3.2570 ca        1 X6W     -0.100000
     14 CAD         7.0970   -0.3690   -1.9180 ca        1 X6W     -0.127500
     15 CAF         5.9860   -0.3880   -1.0800 ca        1 X6W     -0.100500
     16 HAB1       -0.1070   -1.4460    0.4280 h1        1 X6W      0.071033
     17 HAB2       -0.4490    0.3520    0.5810 h1        1 X6W      0.071033
     18 HAB3       -0.3180   -0.4210   -1.0740 h1        1 X6W      0.071033
     19 HAI1        2.4840   -0.3300    3.2560 hx        1 X6W      0.114700
     20 HAI2        0.7540   -0.4440    2.6430 hx        1 X6W      0.114700
     21 HAH         4.4980    0.2200    1.3610 ha        1 X6W      0.178000
     22 HAK         0.8030    1.9460    2.2790 hn        1 X6W      0.455300
     23 HAA1        0.0960    1.1190    4.4600 hx        1 X6W      0.109367
     24 HAA2        0.8940    2.7690    4.5460 hx        1 X6W      0.109367
     25 HAA3        1.8400    1.2660    5.0020 hx        1 X6W      0.109367
     26 HAG         3.6030    0.6070   -3.3320 ha        1 X6W      0.137000
     27 HAF         6.0980   -0.6940   -0.0290 ha        1 X6W      0.137000
     28 HAE         5.5950    0.6380   -4.8140 ha        1 X6W      0.146000
     29 HAC         7.8410    0.0140   -3.9170 ha        1 X6W      0.147000
     30 HAD         8.0850   -0.6510   -1.5230 ha        1 X6W      0.146000
     31 HAK2        2.3810    2.0620    2.7710 hn        1 X6W      0.455300
@<TRIPOS>BOND
     1    1    2 1   
     2    1   16 1   
     3    1   17 1   
     4    1   18 1   
     5    2    3 1   
     6    2    7 1   
     7    3    4 1   
     8    3    9 2   
     9    4    5 1   
    10    4   19 1   
    11    4   20 1   
    12    5    6 1   
    13    5   22 1   
    14    5   31 1   
    15    6   23 1   
    16    6   24 1   
    17    6   25 1   
    18    7    8 2   
    19    8    9 1   
    20    8   10 1   
    21    9   21 1   
    22   10   11 ar  
    23   10   15 ar  
    24   11   12 ar  
    25   11   26 1   
    26   12   13 ar  
    27   12   28 1   
    28   13   14 ar  
    29   13   29 1   
    30   14   15 ar  
    31   14   30 1   
    32   15   27 1   
@<TRIPOS>SUBSTRUCTURE
     1 X6W         1 TEMP              0 ****  ****    0 ROOT
