@<TRIPOS>MOLECULE
X6W
   31    32     1     0     0
SMALL
bcc


@<TRIPOS>ATOM
      1 CAB         0.0880   -0.4800    0.0040 c3        1 X6W      0.025600
      2 NAO         1.5010   -0.1740    0.0000 na        1 X6W      0.121400
      3 CAM         2.2750    0.0200    1.1670 cc        1 X6W     -0.260600
      4 CAI         1.7480    0.1210    2.5360 c3        1 X6W      0.209100
      5 NAK         1.4990    1.5660    2.8970 ny        1 X6W     -0.769000
      6 CAA         1.0550    1.7240    4.2980 c3        1 X6W      0.075100
      7 NAJ         2.2700   -0.2430   -1.0840 nc        1 X6W     -0.440800
      8 CAN         3.5740   -0.0630   -0.6860 cd        1 X6W      0.389800
      9 CAH         3.6170    0.1050    0.7500 cd        1 X6W     -0.213300
     10 CAL         4.7190   -0.0430   -1.5790 ca        1 X6W     -0.154500
     11 CAG         4.5740    0.2970   -2.9310 ca        1 X6W     -0.100500
     12 CAE         5.6890    0.3160   -3.7680 ca        1 X6W     -0.127500
     13 CAC         6.9500   -0.0070   -3.2670 ca        1 X6W     -0.100000
     14 CAD         7.0970   -0.3510   -1.9230 ca        1 X6W     -0.127500
     15 CAF         5.9890   -0.3710   -1.0800 ca        1 X6W     -0.100500
     16 HAB1       -0.3130   -0.4920   -1.0460 h1        1 X6W      0.071033
     17 HAB2       -0.0820   -1.4870    0.4720 h1        1 X6W      0.071033
     18 HAB3       -0.4480    0.3080    0.5950 h1        1 X6W      0.071033
     19 HAI1        0.7740   -0.4350    2.6660 hx        1 X6W      0.114700
     20 HAI2        2.5050   -0.2870    3.2690 hx        1 X6W      0.114700
     21 HAH         4.5030    0.2580    1.3570 ha        1 X6W      0.178000
     22 HAK         2.3670    2.0950    2.7430 hn        1 X6W      0.455300
     23 HAA1        1.8470    1.3300    4.9910 hx        1 X6W      0.109367
     24 HAA2        0.1030    1.1510    4.4590 hx        1 X6W      0.109367
     25 HAA3        0.8790    2.8130    4.5130 hx        1 X6W      0.109367
     26 HAG         3.5830    0.5490   -3.3390 ha        1 X6W      0.137000
     27 HAF         6.1110   -0.6560   -0.0250 ha        1 X6W      0.137000
     28 HAE         5.5690    0.5830   -4.8290 ha        1 X6W      0.146000
     29 HAC         7.8270    0.0070   -3.9320 ha        1 X6W      0.147000
     30 HAD         8.0910   -0.6120   -1.5280 ha        1 X6W      0.146000
     31 HAK2        0.7890    1.9490    2.2610 hn        1 X6W      0.455300
@<TRIPOS>BOND
     1    1    2 1   
     2    1   16 1   
     3    1   17 1   
     4    1   18 1   
     5    2    3 1   
     6    2    7 1   
     7    3    4 1   
     8    3    9 2   
     9    4    5 1   
    10    4   19 1   
    11    4   20 1   
    12    5    6 1   
    13    5   22 1   
    14    5   31 1   
    15    6   23 1   
    16    6   24 1   
    17    6   25 1   
    18    7    8 2   
    19    8    9 1   
    20    8   10 1   
    21    9   21 1   
    22   10   11 ar  
    23   10   15 ar  
    24   11   12 ar  
    25   11   26 1   
    26   12   13 ar  
    27   12   28 1   
    28   13   14 ar  
    29   13   29 1   
    30   14   15 ar  
    31   14   30 1   
    32   15   27 1   
@<TRIPOS>SUBSTRUCTURE
     1 X6W         1 TEMP              0 ****  ****    0 ROOT
