@<TRIPOS>MOLECULE
X72
   31    27     1     0     0
SMALL
bcc


@<TRIPOS>ATOM
      1 N01        -0.6950    0.2220   -0.0310 n3        1 X72     -0.305000
      2 N02         2.6840    0.4370    2.6980 n         1 X72     -0.422000
      3 N03        -5.2460   -0.0080    0.2580 n1        1 X72     -0.161000
      4 N04        -4.2390   -0.5570    2.3290 n1        1 X72     -0.161000
      5 N05         4.5820    0.3710   -2.1790 n2        1 X72      0.580000
      6 C06         3.0580    0.3950   -0.2380 c1        1 X72      0.007000
      7 C07         1.7770    0.3260    0.2820 c2        1 X72     -0.214000
      8 C08         0.6660    0.1880   -0.5820 c2        1 X72      0.200000
      9 C09         0.8590    0.1220   -1.9430 c2        1 X72     -0.240000
     10 C10         2.1620    0.1930   -2.4720 c1        1 X72      0.058000
     11 C11         3.2540    0.3290   -1.6190 c2        1 X72     -0.200000
     12 C12         1.5640    0.3180    1.8170 c2        1 X72      0.356000
     13 C13        -1.6410   -0.7730   -0.4030 c3        1 X72      0.020000
     14 C14        -2.9760   -0.5110    0.3350 c2        1 X72     -0.214000
     15 C15        -4.0860   -0.1590   -0.3670 c2        1 X72     -0.018000
     16 C16        -5.3290   -0.2100    1.6340 c1        1 X72     -0.022000
     17 C17        -3.0590   -0.7100    1.6980 c1        1 X72     -0.018000
     18 O18         0.4550    0.2570    2.2650 o         1 X72     -0.391000
     19 O19         4.7580    0.3090   -3.5380 os        1 X72     -0.335000
     20 O20         5.5410    0.5240   -1.4520 o         1 X72     -0.370000
     21 CL21        2.4130    0.0240   -4.1710 cl        1 X72      0.048000
     22 HN01       -0.9410    0.8880    0.4910 hn        1 X72      0.264000
     23 H102        2.5550    0.7040    3.5810 hn        1 X72      0.234000
     24 H202        3.5150    0.2680    2.3960 hn        1 X72      0.234000
     25 H06         3.8450    0.4940    0.3760 DU        1 X72      0.169000
     26 H09         0.0920    0.0270   -2.5430 ha        1 X72      0.161000
     27 H113       -1.3000   -1.6550   -0.1590 h1        1 X72      0.096500
     28 H213       -1.7940   -0.7360   -1.4000 h1        1 X72      0.096500
     29 H15        -4.0290   -0.0140   -1.3610 h4        1 X72      0.171000
     30 H16        -6.1820   -0.0990    2.0910 ha        1 X72      0.199000
     31 H17        -2.2610   -0.9640    2.2060 ha        1 X72      0.175000
@<TRIPOS>BOND
     1    1    8 1   
     2    1   13 1   
     3    1   22 1   
     4    2   12 1   
     5    2   23 1   
     6    2   24 1   
     7    3   15 1   
     8    4   16 1   
     9    5   11 1   
    10    5   20 1   
    11    6    7 1   
    12    6   11 1   
    13    7    8 1   
    14    7   12 1   
    15    8    9 1   
    16    9   10 1   
    17    9   26 1   
    18   10   11 1   
    19   12   18 1   
    20   13   14 1   
    21   13   27 1   
    22   13   28 1   
    23   14   15 1   
    24   14   17 1   
    25   15   29 1   
    26   16   30 1   
    27   17   31 1   
@<TRIPOS>SUBSTRUCTURE
     1 X72         1 TEMP              0 ****  ****    0 ROOT
