@<TRIPOS>MOLECULE
X72
   32    41     1     0     0
SMALL
bcc


@<TRIPOS>ATOM
      1 N01         0.0000    0.0000    0.0000 ny        1 X72      0.049000
      2 N02         3.1180    0.1160    2.7930 nz        1 X72      0.254000
      3 N03        -4.1490    1.2050    0.8910 na        1 X72      0.057000
      4 N04        -4.2210   -1.0870    0.6740 n2        1 X72     -0.036000
      5 C06         3.6930    0.0000    0.0000 c2        1 X72     -0.010000
      6 C07         2.3750    0.0000    0.4680 c3        1 X72     -0.482000
      7 C08         1.3140    0.0010   -0.4510 DU        1 X72     -0.110000
      8 C09         1.5840    0.0020   -1.8130 c2        1 X72     -0.290000
      9 C10         2.8910    0.0030   -2.2590 c2        1 X72     -0.093000
     10 C11         3.9420    0.0020   -1.3550 c2        1 X72     -0.309000
     11 C13        -1.1030    0.1250   -0.9570 c3        1 X72     -0.062000
     12 C14        -2.4150    0.0970   -0.2170 c2        1 X72      0.192000
     13 C15        -2.9950    1.2680    0.2450 c2        1 X72     -0.089000
     14 C16        -4.7430    0.0470    1.0970 c2        1 X72      0.040000
     15 C17        -3.0710   -1.1010    0.0200 c2        1 X72      0.122000
     16 O18         0.9610   -0.1120    2.3190 oh        1 X72     -0.362000
     17 O19         6.2620    0.0130   -1.0530 o         1 X72     -0.682700
     18 O20         5.5620    0.0100   -3.0430 o         1 X72     -0.682700
     19 Cl21        3.2210    0.0050   -3.9640 cl        1 X72      0.334000
     20 HN01        0.7020   -0.0580    0.7110 DU        1 X72      0.322000
     21 H102        3.5490    0.0570    1.8920 hn        1 X72      0.115000
     22 H202        2.2490    0.2060    2.3060 DU        1 X72     -0.505000
     23 H06         3.5100    0.3200    1.0190 DU        1 X72      0.246000
     24 H09         1.9380   -0.1190   -0.7970 DU        1 X72      0.211000
     25 H113       -0.0640    0.1020   -0.6500 DU        1 X72      0.303000
     26 H213       -0.2750    0.0710   -1.6530 hx        1 X72      0.217000
     27 H15        -2.3720    0.6310   -0.3710 h4        1 X72      0.140000
     28 H16        -3.8750    0.2840    0.4940 DU        1 X72      0.203000
     29 H17        -2.9200   -0.0290   -0.0090 h4        1 X72     -0.417000
     30 H023        2.1770   -0.2110    2.7070 DU        1 X72      0.178000
     31 C12         2.1030   -0.0030    1.9160 c3        1 X72      0.599000
     32 N05         5.3380    0.0090   -1.8460 no        1 X72      1.548400
@<TRIPOS>BOND
     1    1    7 1   
     2    1   11 1   
     3    1   20 1   
     4    1   25 1   
     5    2   21 1   
     6    2   22 1   
     7    2   30 1   
     8    2   31 1   
     9    3   13 1   
    10    3   14 1   
    11    3   28 1   
    12    4   14 1   
    13    4   15 1   
    14    5    6 1   
    15    5   10 1   
    16    5   23 1   
    17    6    7 1   
    18    6   23 1   
    19    6   31 1   
    20    7    8 1   
    21    7   20 1   
    22    7   24 1   
    23    8    9 1   
    24    8   24 1   
    25    9   10 1   
    26    9   19 1   
    27   10   32 1   
    28   11   12 1   
    29   11   25 1   
    30   11   26 1   
    31   12   13 1   
    32   12   15 1   
    33   13   27 1   
    34   14   28 1   
    35   15   29 1   
    36   16   30 1   
    37   16   31 1   
    38   17   32 2   
    39   18   32 2   
    40   22   30 1   
    41   30   31 1   
@<TRIPOS>SUBSTRUCTURE
     1 X72         1 TEMP              0 ****  ****    0 ROOT
