@<TRIPOS>MOLECULE
X72
   31    29     1     0     0
SMALL
bcc


@<TRIPOS>ATOM
      1 N01         0.4380    0.1250   -0.1090 nh        1 X72     -0.311000
      2 N02         3.2480   -1.1610    2.5410 n         1 X72     -0.422000
      3 N03        -5.9480    1.3790   -0.0560 n2        1 X72     -0.359500
      4 N04        -4.9160   -0.7900    2.1570 n2        1 X72     -0.359500
      5 N05         5.8610   -0.0680   -1.8340 no        1 X72      0.579000
      6 C06         4.1310   -0.1040   -0.0700 ca        1 X72      0.005000
      7 C07         2.8200   -0.0670    0.3850 ca        1 X72     -0.212000
      8 C08         1.7440    0.1440   -0.5350 ca        1 X72      0.201000
      9 C09         2.0770    0.3170   -1.9070 ca        1 X72     -0.239000
     10 C10         3.3920    0.2620   -2.3540 ca        1 X72      0.058000
     11 C11         4.4360    0.0300   -1.4350 ca        1 X72     -0.200000
     12 C13        -0.6460    0.4760   -0.9980 c3        1 X72      0.054000
     13 C14        -1.9850    0.3660   -0.3560 c2        1 X72     -0.489000
     14 C15        -4.9880    1.5900   -0.7010 c1        1 X72      0.057500
     15 C16        -6.0430   -0.4540    2.1880 c1        1 X72      0.057500
     16 C17        -2.3980   -0.3720    0.6410 c1        1 X72      0.161000
     17 O18         1.7010    0.4930    2.4390 o         1 X72     -0.390000
     18 O19         6.6890    0.3250   -1.0520 o         1 X72     -0.353000
     19 O20         6.1670   -0.5660   -2.8810 o         1 X72     -0.353000
     20 CL21        3.6720    0.5300   -4.0000 cl        1 X72      0.048000
     21 HN01        0.2750    0.2640    0.8700 hn        1 X72      0.262000
     22 H102        3.0950   -1.2600    3.5140 hn        1 X72      0.233000
     23 H202        3.9070   -1.7450    2.0960 hn        1 X72      0.233000
     24 H06         4.9630   -0.2240    0.6490 ha        1 X72      0.170000
     25 H09         1.2810    0.5100   -2.6440 ha        1 X72      0.162000
     26 H113       -0.6240   -0.2230   -1.8880 h1        1 X72      0.099500
     27 H213       -0.5110    1.5320   -1.3820 h1        1 X72      0.099500
     28 H15        -2.7680    1.0160   -0.8350 ha        1 X72      0.246000
     29 H16        -6.7260    1.1840    0.4960 hn        1 X72      0.301000
     30 H17        -3.9770   -1.0540    2.1130 hn        1 X72      0.301000
     31 C12         2.5470   -0.2110    1.8430 c2        1 X72      0.357000
@<TRIPOS>BOND
     1    1    8 1   
     2    1   12 1   
     3    1   21 1   
     4    2   22 1   
     5    2   23 1   
     6    2   31 1   
     7    3   14 1   
     8    3   29 1   
     9    4   15 1   
    10    4   30 1   
    11    5   11 1   
    12    5   18 1   
    13    5   19 1   
    14    6    7 1   
    15    6   11 1   
    16    6   24 1   
    17    7    8 1   
    18    7   31 1   
    19    8    9 1   
    20    9   10 1   
    21    9   25 1   
    22   10   11 1   
    23   10   20 1   
    24   12   13 1   
    25   12   26 1   
    26   12   27 1   
    27   13   16 1   
    28   13   28 1   
    29   17   31 1   
@<TRIPOS>SUBSTRUCTURE
     1 X72         1 TEMP              0 ****  ****    0 ROOT
