@<TRIPOS>MOLECULE
X72
   31    32     1     0     0
SMALL
bcc


@<TRIPOS>ATOM
      1 N01         1.2650   -0.1660   -0.1210 nh        1 X72     -0.749600
      2 N02        -0.6990   -3.7070   -0.5930 n         1 X72     -0.662000
      3 N03         5.5090   -0.1200   -1.0180 nb        1 X72     -0.687000
      4 N04         5.6470    1.0600    1.1060 nb        1 X72     -0.687000
      5 N05        -4.4190   -0.1280    0.2210 no        1 X72      0.325200
      6 C06        -2.2470   -1.3030    0.1430 ca        1 X72      0.007000
      7 C07        -0.8610   -1.3490    0.0710 ca        1 X72     -0.234600
      8 C08        -0.1050   -0.1390   -0.0270 ca        1 X72      0.281600
      9 C09        -0.8280    1.0850   -0.0960 ca        1 X72     -0.240000
     10 C10        -2.2160    1.1180   -0.0360 ca        1 X72      0.136400
     11 C11        -2.9400   -0.0820    0.1100 ca        1 X72     -0.245200
     12 C13         2.0460    1.0460   -0.0400 c3        1 X72      0.264100
     13 C14         3.5140    0.7850    0.0040 ca        1 X72     -0.351900
     14 C15         4.1780    0.0900   -1.0310 ca        1 X72      0.447200
     15 C16         6.1810    0.3790    0.0560 ca        1 X72      0.640900
     16 C17         4.3130    1.2530    1.0690 ca        1 X72      0.447200
     17 O18         0.8700   -2.8500    0.8030 o         1 X72     -0.630100
     18 O19        -4.9860   -1.0720   -0.2680 o         1 X72     -0.202500
     19 O20        -5.0130    0.7290    0.8130 o         1 X72     -0.202500
     20 CL21       -2.9730    2.6240   -0.1800 cl        1 X72     -0.030400
     21 HN01        1.7290   -1.0160    0.1340 hn        1 X72      0.468800
     22 H102       -1.5060   -3.5880   -1.1500 hn        1 X72      0.320500
     23 H202       -0.2650   -4.5960   -0.5550 hn        1 X72      0.320500
     24 H06        -2.8280   -2.2400    0.2420 ha        1 X72      0.169000
     25 H09        -0.2840    2.0370   -0.2030 ha        1 X72      0.161000
     26 H113        1.8180    1.6750   -0.9530 h1        1 X72      0.057200
     27 H213        1.7450    1.6470    0.8710 h1        1 X72      0.057200
     28 H15         3.6230   -0.3110   -1.8990 h4        1 X72      0.036100
     29 H16         7.2790    0.2130    0.0770 h5        1 X72      0.062100
     30 H17         3.8730    1.8020    1.9220 h4        1 X72      0.036100
     31 C12        -0.1700   -2.6690    0.1290 c         1 X72      0.682700
@<TRIPOS>BOND
     1    1    8 1   
     2    1   12 1   
     3    1   21 1   
     4    2   22 1   
     5    2   23 1   
     6    2   31 1   
     7    3   14 ar  
     8    3   15 ar  
     9    4   15 ar  
    10    4   16 ar  
    11    5   11 1   
    12    5   18 1   
    13    5   19 1   
    14    6    7 ar  
    15    6   11 ar  
    16    6   24 1   
    17    7    8 ar  
    18    7   31 1   
    19    8    9 ar  
    20    9   10 ar  
    21    9   25 1   
    22   10   11 ar  
    23   10   20 1   
    24   12   13 1   
    25   12   26 1   
    26   12   27 1   
    27   13   14 ar  
    28   13   16 ar  
    29   14   28 1   
    30   15   29 1   
    31   16   30 1   
    32   17   31 2   
@<TRIPOS>SUBSTRUCTURE
     1 X72         1 TEMP              0 ****  ****    0 ROOT
