@<TRIPOS>MOLECULE
X73
   32    33     1     0     0
SMALL
bcc


@<TRIPOS>ATOM
      1 N01         0.0640    0.1340   -0.1620 nh        1 X73     -0.750600
      2 N02        -2.1770   -3.2340   -0.7120 n         1 X73     -0.663000
      3 N03         4.5580    1.1390    0.9990 nb        1 X73     -0.651000
      4 N04        -5.5750    0.6590    0.2350 no        1 X73      0.325200
      5 C05        -3.5220   -0.7520    0.1250 ca        1 X73      0.007000
      6 C06        -2.1420   -0.8940    0.0290 ca        1 X73     -0.239600
      7 C07        -1.2970    0.2600   -0.0350 ca        1 X73      0.280600
      8 C08        -1.9260    1.5410   -0.0250 ca        1 X73     -0.237000
      9 C09        -3.2970    1.6710    0.0590 ca        1 X73      0.002000
     10 C10        -4.1070    0.5220    0.1380 ca        1 X73     -0.257200
     11 C12         0.9370    1.2800   -0.0670 c3        1 X73      0.260100
     12 C13         2.3860    0.9090   -0.0670 ca        1 X73     -0.232600
     13 C14         3.2390    1.3900    0.9490 ca        1 X73      0.427200
     14 C15         5.0780    0.3700    0.0120 ca        1 X73      0.498300
     15 C16         4.3100   -0.1640   -1.0450 ca        1 X73     -0.234300
     16 C17         2.9440    0.1170   -1.0760 ca        1 X73     -0.068000
     17 O18        -0.5060   -2.5460    0.6540 o         1 X73     -0.632100
     18 O19        -6.2520   -0.3350    0.2700 o         1 X73     -0.217500
     19 O20        -6.0580    1.7600    0.2710 o         1 X73     -0.217500
     20 CL21        6.7520    0.0270    0.0460 cl        1 X73     -0.138000
     21 HN01        0.4710   -0.7580    0.0400 hn        1 X73      0.468800
     22 H102       -3.0040   -3.0460   -1.2170 hn        1 X73      0.319000
     23 H202       -1.8200   -4.1570   -0.7010 hn        1 X73      0.319000
     24 H05        -4.1730   -1.6410    0.2100 ha        1 X73      0.169000
     25 H08        -1.3140    2.4550   -0.0820 ha        1 X73      0.150000
     26 H09        -3.7620    2.6740    0.0690 ha        1 X73      0.171000
     27 H112        0.7380    1.9510   -0.9560 h1        1 X73      0.056200
     28 H212        0.7020    1.8730    0.8670 h1        1 X73      0.056200
     29 H14         2.8480    2.0150    1.7740 h4        1 X73      0.033100
     30 H16         4.7780   -0.7850   -1.8210 ha        1 X73      0.162000
     31 H17         2.3160   -0.2800   -1.8880 ha        1 X73      0.152000
     32 C11        -1.5520   -2.2620    0.0250 c         1 X73      0.682700
@<TRIPOS>BOND
     1    1    7 1   
     2    1   11 1   
     3    1   21 1   
     4    2   22 1   
     5    2   23 1   
     6    2   32 1   
     7    3   13 ar  
     8    3   14 ar  
     9    4   10 1   
    10    4   18 1   
    11    4   19 1   
    12    5    6 ar  
    13    5   10 ar  
    14    5   24 1   
    15    6    7 ar  
    16    6   32 1   
    17    7    8 ar  
    18    8    9 ar  
    19    8   25 1   
    20    9   10 ar  
    21    9   26 1   
    22   11   12 1   
    23   11   27 1   
    24   11   28 1   
    25   12   13 ar  
    26   12   16 ar  
    27   13   29 1   
    28   14   15 ar  
    29   14   20 1   
    30   15   16 ar  
    31   15   30 1   
    32   16   31 1   
    33   17   32 2   
@<TRIPOS>SUBSTRUCTURE
     1 X73         1 TEMP              0 ****  ****    0 ROOT
