@<TRIPOS>MOLECULE
X73
   32    27     1     0     0
SMALL
bcc


@<TRIPOS>ATOM
      1 N01        -0.4560    0.1870   -0.0290 n3        1 X73     -0.725800
      2 N02         2.8540    0.6290    2.7420 n         1 X73     -0.662000
      3 N03        -4.1380   -0.5280    2.1640 n1        1 X73     -0.121000
      4 N04         4.8700    0.3770   -2.0650 ne        1 X73      0.482300
      5 C05         3.2920    0.4710   -0.1630 c1        1 X73      0.065500
      6 C06         1.9920    0.3980    0.3360 cg        1 X73     -0.190200
      7 C07         0.9270    0.1500   -0.5320 c1        1 X73      0.257800
      8 C08         1.1630   -0.0220   -1.8880 c1        1 X73     -0.181500
      9 C09         2.4700    0.0520   -2.3870 c1        1 X73      0.059500
     10 C10         3.5280    0.2980   -1.5260 cg        1 X73     -0.162000
     11 C11         1.7470    0.4760    1.8400 c         1 X73      0.632300
     12 C12        -1.4170   -0.8110   -0.4690 c3        1 X73      0.260000
     13 C13        -2.7780   -0.5420    0.2010 ce        1 X73     -0.164200
     14 C14        -2.9090   -0.6670    1.5760 ce        1 X73     -0.042000
     15 C15        -5.2330   -0.2680    1.4000 c1        1 X73      0.092900
     16 C16        -5.1050   -0.1420    0.0220 ch        1 X73     -0.205300
     17 C17        -3.8760   -0.2810   -0.5680 cf        1 X73     -0.033700
     18 O18         0.6160    0.4120    2.2740 o         1 X73     -0.634100
     19 O19         5.0710    0.2770   -3.4000 os        1 X73     -0.365000
     20 O20         5.8170    0.5390   -1.3170 o         1 X73     -0.325300
     21 CL21       -6.8070   -0.1170    2.1510 cl        1 X73     -0.061900
     22 HN01       -0.7060    0.8250    0.5790 hn        1 X73      0.468800
     23 H102        3.6900    0.7770    2.4140 hn        1 X73      0.319500
     24 H202        2.7160    0.5910    3.6540 hn        1 X73      0.319500
     25 H05         4.0450    0.6460    0.4480 ha        1 X73      0.111500
     26 H08         0.4140   -0.1960   -2.4980 ha        1 X73      0.091500
     27 H09         2.6350   -0.0700   -3.3470 ha        1 X73      0.113500
     28 H112       -1.5160   -0.7630   -1.4510 h1        1 X73      0.056200
     29 H212       -1.1020   -1.6970   -0.2180 h1        1 X73      0.056200
     30 H14        -2.1300   -0.8520    2.1210 h4        1 X73      0.179000
     31 H16        -5.8880    0.0440   -0.5240 DU        1 X73      0.162000
     32 H17        -3.7860   -0.1920   -1.5400 ha        1 X73      0.147000
@<TRIPOS>BOND
     1    1    7 1   
     2    1   12 1   
     3    1   22 1   
     4    2   11 1   
     5    2   23 1   
     6    2   24 1   
     7    3   14 2   
     8    4   10 1   
     9    4   20 2   
    10    5    6 3   
    11    5   25 1   
    12    6   11 1   
    13    7    8 3   
    14    8   26 1   
    15    9   10 3   
    16    9   27 1   
    17   11   18 2   
    18   12   13 1   
    19   12   28 1   
    20   12   29 1   
    21   13   14 1   
    22   13   17 2   
    23   14   30 1   
    24   15   16 3   
    25   15   21 1   
    26   16   17 1   
    27   17   32 1   
@<TRIPOS>SUBSTRUCTURE
     1 X73         1 TEMP              0 ****  ****    0 ROOT
