@<TRIPOS>MOLECULE
X73
   32    31     1     0     0
SMALL
bcc


@<TRIPOS>ATOM
      1 N01         0.5290   -0.0310   -0.1480 n3        1 X73     -0.253000
      2 N02         3.5590    0.1660    2.7030 n         1 X73     -0.420000
      3 N03        -5.1620   -0.9840    1.0480 n2        1 X73     -0.295000
      4 N04         5.9200   -0.2070   -1.9130 no        1 X73      0.588000
      5 C05         4.2110   -0.2600   -0.1200 c2        1 X73      0.118000
      6 C06         2.8990   -0.1870    0.3600 c2        1 X73     -0.327000
      7 C07         1.8140   -0.0020   -0.5430 c2        1 X73      0.196000
      8 C08         2.1360    0.2440   -2.0020 c3        1 X73     -0.185000
      9 C09         3.5230    0.1810   -2.4250 c1        1 X73     -0.088000
     10 C10         4.5050   -0.1010   -1.4830 c2        1 X73     -0.286000
     11 C12        -0.5710    0.1740   -1.0670 c3        1 X73      0.048000
     12 C13        -1.8920    0.1600   -0.3790 c2        1 X73     -0.522000
     13 C14        -4.3390   -1.7990    0.8020 c1        1 X73      0.140000
     14 C15        -6.1050   -0.0190    1.3270 c2        1 X73      0.049000
     15 C16        -5.9200    1.2970    1.1140 c2        1 X73     -0.203000
     16 C17        -2.7010    1.1700   -0.1650 c1        1 X73      0.232000
     17 O18         1.6160   -0.9020    2.2670 o         1 X73     -0.415000
     18 O19         6.7710   -0.1900   -1.0520 o         1 X73     -0.371000
     19 O20         6.2040   -0.3170   -3.0700 o         1 X73     -0.371000
     20 CL21       -7.5930   -0.5870    1.9880 cl        1 X73     -0.001000
     21 HN01        0.3010   -0.2570    0.8060 hn        1 X73      0.286000
     22 H102        3.4140    0.0320    3.6740 hn        1 X73      0.233500
     23 H202        4.3830    0.6170    2.4000 hn        1 X73      0.233500
     24 H05         5.0410   -0.4580    0.5880 ha        1 X73      0.166000
     25 H08         1.7540    1.2690   -2.2920 hc        1 X73      0.165500
     26 H09         1.5760   -0.5060   -2.6390 hc        1 X73      0.165500
     27 H112       -0.4210    1.1590   -1.6010 h1        1 X73      0.107000
     28 H212       -0.5590   -0.6440   -1.8490 h1        1 X73      0.107000
     29 H14        -2.2390   -0.8470   -0.0330 ha        1 X73      0.228000
     30 H16        -4.9850    1.7030    0.6930 ha        1 X73      0.155000
     31 H17        -6.7010    2.0300    1.3520 ha        1 X73      0.155000
     32 C11         2.6470   -0.3440    1.8170 c2        1 X73      0.361000
@<TRIPOS>BOND
     1    1    7 1   
     2    1   11 1   
     3    1   21 1   
     4    2   22 1   
     5    2   23 1   
     6    2   32 1   
     7    3   13 1   
     8    3   14 1   
     9    4   10 1   
    10    4   18 1   
    11    4   19 1   
    12    5    6 1   
    13    5   10 1   
    14    5   24 1   
    15    6    7 1   
    16    6   32 1   
    17    7    8 1   
    18    8    9 1   
    19    8   25 1   
    20    8   26 1   
    21    9   10 1   
    22   11   12 1   
    23   11   27 1   
    24   11   28 1   
    25   12   16 1   
    26   12   29 1   
    27   14   15 1   
    28   14   20 1   
    29   15   30 1   
    30   15   31 1   
    31   17   32 1   
@<TRIPOS>SUBSTRUCTURE
     1 X73         1 TEMP              0 ****  ****    0 ROOT
