@<TRIPOS>MOLECULE
X73
   33    31     1     0     0
SMALL
bcc


@<TRIPOS>ATOM
      1 N01        -0.0940    0.0780   -1.1940 n7        1 X73     -0.222000
      2 N02         2.6850    0.9660    2.9210 n9        1 X73     -0.448000
      3 N03        -2.9060   -0.2560    1.6820 n2        1 X73     -0.184000
      4 N04         5.5080   -0.8630   -0.6180 no        1 X73      0.587000
      5 C05         3.2250   -0.7090    0.3180 c2        1 X73      0.122000
      6 C06         1.8130   -0.4640    0.2140 c2        1 X73     -0.320000
      7 C07         1.2130   -0.1100   -1.0500 c2        1 X73      0.204000
      8 C08         2.1510    0.0450   -2.2310 c3        1 X73     -0.212000
      9 C09         3.5670   -0.1850   -2.0460 c1        1 X73      0.024000
     10 C10         4.0450   -0.5900   -0.7790 c2        1 X73     -0.244000
     11 C12        -0.6820    0.4440   -2.4810 c3        1 X73      0.034000
     12 C13        -2.1630    0.5030   -2.4260 c2        1 X73     -0.557000
     13 C14        -1.9460   -0.1890    1.0100 c1        1 X73     -0.008000
     14 C15        -4.0310   -0.3610    2.4830 c2        1 X73      0.001000
     15 C16        -4.9520    0.6130    2.6130 c2        1 X73     -0.142000
     16 C17        -2.9240    1.5670   -2.2590 c1        1 X73      0.318000
     17 O18         0.4560   -0.7020    2.3440 o         1 X73      0.031000
     18 O19         5.9460   -0.8190    0.5030 o         1 X73     -0.323000
     19 O20         6.1700   -1.1240   -1.5730 o         1 X73     -0.323000
     20 Cl21       -4.1960   -1.8460    3.3290 cl        1 X73      0.045000
     21 HN01       -0.7490   -0.0250   -0.4060 hn        1 X73      0.305000
     22 H102        2.3140    0.8420    3.8420 hn        1 X73      0.154000
     23 H202        3.6580    0.7280    2.9380 hn        1 X73      0.154000
     24 H05         3.6350   -0.9970    1.3100 ha        1 X73      0.194000
     25 H08         1.8280   -0.6580   -3.0650 hc        1 X73      0.195500
     26 H09         2.0460    1.0960   -2.6490 hc        1 X73      0.195500
     27 H112       -0.2580    1.4460   -2.7900 h1        1 X73      0.127000
     28 H212       -0.3650   -0.3190   -3.2540 h1        1 X73      0.127000
     29 H14        -2.6890   -0.4630   -2.6040 ha        1 X73      0.217000
     30 H16        -4.8860    1.5780    2.0910 ha        1 X73      0.163000
     31 H17        -5.8300    0.4780    3.2630 ha        1 X73      0.163000
     32 H023        2.6030    1.9320    2.6760 hn        1 X73      0.154000
     33 C11         1.0820   -0.5610    1.3710 c1        1 X73      0.466000
@<TRIPOS>BOND
     1    1    7 1   
     2    1   11 1   
     3    1   21 1   
     4    2   22 1   
     5    2   23 1   
     6    2   32 1   
     7    3   13 1   
     8    3   14 1   
     9    4   10 1   
    10    4   18 1   
    11    4   19 1   
    12    5    6 1   
    13    5   10 1   
    14    5   24 1   
    15    6    7 1   
    16    6   33 1   
    17    7    8 1   
    18    8    9 1   
    19    8   25 1   
    20    8   26 1   
    21    9   10 1   
    22   11   12 1   
    23   11   27 1   
    24   11   28 1   
    25   12   16 1   
    26   12   29 1   
    27   14   15 1   
    28   14   20 1   
    29   15   30 1   
    30   15   31 1   
    31   17   33 1   
@<TRIPOS>SUBSTRUCTURE
     1 X73         1 TEMP              0 ****  ****    0 ROOT
