@<TRIPOS>MOLECULE
X73
   33    32     1     0     0
SMALL
bcc


@<TRIPOS>ATOM
      1 N01         0.5730    0.9580   -0.5900 n3        1 X73     -0.207000
      2 N02         3.6650    1.0580    2.5670 n4        1 X73     -0.141000
      3 N03        -4.6330   -0.3510    1.2160 n2        1 X73     -0.251000
      4 N04         5.4770   -1.8730   -1.1810 no        1 X73      0.584000
      5 C05         3.9450   -0.4270    0.1090 c2        1 X73      0.080000
      6 C06         2.7540    0.3200    0.3170 c2        1 X73     -0.366000
      7 C07         1.7500    0.3480   -0.7210 c2        1 X73      0.205000
      8 C08         2.0680   -0.3560   -2.0260 c3        1 X73     -0.214000
      9 C09         3.3160   -1.0730   -2.1640 c1        1 X73      0.017000
     10 C10         4.2010   -1.1030   -1.0650 c2        1 X73     -0.245000
     11 C12        -0.4280    0.9900   -1.6550 c3        1 X73      0.047000
     12 C13        -1.6240    1.7620   -1.2560 c2        1 X73     -0.587000
     13 C14        -3.7520    0.1620    0.6240 c1        1 X73      0.083000
     14 C15        -5.6550   -0.9590    1.9170 c2        1 X73      0.031000
     15 C16        -6.9640   -0.7820    1.6590 c2        1 X73     -0.170000
     16 C17        -1.9980    2.9760   -1.5920 c1        1 X73      0.304000
     17 O18         1.5660    1.6850    1.9310 o         1 X73     -0.263000
     18 O19         6.2570   -1.7650   -0.2650 o         1 X73     -0.332000
     19 O20         5.6840   -2.5560   -2.1330 o         1 X73     -0.332000
     20 CL21       -5.1590   -2.0030    3.1960 cl        1 X73      0.009000
     21 HN01        0.3160    1.4270    0.2630 hn        1 X73      0.278000
     22 H102        3.3820    1.6510    3.3580 hn        1 X73      0.264333
     23 H202        3.8500    0.1110    2.9080 hn        1 X73      0.264333
     24 H05         4.7100   -0.4850    0.9100 ha        1 X73      0.149000
     25 H08         1.2480   -1.1070   -2.2600 hc        1 X73      0.195000
     26 H09         2.0430    0.4030   -2.8720 hc        1 X73      0.195000
     27 H112        0.0490    1.4400   -2.5760 h1        1 X73      0.121500
     28 H212       -0.7240   -0.0750   -1.8970 h1        1 X73      0.121500
     29 H14        -2.3630    1.2080   -0.6020 ha        1 X73      0.260000
     30 H16        -7.3320   -0.1280    0.8570 ha        1 X73      0.156000
     31 H17        -7.7350   -1.2940    2.2530 ha        1 X73      0.156000
     32 H023        4.5200    1.4360    2.1490 hn        1 X73      0.264333
     33 C11         2.5390    1.0370    1.5390 c2        1 X73      0.323000
@<TRIPOS>BOND
     1    1    7 1   
     2    1   11 1   
     3    1   21 1   
     4    2   22 1   
     5    2   23 1   
     6    2   32 1   
     7    2   33 1   
     8    3   13 1   
     9    3   14 1   
    10    4   10 1   
    11    4   18 1   
    12    4   19 1   
    13    5    6 1   
    14    5   10 1   
    15    5   24 1   
    16    6    7 1   
    17    6   33 1   
    18    7    8 1   
    19    8    9 1   
    20    8   25 1   
    21    8   26 1   
    22    9   10 1   
    23   11   12 1   
    24   11   27 1   
    25   11   28 1   
    26   12   16 1   
    27   12   29 1   
    28   14   15 1   
    29   14   20 1   
    30   15   30 1   
    31   15   31 1   
    32   17   33 1   
@<TRIPOS>SUBSTRUCTURE
     1 X73         1 TEMP              0 ****  ****    0 ROOT
