@<TRIPOS>MOLECULE
X75
   33    32     1     0     0
SMALL
bcc


@<TRIPOS>ATOM
      1 N01         0.5780    0.9290   -0.6660 nh        1 X75     -0.261000
      2 N02         3.5680    0.8110    2.5900 n4        1 X75     -0.144000
      3 N03        -4.7150   -0.2070    1.3570 n2        1 X75     -0.259000
      4 N04         5.6810   -1.4820   -1.4050 no        1 X75      0.580000
      5 C05         4.0400   -0.2580   -0.0430 ca        1 X75      0.011000
      6 C06         2.7880    0.3410    0.2240 ca        1 X75     -0.308000
      7 C07         1.7670    0.3060   -0.7990 ca        1 X75      0.253000
      8 C08         2.0650   -0.4410   -1.9940 ca        1 X75     -0.234000
      9 C09         3.2810   -1.0450   -2.2130 ca        1 X75      0.078000
     10 C10         4.3100   -0.9170   -1.2270 ca        1 X75     -0.178000
     11 C12        -0.4600    0.9020   -1.6860 c3        1 X75      0.057000
     12 C13        -1.6440    1.6960   -1.2790 c2        1 X75     -0.574000
     13 C14        -3.8190    0.2440    0.7360 c1        1 X75      0.095000
     14 C15        -5.7540   -0.7420    2.0910 c2        1 X75      0.035000
     15 C16        -7.0570   -0.5030    1.8530 c2        1 X75     -0.174000
     16 C17        -2.0050    2.9030   -1.6540 c1        1 X75      0.286000
     17 O18         1.5700    1.6450    1.8740 o         1 X75     -0.242000
     18 O19         6.1710   -1.5480   -2.4900 o         1 X75     -0.324500
     19 O20         6.2590   -1.8120   -0.4010 o         1 X75     -0.324500
     20 CL21        3.4970   -1.9390   -3.6180 cl        1 X75      0.116000
     21 CL22       -5.2910   -1.7790    3.3890 cl        1 X75      0.005000
     22 HN01        0.3610    1.4410    0.1670 hn        1 X75      0.271000
     23 H102        3.2040    1.2240    3.4580 hn        1 X75      0.263333
     24 H202        3.7680   -0.1810    2.7420 hn        1 X75      0.263333
     25 H05         4.8590   -0.2040    0.6990 ha        1 X75      0.148000
     26 H08         1.2810   -0.5400   -2.7680 ha        1 X75      0.185000
     27 H112       -0.0280    1.3080   -2.6480 h1        1 X75      0.113000
     28 H212       -0.7700   -0.1700   -1.8620 h1        1 X75      0.113000
     29 H14        -2.3620    1.1730   -0.5860 ha        1 X75      0.251000
     30 H16        -7.4050    0.1490    1.0400 ha        1 X75      0.154500
     31 H17        -7.8420   -0.9580    2.4730 ha        1 X75      0.154500
     32 H023        4.4350    1.2910    2.3310 hn        1 X75      0.263333
     33 C11         2.5270    0.9770    1.4860 c2        1 X75      0.326000
@<TRIPOS>BOND
     1    1    7 1   
     2    1   11 1   
     3    1   22 1   
     4    2   23 1   
     5    2   24 1   
     6    2   32 1   
     7    2   33 1   
     8    3   13 1   
     9    3   14 1   
    10    4   10 1   
    11    4   18 1   
    12    4   19 1   
    13    5    6 1   
    14    5   10 1   
    15    5   25 1   
    16    6    7 1   
    17    6   33 1   
    18    7    8 1   
    19    8    9 1   
    20    8   26 1   
    21    9   10 1   
    22    9   20 1   
    23   11   12 1   
    24   11   27 1   
    25   11   28 1   
    26   12   16 1   
    27   12   29 1   
    28   14   15 1   
    29   14   21 1   
    30   15   30 1   
    31   15   31 1   
    32   17   33 1   
@<TRIPOS>SUBSTRUCTURE
     1 X75         1 TEMP              0 ****  ****    0 ROOT
