@<TRIPOS>MOLECULE
X75
   33    34     1     0     0
SMALL
bcc


@<TRIPOS>ATOM
      1 N01         0.0510   -0.0000   -0.0990 nu        1 X75     -0.243000
      2 N02         3.1830    1.1410    2.7580 nz        1 X75     -0.148000
      3 N03        -4.7810   -0.4560   -0.6540 n2        1 X75     -0.177000
      4 N04         5.5550   -0.1540   -1.5360 no        1 X75      0.580000
      5 C05         3.7500    0.1650    0.1020 ca        1 X75      0.014000
      6 C06         2.4060    0.2420    0.5260 ca        1 X75     -0.312000
      7 C07         1.3530    0.0210   -0.4390 ca        1 X75      0.250000
      8 C08         1.7570   -0.1650   -1.8110 ca        1 X75     -0.237000
      9 C09         3.0750   -0.2010   -2.2020 ca        1 X75      0.077000
     10 C10         4.1010   -0.0670   -1.2140 ca        1 X75     -0.184000
     11 C12        -1.0180   -0.1860   -1.0610 c3        1 X75      0.027000
     12 C13        -2.3730   -0.1480   -0.4230 c2        1 X75     -0.273000
     13 C14        -3.4970   -0.4950   -1.1570 c2        1 X75      0.089000
     14 C15        -4.9490   -0.0820    0.6000 c2        1 X75      0.048000
     15 C16        -3.8210    0.2960    1.5180 c3        1 X75     -0.224000
     16 C17        -2.4950    0.2420    0.9260 c1        1 X75     -0.133000
     17 O18         1.0490    0.3510    2.5420 o         1 X75     -0.220000
     18 O19         5.9400   -0.8630   -2.4150 o         1 X75     -0.327000
     19 O20         6.2980    0.4870   -0.8370 o         1 X75     -0.327000
     20 Cl21        3.4270   -0.3670   -3.8370 cl        1 X75      0.109000
     21 Cl22       -6.5110   -0.0070    1.2590 cl        1 X75      0.084000
     22 HN01       -0.2570    0.1540    0.8540 hn        1 X75      0.303000
     23 H102        2.7760    1.4670    3.6420 hn        1 X75      0.261000
     24 H202        3.9080    0.4480    2.9640 hn        1 X75      0.261000
     25 H05         4.5740    0.2700    0.8340 ha        1 X75      0.148000
     26 H08         0.9750   -0.2820   -2.5830 ha        1 X75      0.180000
     27 H112       -0.8740   -1.1810   -1.5800 h1        1 X75      0.107500
     28 H212       -0.9570    0.6310   -1.8410 h1        1 X75      0.107500
     29 H14        -3.4520   -0.8320   -2.2130 h4        1 X75      0.180000
     30 H16        -3.9860    1.3430    1.9180 hc        1 X75      0.197000
     31 H17        -3.8250   -0.3780    2.4290 hc        1 X75      0.197000
     32 H023        3.6070    1.9300    2.2630 hn        1 X75      0.261000
     33 C11         2.0830    0.5110    1.9010 c2        1 X75      0.324000
@<TRIPOS>BOND
     1    1    7 1   
     2    1   11 1   
     3    1   22 1   
     4    2   23 1   
     5    2   24 1   
     6    2   32 1   
     7    2   33 1   
     8    3   13 1   
     9    3   14 1   
    10    4   10 1   
    11    4   18 1   
    12    4   19 1   
    13    5    6 1   
    14    5   10 1   
    15    5   25 1   
    16    6    7 1   
    17    6   33 1   
    18    7    8 1   
    19    8    9 1   
    20    8   26 1   
    21    9   10 1   
    22    9   20 1   
    23   11   12 1   
    24   11   27 1   
    25   11   28 1   
    26   12   13 1   
    27   12   16 1   
    28   13   29 1   
    29   14   15 1   
    30   14   21 1   
    31   15   16 1   
    32   15   30 1   
    33   15   31 1   
    34   17   33 1   
@<TRIPOS>SUBSTRUCTURE
     1 X75         1 TEMP              0 ****  ****    0 ROOT
