@<TRIPOS>MOLECULE
X75
   32    31     1     0     0
SMALL
bcc


@<TRIPOS>ATOM
      1 N01         0.6720   -0.4560   -0.1410 nh        1 X75     -0.308000
      2 N02         3.7430   -1.6610    2.2610 n         1 X75     -0.422000
      3 N03        -6.5260   -0.5820    1.0260 n2        1 X75     -0.301000
      4 N04         5.9950    0.6910   -1.8040 no        1 X75      0.579000
      5 C05         4.3430    0.0010   -0.1010 ca        1 X75      0.007000
      6 C06         3.0600   -0.2960    0.3380 ca        1 X75     -0.214000
      7 C07         1.9430   -0.1260   -0.5410 ca        1 X75      0.204000
      8 C08         2.2060    0.3460   -1.8570 ca        1 X75     -0.242000
      9 C09         3.4970    0.6250   -2.2890 ca        1 X75      0.060000
     10 C10         4.5860    0.4380   -1.4140 ca        1 X75     -0.202000
     11 C12        -0.4790   -0.1430   -0.9550 c3        1 X75      0.057000
     12 C13        -1.7640   -0.4540   -0.2610 c2        1 X75     -0.504000
     13 C14        -6.3830   -1.7360    0.8030 c1        1 X75      0.158000
     14 C15        -6.6930    0.7590    1.2860 c2        1 X75      0.054000
     15 C16        -5.7320    1.6910    1.1520 c2        1 X75     -0.210000
     16 C17        -2.7000    0.3990    0.0790 c1        1 X75      0.218000
     17 O18         1.8970   -0.3590    2.4420 o         1 X75     -0.391000
     18 O19         6.3670    0.4640   -2.9210 o         1 X75     -0.352500
     19 O20         6.7490    1.0850   -0.9520 o         1 X75     -0.352500
     20 CL21        3.6830    1.2300   -3.8580 cl        1 X75      0.049000
     21 CL22       -8.2690    1.2280    1.8190 cl        1 X75     -0.017000
     22 HN01        0.5110   -0.5880    0.8380 hn        1 X75      0.266000
     23 H102        3.6360   -1.9620    3.1990 hn        1 X75      0.233500
     24 H202        4.4990   -2.0060    1.7290 hn        1 X75      0.233500
     25 H05         5.2000   -0.0860    0.5950 ha        1 X75      0.170000
     26 H08         1.3720    0.5030   -2.5600 ha        1 X75      0.161000
     27 H112       -0.4620    0.9490   -1.2520 h1        1 X75      0.095000
     28 H212       -0.4280   -0.7580   -1.9030 h1        1 X75      0.095000
     29 H14        -1.9340   -1.5320   -0.0430 ha        1 X75      0.209000
     30 H16        -4.7100    1.4470    0.8150 ha        1 X75      0.156000
     31 H17        -5.9270    2.7470    1.3760 ha        1 X75      0.156000
     32 C11         2.8540   -0.7580    1.7400 c2        1 X75      0.357000
@<TRIPOS>BOND
     1    1    7 1   
     2    1   11 1   
     3    1   22 1   
     4    2   23 1   
     5    2   24 1   
     6    2   32 1   
     7    3   13 1   
     8    3   14 1   
     9    4   10 1   
    10    4   18 1   
    11    4   19 1   
    12    5    6 1   
    13    5   10 1   
    14    5   25 1   
    15    6    7 1   
    16    6   32 1   
    17    7    8 1   
    18    8    9 1   
    19    8   26 1   
    20    9   10 1   
    21    9   20 1   
    22   11   12 1   
    23   11   27 1   
    24   11   28 1   
    25   12   16 1   
    26   12   29 1   
    27   14   15 1   
    28   14   21 1   
    29   15   30 1   
    30   15   31 1   
    31   17   32 1   
@<TRIPOS>SUBSTRUCTURE
     1 X75         1 TEMP              0 ****  ****    0 ROOT
