@<TRIPOS>MOLECULE
X75
   32    33     1     0     0
SMALL
bcc


@<TRIPOS>ATOM
      1 N01         0.4800   -0.1430   -0.1820 nh        1 X75     -0.749600
      2 N02        -1.4880   -3.6850   -0.7040 n         1 X75     -0.662000
      3 N03         4.8590    1.2430    1.0100 nb        1 X75     -0.650000
      4 N04        -5.1910   -0.1530    0.3230 no        1 X75      0.325200
      5 C05        -3.0160   -1.3110    0.1470 ca        1 X75      0.008000
      6 C06        -1.6330   -1.3470    0.0300 ca        1 X75     -0.235600
      7 C07        -0.8860   -0.1290   -0.0560 ca        1 X75      0.284600
      8 C08        -1.6180    1.0910   -0.0760 ca        1 X75     -0.241000
      9 C09        -3.0030    1.1140    0.0260 ca        1 X75      0.137400
     10 C10        -3.7170   -0.0940    0.1660 ca        1 X75     -0.247200
     11 C12         1.2550    1.0730   -0.1090 c3        1 X75      0.259100
     12 C13         2.7300    0.8220   -0.0830 ca        1 X75     -0.233600
     13 C14         3.5260    1.3860    0.9380 ca        1 X75      0.428200
     14 C15         5.4550    0.5040    0.0420 ca        1 X75      0.498300
     15 C16         4.7480   -0.1060   -1.0170 ca        1 X75     -0.234300
     16 C17         3.3650    0.0630   -1.0710 ca        1 X75     -0.068000
     17 O18         0.1340   -2.8600    0.6480 o         1 X75     -0.630100
     18 O19        -5.7710    0.6890    0.9490 o         1 X75     -0.203000
     19 O20        -5.7660   -1.0910   -0.1660 o         1 X75     -0.203000
     20 CL21       -3.7740    2.6180   -0.0600 cl        1 X75     -0.031400
     21 CL22        7.1510    0.2990    0.1050 cl        1 X75     -0.138000
     22 HN01        0.9590   -0.9960    0.0340 hn        1 X75      0.469800
     23 H102       -2.3230   -3.5590   -1.2160 hn        1 X75      0.320500
     24 H202       -1.0530   -4.5740   -0.7010 hn        1 X75      0.320500
     25 H05        -3.5880   -2.2530    0.2420 ha        1 X75      0.169000
     26 H08        -1.0830    2.0490   -0.1780 ha        1 X75      0.162000
     27 H112        1.0140    1.7020   -1.0180 h1        1 X75      0.057700
     28 H212        0.9600    1.6690    0.8060 h1        1 X75      0.057700
     29 H14         3.0730    1.9900    1.7460 h4        1 X75      0.033100
     30 H16         5.2770   -0.6980   -1.7760 ha        1 X75      0.162000
     31 H17         2.7830   -0.3960   -1.8850 ha        1 X75      0.152000
     32 C11        -0.9340   -2.6640    0.0250 c         1 X75      0.682700
@<TRIPOS>BOND
     1    1    7 1   
     2    1   11 1   
     3    1   22 1   
     4    2   23 1   
     5    2   24 1   
     6    2   32 1   
     7    3   13 ar  
     8    3   14 ar  
     9    4   10 1   
    10    4   18 1   
    11    4   19 1   
    12    5    6 ar  
    13    5   10 ar  
    14    5   25 1   
    15    6    7 ar  
    16    6   32 1   
    17    7    8 ar  
    18    8    9 ar  
    19    8   26 1   
    20    9   10 ar  
    21    9   20 1   
    22   11   12 1   
    23   11   27 1   
    24   11   28 1   
    25   12   13 ar  
    26   12   16 ar  
    27   13   29 1   
    28   14   15 ar  
    29   14   21 1   
    30   15   16 ar  
    31   15   30 1   
    32   16   31 1   
    33   17   32 2   
@<TRIPOS>SUBSTRUCTURE
     1 X75         1 TEMP              0 ****  ****    0 ROOT
