@<TRIPOS>MOLECULE
X76
   31    45     1     0     0
SMALL
bcc


@<TRIPOS>ATOM
      1 N01         0.0000    0.0000    0.0000 ny        1 X76      0.054000
      2 N02         3.1190    0.1190    2.7930 nz        1 X76      0.523000
      3 N03        -4.2100   -1.1320    0.6660 n2        1 X76      0.063000
      4 C04         3.6920    0.0000    0.0000 c2        1 X76      0.029000
      5 C05         2.3760    0.0000    0.4680 c3        1 X76     -0.405000
      6 C06         1.3140   -0.0010   -0.4510 DU        1 X76     -0.109000
      7 C07         1.5840   -0.0010   -1.8140 c3        1 X76     -0.233000
      8 C08         2.8910   -0.0010   -2.2600 DU        1 X76      0.041000
      9 C09         3.9410   -0.0010   -1.3550 c2        1 X76     -0.255000
     10 C11        -1.1020    0.1240   -0.9560 c3        1 X76     -0.007000
     11 C12        -2.4150    0.0970   -0.2160 c2        1 X76     -0.310000
     12 C13        -3.0620   -1.1010    0.0180 c3        1 X76     -0.115000
     13 C14        -4.7850   -0.0330    1.1140 c3        1 X76      0.105000
     14 C15        -4.1960    1.2020    0.9170 c3        1 X76     -0.366000
     15 C16        -2.9880    1.2750    0.2400 c2        1 X76     -0.207000
     16 O17         0.9610   -0.1090    2.3200 oh        1 X76     -0.243000
     17 HN01        0.7050   -0.1800    0.6870 DU        1 X76      0.220000
     18 H102        2.2410    0.0790    2.3130 DU        1 X76     -0.570000
     19 H202        3.7670    0.8710    2.9170 hn        1 X76      0.090000
     20 H04         3.4760    0.1400    1.0520 DU        1 X76      0.165000
     21 H07         2.4060   -0.0010   -1.1090 DU        1 X76      0.489000
     22 H08         1.8160   -0.0010   -2.3960 DU        1 X76      0.133000
     23 H09         3.5150   -0.0010   -2.3510 DU        1 X76      0.180000
     24 H111       -0.0280    0.1020   -1.0910 DU        1 X76      0.214000
     25 H211       -1.0660   -0.7010   -1.6580 hx        1 X76      0.061000
     26 H13        -2.3980   -0.4000   -0.4720 h1        1 X76      0.292000
     27 H14        -4.0700   -0.6920    0.6350 DU        1 X76      0.157000
     28 H15        -4.9730    0.5430    1.2850 DU        1 X76      0.164000
     29 H16        -3.8360    1.6930    0.7670 DU        1 X76      0.232000
     30 H023        2.2900    0.4310    2.3260 DU        1 X76     -0.199000
     31 C10         2.1030   -0.0000    1.9160 c3        1 X76      0.807000
@<TRIPOS>BOND
     1    1    6 1   
     2    1   10 1   
     3    1   17 1   
     4    1   24 1   
     5    2   18 1   
     6    2   19 1   
     7    2   30 1   
     8    2   31 1   
     9    3   12 1   
    10    3   13 1   
    11    4    5 1   
    12    4    9 1   
    13    4   20 1   
    14    5    6 1   
    15    5   20 1   
    16    5   31 1   
    17    6    7 1   
    18    6   17 1   
    19    6   21 1   
    20    7    8 1   
    21    7   21 1   
    22    7   22 1   
    23    8    9 1   
    24    8   21 1   
    25    8   22 1   
    26    8   23 1   
    27    9   23 1   
    28   10   11 1   
    29   10   24 1   
    30   10   25 1   
    31   11   12 1   
    32   11   15 1   
    33   12   26 1   
    34   12   27 1   
    35   13   14 1   
    36   13   27 1   
    37   13   28 1   
    38   14   15 1   
    39   14   28 1   
    40   14   29 1   
    41   15   29 1   
    42   16   18 1   
    43   16   31 1   
    44   18   30 1   
    45   30   31 1   
@<TRIPOS>SUBSTRUCTURE
     1 X76         1 TEMP              0 ****  ****    0 ROOT
