@<TRIPOS>MOLECULE
X76
   30    31     1     0     0
SMALL
bcc


@<TRIPOS>ATOM
      1 N01        -0.0700    0.2320   -0.2850 nh        1 X76     -0.744600
      2 N02        -2.8370   -2.6890   -0.6980 n         1 X76     -0.670000
      3 N03         4.5080    0.5050    1.0520 nb        1 X76     -0.664000
      4 C04        -3.7450   -0.0210    0.2210 ca        1 X76     -0.066000
      5 C05        -2.4080   -0.3980    0.0650 ca        1 X76     -0.213600
      6 C06        -1.3950    0.5940   -0.0540 ca        1 X76      0.216600
      7 C07        -1.7960    1.9560   -0.0220 ca        1 X76     -0.207000
      8 C08        -3.1300    2.3020    0.1290 ca        1 X76     -0.069000
      9 C09        -4.1130    1.3190    0.2560 ca        1 X76     -0.188000
     10 C11         0.9720    1.2120   -0.0720 c3        1 X76      0.247100
     11 C12         2.3460    0.6190   -0.0480 ca        1 X76     -0.220600
     12 C13         3.2450    0.9640    0.9830 ca        1 X76      0.406200
     13 C14         4.9170   -0.3340    0.0800 ca        1 X76      0.398200
     14 C15         4.0960   -0.7420   -0.9870 ca        1 X76     -0.246300
     15 C16         2.7910   -0.2530   -1.0480 ca        1 X76     -0.075000
     16 O17        -1.0900   -2.3140    0.6950 o         1 X76     -0.634100
     17 HN01        0.1730   -0.6980    0.0020 hn        1 X76      0.441800
     18 H102       -3.5770   -2.3420   -1.2490 hn        1 X76      0.313000
     19 H202       -2.6230   -3.6540   -0.7260 hn        1 X76      0.313000
     20 H04        -4.5200   -0.7950    0.3380 ha        1 X76      0.132000
     21 H07        -1.0470    2.7550   -0.1190 ha        1 X76      0.137000
     22 H08        -3.4150    3.3650    0.1530 ha        1 X76      0.133000
     23 H09        -5.1670    1.6010    0.3870 ha        1 X76      0.136000
     24 H111        0.9220    1.9570   -0.9230 h1        1 X76      0.048700
     25 H211        0.8000    1.7870    0.8870 h1        1 X76      0.048700
     26 H13         2.9380    1.6450    1.7980 h4        1 X76      0.024100
     27 H14         5.9570   -0.6970    0.1670 h4        1 X76      0.023100
     28 H15         4.4790   -1.4300   -1.7510 ha        1 X76      0.145000
     29 H16         2.1210   -0.5480   -1.8700 ha        1 X76      0.149000
     30 C10        -2.0560   -1.8440    0.0530 c         1 X76      0.682700
@<TRIPOS>BOND
     1    1    6 1   
     2    1   10 1   
     3    1   17 1   
     4    2   18 1   
     5    2   19 1   
     6    2   30 1   
     7    3   12 ar  
     8    3   13 ar  
     9    4    5 ar  
    10    4    9 ar  
    11    4   20 1   
    12    5    6 ar  
    13    5   30 1   
    14    6    7 ar  
    15    7    8 ar  
    16    7   21 1   
    17    8    9 ar  
    18    8   22 1   
    19    9   23 1   
    20   10   11 1   
    21   10   24 1   
    22   10   25 1   
    23   11   12 ar  
    24   11   15 ar  
    25   12   26 1   
    26   13   14 ar  
    27   13   27 1   
    28   14   15 ar  
    29   14   28 1   
    30   15   29 1   
    31   16   30 2   
@<TRIPOS>SUBSTRUCTURE
     1 X76         1 TEMP              0 ****  ****    0 ROOT
