@<TRIPOS>MOLECULE
X76
   32    32     1     0     0
SMALL
bcc


@<TRIPOS>ATOM
      1 N01         0.1010    0.5330   -0.0340 n4        1 X76      0.003000
      2 N02         3.4270    1.1580    2.8200 n4        1 X76     -0.131000
      3 N03        -5.4420   -1.2600   -0.0600 n3        1 X76     -0.149000
      4 C04         3.8590    0.5320   -0.0120 c2        1 X76     -0.048000
      5 C05         2.5370    0.5470    0.5400 c2        1 X76     -0.322000
      6 C06         1.4610    0.1100   -0.3660 c2        1 X76     -0.036000
      7 C07         1.7200   -0.6180   -1.4920 c2        1 X76     -0.127000
      8 C08         3.0920   -1.1490   -1.7910 c3        1 X76     -0.133000
      9 C09         3.9600   -0.4760   -0.8840 c1        1 X76      0.153000
     10 C11        -0.9480    0.3380   -1.1100 c3        1 X76     -0.069000
     11 C12        -2.2360    0.9190   -0.6290 c2        1 X76     -0.188000
     12 C13        -6.4330   -2.0630   -0.2270 c1        1 X76      0.384000
     13 C14        -4.8910   -0.8680    1.1610 c2        1 X76     -0.406000
     14 C15        -3.7650   -0.0500    1.2660 c2        1 X76      0.085000
     15 C16        -2.9410    0.3490    0.3030 c1        1 X76     -0.357000
     16 O17         1.1650    1.1570    2.4140 o         1 X76     -0.251000
     17 HN01       -0.2120    0.0220    0.8100 hn        1 X76      0.266000
     18 H102        3.9810    0.3000    2.9060 hn        1 X76      0.274333
     19 H202        3.0670    1.4200    3.7520 hn        1 X76      0.274333
     20 H04         4.6740    1.2100    0.2820 ha        1 X76      0.209000
     21 H07         3.1380   -2.2760   -1.6610 hc        1 X76      0.221000
     22 H08         0.9660   -0.8510   -2.2640 ha        1 X76      0.202000
     23 H09         3.3680   -0.9660   -2.8800 hc        1 X76      0.221000
     24 H111       -0.5890    0.8570   -2.0410 hx        1 X76      0.134000
     25 H211       -1.0370   -0.7700   -1.2920 hx        1 X76      0.134000
     26 H13        -2.5290    1.8590   -1.1300 ha        1 X76      0.151000
     27 H14        -5.0040   -0.8270   -0.8700 hn        1 X76      0.290000
     28 H15        -5.4230   -1.2130    2.0600 h4        1 X76      0.189000
     29 H16        -3.5320    0.2780    2.3040 ha        1 X76      0.169000
     30 H012        0.1190    1.5340    0.2150 hn        1 X76      0.266000
     31 H023        4.0280    1.9130    2.4740 hn        1 X76      0.274333
     32 C10         2.2570    0.9420    1.8850 c2        1 X76      0.319000
@<TRIPOS>BOND
     1    1    6 1   
     2    1   10 1   
     3    1   17 1   
     4    1   30 1   
     5    2   18 1   
     6    2   19 1   
     7    2   31 1   
     8    2   32 1   
     9    3   12 1   
    10    3   13 1   
    11    3   27 1   
    12    4    5 1   
    13    4    9 1   
    14    4   20 1   
    15    5    6 1   
    16    5   32 1   
    17    6    7 1   
    18    7    8 1   
    19    7   22 1   
    20    8    9 1   
    21    8   21 1   
    22    8   23 1   
    23   10   11 1   
    24   10   24 1   
    25   10   25 1   
    26   11   15 1   
    27   11   26 1   
    28   13   14 1   
    29   13   28 1   
    30   14   15 1   
    31   14   29 1   
    32   16   32 1   
@<TRIPOS>SUBSTRUCTURE
     1 X76         1 TEMP              0 ****  ****    0 ROOT
