@<TRIPOS>MOLECULE
X7E
   44    46     1     0     0
SMALL
bcc


@<TRIPOS>ATOM
      1 CAN         0.3890   -0.5060    0.5900 ca        1 X7E     -0.135000
      2 CAW         1.6690   -0.2110    1.0830 ca        1 X7E      0.091900
      3 FAG         2.7580   -0.8140    0.5540 f         1 X7E     -0.122900
      4 CAV         1.8180    0.7270    2.1400 ca        1 X7E      0.100900
      5 FAF         3.0470    1.0210    2.6170 f         1 X7E     -0.121900
      6 CAL         0.6780    1.3430    2.6810 ca        1 X7E     -0.142000
      7 CAJ        -0.5830    1.0360    2.1810 ca        1 X7E     -0.105000
      8 CAU        -0.7350    0.1170    1.1380 ca        1 X7E     -0.119300
      9 CAQ        -2.0900   -0.1800    0.5550 c3        1 X7E      0.258600
     10 OAC        -3.0130    0.8830    0.7990 oh        1 X7E     -0.598800
     11 CAS        -2.7220   -1.4470    1.0500 c2        1 X7E     -0.217400
     12 CAP        -3.7270   -2.0500    0.3480 c2        1 X7E      0.078400
     13 CAA        -4.3340   -1.4100   -0.8620 c3        1 X7E     -0.076900
     14 NAZ        -4.2180   -3.3150    0.7280 n         1 X7E     -0.339000
     15 CAB        -5.3190   -3.8940   -0.0020 c3        1 X7E      0.059300
     16 CAR        -3.5840   -4.0600    1.7330 c         1 X7E      0.566400
     17 SAE        -4.0500   -5.5620    2.1330 s         1 X7E     -0.565400
     18 NAO        -2.4830   -3.5020    2.3600 ns        1 X7E     -0.491900
     19 CAY        -2.1860   -2.0790    2.3070 c3        1 X7E      0.192200
     20 CAX        -2.6500   -1.3730    3.5680 ca        1 X7E     -0.090300
     21 CAM        -2.0090   -1.6980    4.7680 ca        1 X7E     -0.155000
     22 CAK        -3.6900   -0.4410    3.5600 ca        1 X7E     -0.135000
     23 CAH        -4.0960    0.1650    4.7490 ca        1 X7E     -0.097000
     24 CAI        -3.4750   -0.1490    5.9550 ca        1 X7E     -0.205000
     25 CAT        -2.4280   -1.0810    5.9560 ca        1 X7E      0.122100
     26 OAD        -1.7520   -1.4400    7.1010 oh        1 X7E     -0.497100
     27 HAN         0.2850   -1.2350   -0.2290 ha        1 X7E      0.159000
     28 HAL         0.7960    2.0630    3.5050 ha        1 X7E      0.159000
     29 HAJ        -1.4770    1.5090    2.6210 ha        1 X7E      0.160000
     30 HAQ        -1.9540   -0.2700   -0.5690 h1        1 X7E      0.042700
     31 HAC        -2.5830    1.6980    0.5110 ho        1 X7E      0.406000
     32 HAY        -1.0490   -2.0070    2.2870 h1        1 X7E      0.079700
     33 HAA1       -4.1010   -0.3170   -0.8850 hc        1 X7E      0.063700
     34 HAA2       -3.9320   -1.8900   -1.7890 hc        1 X7E      0.063700
     35 HAA3       -5.4490   -1.5080   -0.8630 hc        1 X7E      0.063700
     36 HAB1       -6.2460   -3.2880    0.1770 h1        1 X7E      0.067367
     37 HAB2       -5.4990   -4.9520    0.3460 h1        1 X7E      0.067367
     38 HAB3       -5.0840   -3.9050   -1.1000 h1        1 X7E      0.067367
     39 HAO        -2.1680   -3.9880    3.1760 hn        1 X7E      0.345500
     40 HAM        -1.1800   -2.4200    4.7990 ha        1 X7E      0.149000
     41 HAK        -4.1760   -0.1680    2.6090 ha        1 X7E      0.160000
     42 HAH        -4.9180    0.8970    4.7350 ha        1 X7E      0.136000
     43 HAI        -3.8000    0.3230    6.8930 ha        1 X7E      0.135000
     44 HAD        -2.1620   -0.9760    7.8460 ho        1 X7E      0.420000
@<TRIPOS>BOND
     1    1    2 ar  
     2    1    8 ar  
     3    1   27 1   
     4    2    3 1   
     5    2    4 ar  
     6    4    5 1   
     7    4    6 ar  
     8    6    7 ar  
     9    6   28 1   
    10    7    8 ar  
    11    7   29 1   
    12    8    9 1   
    13    9   10 1   
    14    9   11 1   
    15    9   30 1   
    16   10   31 1   
    17   11   12 2   
    18   11   19 1   
    19   12   13 1   
    20   12   14 1   
    21   13   33 1   
    22   13   34 1   
    23   13   35 1   
    24   14   15 1   
    25   14   16 1   
    26   15   36 1   
    27   15   37 1   
    28   15   38 1   
    29   16   17 2   
    30   16   18 1   
    31   18   19 1   
    32   18   39 1   
    33   19   20 1   
    34   19   32 1   
    35   20   21 ar  
    36   20   22 ar  
    37   21   25 ar  
    38   21   40 1   
    39   22   23 ar  
    40   22   41 1   
    41   23   24 ar  
    42   23   42 1   
    43   24   25 ar  
    44   24   43 1   
    45   25   26 1   
    46   26   44 1   
@<TRIPOS>SUBSTRUCTURE
     1 X7E         1 TEMP              0 ****  ****    0 ROOT
