@<TRIPOS>MOLECULE
X7E
   44    46     1     0     0
SMALL
bcc


@<TRIPOS>ATOM
      1 CAN         0.4050   -0.5130    0.6200 ca        1 X7E     -0.135000
      2 CAW         1.6820   -0.2220    1.1260 ca        1 X7E      0.091900
      3 FAG         2.7740   -0.8280    0.6070 f         1 X7E     -0.122900
      4 CAV         1.8230    0.7160    2.1850 ca        1 X7E      0.100900
      5 FAF         3.0490    1.0050    2.6740 f         1 X7E     -0.121900
      6 CAL         0.6800    1.3350    2.7150 ca        1 X7E     -0.142000
      7 CAJ        -0.5770    1.0330    2.2030 ca        1 X7E     -0.105000
      8 CAU        -0.7210    0.1150    1.1570 ca        1 X7E     -0.120300
      9 CAQ        -2.0720   -0.1780    0.5610 c3        1 X7E      0.258600
     10 OAC        -2.9930    0.8880    0.7960 oh        1 X7E     -0.598800
     11 CAS        -2.7130   -1.4440    1.0500 c2        1 X7E     -0.217400
     12 CAP        -3.7130   -2.0430    0.3370 c2        1 X7E      0.078400
     13 CAA        -4.3060   -1.4010   -0.8790 c3        1 X7E     -0.076900
     14 NAZ        -4.2110   -3.3060    0.7120 n         1 X7E     -0.339000
     15 CAB        -5.3060   -3.8820   -0.0290 c3        1 X7E      0.059300
     16 CAR        -3.5900   -4.0540    1.7230 c         1 X7E      0.566400
     17 SAE        -4.0650   -5.5540    2.1190 s         1 X7E     -0.565400
     18 NAO        -2.4940   -3.4990    2.3610 n         1 X7E     -0.491900
     19 CAY        -2.1910   -2.0770    2.3120 c3        1 X7E      0.192200
     20 CAX        -2.6660   -1.3700    3.5690 ca        1 X7E     -0.090300
     21 CAM        -2.0370   -1.6960    4.7740 ca        1 X7E     -0.155000
     22 CAK        -3.7030   -0.4340    3.5500 ca        1 X7E     -0.135000
     23 CAH        -4.1190    0.1730    4.7350 ca        1 X7E     -0.097000
     24 CAI        -3.5110   -0.1430    5.9470 ca        1 X7E     -0.205000
     25 CAT        -2.4660   -1.0790    5.9580 ca        1 X7E      0.122100
     26 OAD        -1.8040   -1.4400    7.1100 oh        1 X7E     -0.497100
     27 HAN         0.3070   -1.2410   -0.2000 ha        1 X7E      0.159000
     28 HAL         0.7920    2.0550    3.5400 ha        1 X7E      0.159000
     29 HAJ        -1.4740    1.5080    2.6340 ha        1 X7E      0.160000
     30 HAQ        -1.9250   -0.2690   -0.5620 h1        1 X7E      0.042700
     31 HAC        -2.5590    1.7020    0.5130 ho        1 X7E      0.406000
     32 HAY        -1.0540   -2.0090    2.3030 h1        1 X7E      0.079700
     33 HAA1       -3.8960   -1.8820   -1.8010 hc        1 X7E      0.063700
     34 HAA2       -4.0690   -0.3080   -0.8980 hc        1 X7E      0.063700
     35 HAA3       -5.4210   -1.4950   -0.8900 hc        1 X7E      0.063700
     36 HAB1       -5.0610   -3.8930   -1.1250 h1        1 X7E      0.067367
     37 HAB2       -5.4940   -4.9390    0.3170 h1        1 X7E      0.067367
     38 HAB3       -6.2340   -3.2730    0.1410 h1        1 X7E      0.067367
     39 HAO        -2.1880   -3.9860    3.1810 hn        1 X7E      0.345500
     40 HAM        -1.2120   -2.4210    4.8140 ha        1 X7E      0.149000
     41 HAK        -4.1790   -0.1600    2.5940 ha        1 X7E      0.160000
     42 HAH        -4.9390    0.9070    4.7120 ha        1 X7E      0.136000
     43 HAI        -3.8430    0.3300    6.8810 ha        1 X7E      0.135000
     44 HAD        -2.2190   -0.9750    7.8510 ho        1 X7E      0.420000
@<TRIPOS>BOND
     1    1    2 ar  
     2    1    8 ar  
     3    1   27 1   
     4    2    3 1   
     5    2    4 ar  
     6    4    5 1   
     7    4    6 ar  
     8    6    7 ar  
     9    6   28 1   
    10    7    8 ar  
    11    7   29 1   
    12    8    9 1   
    13    9   10 1   
    14    9   11 1   
    15    9   30 1   
    16   10   31 1   
    17   11   12 2   
    18   11   19 1   
    19   12   13 1   
    20   12   14 1   
    21   13   33 1   
    22   13   34 1   
    23   13   35 1   
    24   14   15 1   
    25   14   16 1   
    26   15   36 1   
    27   15   37 1   
    28   15   38 1   
    29   16   17 2   
    30   16   18 1   
    31   18   19 1   
    32   18   39 1   
    33   19   20 1   
    34   19   32 1   
    35   20   21 ar  
    36   20   22 ar  
    37   21   25 ar  
    38   21   40 1   
    39   22   23 ar  
    40   22   41 1   
    41   23   24 ar  
    42   23   42 1   
    43   24   25 ar  
    44   24   43 1   
    45   25   26 1   
    46   26   44 1   
@<TRIPOS>SUBSTRUCTURE
     1 X7E         1 TEMP              0 ****  ****    0 ROOT
