@<TRIPOS>MOLECULE
X7E
   44    46     1     0     0
SMALL
bcc


@<TRIPOS>ATOM
      1 CAN         0.3940   -0.5120    0.5960 ca        1 X7E     -0.135000
      2 CAW         1.6730   -0.2180    1.0920 ca        1 X7E      0.091900
      3 FAG         2.7630   -0.8220    0.5670 f         1 X7E     -0.122900
      4 CAV         1.8200    0.7220    2.1480 ca        1 X7E      0.100900
      5 FAF         3.0490    1.0150    2.6280 f         1 X7E     -0.121900
      6 CAL         0.6790    1.3400    2.6860 ca        1 X7E     -0.142000
      7 CAJ        -0.5810    1.0340    2.1830 ca        1 X7E     -0.105000
      8 CAU        -0.7300    0.1130    1.1400 ca        1 X7E     -0.120300
      9 CAQ        -2.0850   -0.1830    0.5540 c3        1 X7E      0.258600
     10 OAC        -3.0060    0.8820    0.7940 oh        1 X7E     -0.598800
     11 CAS        -2.7200   -1.4490    1.0500 c2        1 X7E     -0.217400
     12 CAP        -3.7240   -2.0510    0.3450 c2        1 X7E      0.078400
     13 CAA        -4.3270   -1.4120   -0.8670 c3        1 X7E     -0.076900
     14 NAZ        -4.2180   -3.3140    0.7270 n         1 X7E     -0.339000
     15 CAB        -5.3170   -3.8930   -0.0050 c3        1 X7E      0.059300
     16 CAR        -3.5870   -4.0590    1.7340 c         1 X7E      0.566400
     17 SAE        -4.0570   -5.5590    2.1360 s         1 X7E     -0.565400
     18 NAO        -2.4870   -3.5010    2.3630 n         1 X7E     -0.491900
     19 CAY        -2.1870   -2.0790    2.3090 c3        1 X7E      0.192200
     20 CAX        -2.6540   -1.3710    3.5680 ca        1 X7E     -0.090300
     21 CAM        -2.0160   -1.6940    4.7690 ca        1 X7E     -0.155000
     22 CAK        -3.6920   -0.4360    3.5560 ca        1 X7E     -0.135000
     23 CAH        -4.1010    0.1720    4.7430 ca        1 X7E     -0.097000
     24 CAI        -3.4830   -0.1410    5.9500 ca        1 X7E     -0.205000
     25 CAT        -2.4370   -1.0750    5.9560 ca        1 X7E      0.122100
     26 OAD        -1.7650   -1.4340    7.1030 oh        1 X7E     -0.497100
     27 HAN         0.2910   -1.2420   -0.2220 ha        1 X7E      0.159000
     28 HAL         0.7960    2.0610    3.5090 ha        1 X7E      0.159000
     29 HAJ        -1.4760    1.5080    2.6190 ha        1 X7E      0.160000
     30 HAQ        -1.9450   -0.2750   -0.5700 h1        1 X7E      0.042700
     31 HAC        -2.5750    1.6960    0.5060 ho        1 X7E      0.406000
     32 HAY        -1.0510   -2.0090    2.2910 h1        1 X7E      0.079700
     33 HAA1       -3.9240   -1.8950   -1.7920 hc        1 X7E      0.063700
     34 HAA2       -4.0920   -0.3190   -0.8910 hc        1 X7E      0.063700
     35 HAA3       -5.4420   -1.5080   -0.8700 hc        1 X7E      0.063700
     36 HAB1       -5.0800   -3.9060   -1.1030 h1        1 X7E      0.067367
     37 HAB2       -6.2450   -3.2850    0.1710 h1        1 X7E      0.067367
     38 HAB3       -5.5000   -4.9500    0.3440 h1        1 X7E      0.067367
     39 HAO        -2.1740   -3.9870    3.1800 hn        1 X7E      0.345500
     40 HAM        -1.1890   -2.4180    4.8040 ha        1 X7E      0.149000
     41 HAK        -4.1750   -0.1650    2.6030 ha        1 X7E      0.160000
     42 HAH        -4.9210    0.9050    4.7250 ha        1 X7E      0.136000
     43 HAI        -3.8080    0.3330    6.8860 ha        1 X7E      0.135000
     44 HAD        -2.1750   -0.9680    7.8460 ho        1 X7E      0.420000
@<TRIPOS>BOND
     1    1    2 ar  
     2    1    8 ar  
     3    1   27 1   
     4    2    3 1   
     5    2    4 ar  
     6    4    5 1   
     7    4    6 ar  
     8    6    7 ar  
     9    6   28 1   
    10    7    8 ar  
    11    7   29 1   
    12    8    9 1   
    13    9   10 1   
    14    9   11 1   
    15    9   30 1   
    16   10   31 1   
    17   11   12 2   
    18   11   19 1   
    19   12   13 1   
    20   12   14 1   
    21   13   33 1   
    22   13   34 1   
    23   13   35 1   
    24   14   15 1   
    25   14   16 1   
    26   15   36 1   
    27   15   37 1   
    28   15   38 1   
    29   16   17 2   
    30   16   18 1   
    31   18   19 1   
    32   18   39 1   
    33   19   20 1   
    34   19   32 1   
    35   20   21 ar  
    36   20   22 ar  
    37   21   25 ar  
    38   21   40 1   
    39   22   23 ar  
    40   22   41 1   
    41   23   24 ar  
    42   23   42 1   
    43   24   25 ar  
    44   24   43 1   
    45   25   26 1   
    46   26   44 1   
@<TRIPOS>SUBSTRUCTURE
     1 X7E         1 TEMP              0 ****  ****    0 ROOT
