@<TRIPOS>MOLECULE
X7E
   44    46     1     0     0
SMALL
bcc


@<TRIPOS>ATOM
      1 CAN        -2.5070   -0.9020   -0.3450 ca        1 X7E     -0.142000
      2 CAW        -3.5900   -0.5240   -1.1540 ca        1 X7E      0.092900
      3 FAG        -4.0650   -1.3710   -2.0950 f         1 X7E     -0.123900
      4 CAV        -4.1860    0.7540   -0.9800 ca        1 X7E      0.095900
      5 FAF        -5.2280    1.1280   -1.7550 f         1 X7E     -0.123900
      6 CAL        -3.6850    1.6200    0.0060 ca        1 X7E     -0.142000
      7 CAJ        -2.6120    1.2260    0.8000 ca        1 X7E     -0.103000
      8 CAU        -2.0150   -0.0260    0.6260 ca        1 X7E     -0.104300
      9 CAQ        -0.9010   -0.4870    1.5290 c3        1 X7E      0.252600
     10 OAC        -0.5930    0.4720    2.5280 oh        1 X7E     -0.595800
     11 CAS         0.3350   -0.9220    0.7940 c2        1 X7E     -0.268400
     12 CAP         1.1270   -1.9270    1.2710 c2        1 X7E      0.081400
     13 CAA         0.8540   -2.5560    2.6040 c3        1 X7E     -0.080900
     14 NAZ         2.2250   -2.4020    0.5290 n         1 X7E     -0.341000
     15 CAB         3.0050   -3.5020    1.0420 c3        1 X7E      0.059300
     16 CAR         2.4890   -1.9160   -0.7610 c         1 X7E      0.567400
     17 SAE         3.7160   -2.4690   -1.6670 s         1 X7E     -0.562400
     18 NAO         1.6400   -0.9600   -1.2860 n         1 X7E     -0.494900
     19 CAY         0.6840   -0.2140   -0.4880 c3        1 X7E      0.191200
     20 CAX         1.1670    1.2020   -0.2280 ca        1 X7E     -0.099300
     21 CAM         0.7660    2.2160   -1.0980 ca        1 X7E     -0.146000
     22 CAK         2.0250    1.4900    0.8390 ca        1 X7E     -0.155000
     23 CAH         2.4820    2.7910    1.0410 ca        1 X7E     -0.091000
     24 CAI         2.0910    3.8190    0.1860 ca        1 X7E     -0.204000
     25 CAT         1.2310    3.5250   -0.8820 ca        1 X7E      0.125100
     26 OAD         0.7930    4.4800   -1.7700 oh        1 X7E     -0.494100
     27 HAN        -2.0520   -1.8950   -0.4850 ha        1 X7E      0.159000
     28 HAL        -4.1520    2.6070    0.1420 ha        1 X7E      0.157000
     29 HAJ        -2.2390    1.9060    1.5830 ha        1 X7E      0.154000
     30 HAQ        -1.3200   -1.3590    2.1240 h1        1 X7E      0.085700
     31 HAC        -0.0830    1.1780    2.1070 ho        1 X7E      0.413000
     32 HAY        -0.2570   -0.1430   -1.1260 h1        1 X7E      0.080700
     33 HAA1        0.2010   -3.4540    2.4700 hc        1 X7E      0.067033
     34 HAA2        1.7920   -2.8710    3.1250 hc        1 X7E      0.067033
     35 HAA3        0.3390   -1.8210    3.2730 hc        1 X7E      0.067033
     36 HAB1        2.3230   -4.3320    1.3690 h1        1 X7E      0.068033
     37 HAB2        3.7000   -3.8900    0.2420 h1        1 X7E      0.068033
     38 HAB3        3.6180   -3.1520    1.9150 h1        1 X7E      0.068033
     39 HAO         1.9410   -0.5370   -2.1400 hn        1 X7E      0.350500
     40 HAM         0.0950    2.0160   -1.9460 ha        1 X7E      0.156000
     41 HAK         2.3400    0.6830    1.5180 ha        1 X7E      0.145000
     42 HAH         3.1600    3.0090    1.8800 ha        1 X7E      0.140000
     43 HAI         2.4520    4.8450    0.3420 ha        1 X7E      0.139000
     44 HAD         1.2080    5.3220   -1.5320 ho        1 X7E      0.422000
@<TRIPOS>BOND
     1    1    2 ar  
     2    1    8 ar  
     3    1   27 1   
     4    2    3 1   
     5    2    4 ar  
     6    4    5 1   
     7    4    6 ar  
     8    6    7 ar  
     9    6   28 1   
    10    7    8 ar  
    11    7   29 1   
    12    8    9 1   
    13    9   10 1   
    14    9   11 1   
    15    9   30 1   
    16   10   31 1   
    17   11   12 2   
    18   11   19 1   
    19   12   13 1   
    20   12   14 1   
    21   13   33 1   
    22   13   34 1   
    23   13   35 1   
    24   14   15 1   
    25   14   16 1   
    26   15   36 1   
    27   15   37 1   
    28   15   38 1   
    29   16   17 2   
    30   16   18 1   
    31   18   19 1   
    32   18   39 1   
    33   19   20 1   
    34   19   32 1   
    35   20   21 ar  
    36   20   22 ar  
    37   21   25 ar  
    38   21   40 1   
    39   22   23 ar  
    40   22   41 1   
    41   23   24 ar  
    42   23   42 1   
    43   24   25 ar  
    44   24   43 1   
    45   25   26 1   
    46   26   44 1   
@<TRIPOS>SUBSTRUCTURE
     1 X7E         1 TEMP              0 ****  ****    0 ROOT
