@<TRIPOS>MOLECULE
X7O
   22    22     1     0     0
SMALL
bcc


@<TRIPOS>ATOM
      1 C1         -0.0240    0.3210   -0.0350 c         1 X7O      0.916600
      2 C2          1.4980   -0.1170   -0.0390 c3        1 X7O      0.000500
      3 C3          2.0510   -0.0810    1.4040 c3        1 X7O     -0.076700
      4 C4          2.1030   -1.5490    1.8350 c3        1 X7O     -0.111400
      5 C5          2.0760   -2.3500    0.5050 c3        1 X7O      0.388700
      6 C6          3.4050    0.5780    1.4800 c3        1 X7O     -0.087100
      7 O1         -0.2710    1.4250    0.4990 o         1 X7O     -0.796800
      8 N1          1.6840   -1.4770   -0.5670 n7        1 X7O     -0.825200
      9 N2          3.5200   -2.8720    0.2020 nz        1 X7O     -0.882600
     10 O2         -0.8410   -0.4860   -0.5530 o         1 X7O     -0.796800
     11 HC2         2.0560    0.5890   -0.7080 h1        1 X7O      0.079700
     12 HC3         1.3260    0.4970    2.0430 hc        1 X7O      0.123700
     13 HC41        2.9850   -1.7750    2.4780 hc        1 X7O      0.068700
     14 HC42        1.1750   -1.8180    2.4040 hc        1 X7O      0.068700
     15 HC5         1.4710   -3.3000    0.5770 hx        1 X7O      0.087700
     16 HC61        4.1500    0.0510    0.8340 hc        1 X7O      0.029700
     17 HC62        3.7860    0.5780    2.5300 hc        1 X7O      0.029700
     18 HC63        3.3280    1.6370    1.1310 hc        1 X7O      0.029700
     19 HN1         0.8450   -1.7840   -1.0420 hn        1 X7O      0.445800
     20 HN21        4.1680   -2.0810    0.1920 hn        1 X7O      0.435467
     21 HN22        3.7950   -3.5260    0.9290 hn        1 X7O      0.435467
     22 H23         3.5460   -3.3280   -0.7090 hn        1 X7O      0.435467
@<TRIPOS>BOND
     1    1    2 1   
     2    1    7 1   
     3    1   10 1   
     4    2    3 1   
     5    2    8 1   
     6    2   11 1   
     7    3    4 1   
     8    3    6 1   
     9    3   12 1   
    10    4    5 1   
    11    4   13 1   
    12    4   14 1   
    13    5    8 1   
    14    5    9 1   
    15    5   15 1   
    16    6   16 1   
    17    6   17 1   
    18    6   18 1   
    19    8   19 1   
    20    9   20 1   
    21    9   21 1   
    22    9   22 1   
@<TRIPOS>SUBSTRUCTURE
     1 X7O         1 TEMP              0 ****  ****    0 ROOT
