@<TRIPOS>MOLECULE
X7O
   22    22     1     0     0
SMALL
bcc


@<TRIPOS>ATOM
      1 C1         -0.0120    0.3330   -0.0480 c         1 X7O      0.916600
      2 C2          1.5080   -0.1110   -0.0410 c3        1 X7O      0.000500
      3 C3          2.0490   -0.0830    1.4060 c3        1 X7O     -0.076700
      4 C4          2.0910   -1.5530    1.8320 c3        1 X7O     -0.111400
      5 C5          2.0720   -2.3480    0.4980 c3        1 X7O      0.388700
      6 C6          3.4060    0.5690    1.4960 c3        1 X7O     -0.087100
      7 O1         -0.2590    1.4370    0.4880 o         1 X7O     -0.796800
      8 N1          1.6920   -1.4700   -0.5730 n3        1 X7O     -0.825200
      9 N2          3.5160   -2.8760    0.2060 n4        1 X7O     -0.882600
     10 O2         -0.8280   -0.4680   -0.5760 o         1 X7O     -0.796800
     11 HC2         2.0740    0.5950   -0.7030 h1        1 X7O      0.079700
     12 HC3         1.3210    0.4960    2.0420 hc        1 X7O      0.123700
     13 HC41        1.1570   -1.8200    2.3920 hc        1 X7O      0.068700
     14 HC42        2.9670   -1.7850    2.4820 hc        1 X7O      0.068700
     15 HC5         1.4620   -3.2960    0.5610 hx        1 X7O      0.087700
     16 HC61        3.3360    1.6300    1.1510 hc        1 X7O      0.029700
     17 HC62        4.1530    0.0420    0.8540 hc        1 X7O      0.029700
     18 HC63        3.7780    0.5630    2.5490 hc        1 X7O      0.029700
     19 HN1         0.8560   -1.7720   -1.0570 hn        1 X7O      0.445800
     20 HN21        3.7810   -3.5340    0.9330 hn        1 X7O      0.435467
     21 HN22        4.1670   -2.0870    0.2040 hn        1 X7O      0.435467
     22 H23         3.5480   -3.3290   -0.7070 hn        1 X7O      0.435467
@<TRIPOS>BOND
     1    1    2 1   
     2    1    7 1   
     3    1   10 1   
     4    2    3 1   
     5    2    8 1   
     6    2   11 1   
     7    3    4 1   
     8    3    6 1   
     9    3   12 1   
    10    4    5 1   
    11    4   13 1   
    12    4   14 1   
    13    5    8 1   
    14    5    9 1   
    15    5   15 1   
    16    6   16 1   
    17    6   17 1   
    18    6   18 1   
    19    8   19 1   
    20    9   20 1   
    21    9   21 1   
    22    9   22 1   
@<TRIPOS>SUBSTRUCTURE
     1 X7O         1 TEMP              0 ****  ****    0 ROOT
