@<TRIPOS>MOLECULE
X7O
   22    22     1     0     0
SMALL
bcc


@<TRIPOS>ATOM
      1 C1         -0.0310    0.3350   -0.0190 c         1 X7O      0.916600
      2 C2          1.4890   -0.1090   -0.0330 c3        1 X7O      0.000500
      3 C3          2.0490   -0.0800    1.4070 c3        1 X7O     -0.076700
      4 C4          2.0970   -1.5500    1.8330 c3        1 X7O     -0.111400
      5 C5          2.0600   -2.3460    0.5000 c3        1 X7O      0.388700
      6 C6          3.4070    0.5720    1.4780 c3        1 X7O     -0.087100
      7 O1         -0.2700    1.4390    0.5190 o         1 X7O     -0.796800
      8 N1          1.6660   -1.4680   -0.5660 n3        1 X7O     -0.825200
      9 N2          3.5000   -2.8740    0.1890 n4        1 X7O     -0.882600
     10 O2         -0.8540   -0.4660   -0.5360 o         1 X7O     -0.796800
     11 HC2         2.0470    0.5970   -0.7030 h1        1 X7O      0.079700
     12 HC3         1.3300    0.4990    2.0520 hc        1 X7O      0.123700
     13 HC41        1.1710   -1.8170    2.4050 hc        1 X7O      0.068700
     14 HC42        2.9810   -1.7820    2.4710 hc        1 X7O      0.068700
     15 HC5         1.4510   -3.2940    0.5720 hx        1 X7O      0.087700
     16 HC61        4.1460    0.0440    0.8270 hc        1 X7O      0.029700
     17 HC62        3.3330    1.6330    1.1340 hc        1 X7O      0.029700
     18 HC63        3.7930    0.5670    2.5260 hc        1 X7O      0.029700
     19 HN1         0.8230   -1.7700   -1.0390 hn        1 X7O      0.445800
     20 HN21        3.7750   -3.5320    0.9120 hn        1 X7O      0.435467
     21 HN22        4.1510   -2.0860    0.1770 hn        1 X7O      0.435467
     22 H23         3.5200   -3.3270   -0.7250 hn        1 X7O      0.435467
@<TRIPOS>BOND
     1    1    2 1   
     2    1    7 1   
     3    1   10 1   
     4    2    3 1   
     5    2    8 1   
     6    2   11 1   
     7    3    4 1   
     8    3    6 1   
     9    3   12 1   
    10    4    5 1   
    11    4   13 1   
    12    4   14 1   
    13    5    8 1   
    14    5    9 1   
    15    5   15 1   
    16    6   16 1   
    17    6   17 1   
    18    6   18 1   
    19    8   19 1   
    20    9   20 1   
    21    9   21 1   
    22    9   22 1   
@<TRIPOS>SUBSTRUCTURE
     1 X7O         1 TEMP              0 ****  ****    0 ROOT
