@<TRIPOS>MOLECULE
X7O
   21    21     1     0     0
SMALL
bcc


@<TRIPOS>ATOM
      1 C1         -0.3840    0.1500    0.8680 c         1 X7O      0.905600
      2 C2         -1.7390    0.5660    1.5270 c3        1 X7O      0.032500
      3 C3         -1.4610    1.1860    2.9200 c3        1 X7O     -0.070700
      4 C4         -2.0000    2.6130    2.8570 c3        1 X7O     -0.087400
      5 C5         -2.8350    2.7030    1.5440 c3        1 X7O      0.377700
      6 C6         -2.1090    0.3850    4.0220 c3        1 X7O     -0.077100
      7 O1          0.0310    0.8070   -0.1290 o         1 X7O     -0.839300
      8 N1         -2.5380    1.4980    0.7330 n3        1 X7O     -0.837200
      9 N2         -4.2600    2.9040    1.8260 n3        1 X7O     -0.903800
     10 O2          0.2210   -0.8280    1.3850 o         1 X7O     -0.839300
     11 HC2        -2.3500   -0.3720    1.6440 h1        1 X7O      0.048700
     12 HC3        -0.3510    1.1980    3.0930 hc        1 X7O      0.069700
     13 HC41       -2.6040    2.8670    3.7610 hc        1 X7O      0.035700
     14 HC42       -1.1590    3.3450    2.7930 hc        1 X7O      0.035700
     15 HC5        -2.5200    3.6330    0.9760 h2        1 X7O      0.036700
     16 HC61       -1.8820    0.8340    5.0200 hc        1 X7O      0.021700
     17 HC62       -3.2180    0.3570    3.8940 hc        1 X7O      0.021700
     18 HC63       -1.7220   -0.6630    4.0050 hc        1 X7O      0.021700
     19 HN1        -2.0100    1.7610   -0.0840 hn        1 X7O      0.382800
     20 HN21       -4.5910    2.1880    2.4460 hn        1 X7O      0.332800
     21 HN22       -4.7870    2.8330    0.9750 hn        1 X7O      0.332800
@<TRIPOS>BOND
     1    1    2 1   
     2    1    7 1   
     3    1   10 1   
     4    2    3 1   
     5    2    8 1   
     6    2   11 1   
     7    3    4 1   
     8    3    6 1   
     9    3   12 1   
    10    4    5 1   
    11    4   13 1   
    12    4   14 1   
    13    5    8 1   
    14    5    9 1   
    15    5   15 1   
    16    6   16 1   
    17    6   17 1   
    18    6   18 1   
    19    8   19 1   
    20    9   20 1   
    21    9   21 1   
@<TRIPOS>SUBSTRUCTURE
     1 X7O         1 TEMP              0 ****  ****    0 ROOT
