@<TRIPOS>MOLECULE
X81
  121   120     1     0     0
SMALL
bcc


@<TRIPOS>ATOM
      1 O1          2.4260   -1.7160    1.6580 o         1 X81     -0.915167
      2 O2          3.8770    0.3630    1.8570 o         1 X81     -0.915167
      3 P1          3.7020   -1.0140    1.2940 p5        1 X81      1.323900
      4 O3          4.9430   -1.8760    1.2140 o         1 X81     -0.915167
      5 O4          3.5000   -0.7000   -0.4130 os        1 X81     -0.564200
      6 C1          2.2390   -0.3560   -0.7950 c3        1 X81      0.234400
      7 C2          1.7990   -1.0430   -2.1170 c3        1 X81      0.090100
      8 C3          2.8660   -1.0610   -3.2090 c3        1 X81      0.144400
      9 O5          3.8050   -2.1040   -2.9680 os        1 X81     -0.458900
     10 C4          5.0950   -1.7230   -2.6390 c         1 X81      0.697100
     11 O6          5.5640   -0.7740   -3.2790 o         1 X81     -0.613000
     12 C5          5.6920   -2.5670   -1.5820 c3        1 X81     -0.218400
     13 C6          7.1920   -2.4370   -1.4780 c3        1 X81     -0.037400
     14 C7          7.6460   -2.9000   -0.1090 c3        1 X81     -0.115400
     15 C8          9.0920   -2.5380    0.1490 c3        1 X81     -0.064400
     16 C9          9.5180   -2.9720    1.5360 c3        1 X81     -0.082400
     17 C10        10.9500   -2.5750    1.8270 c3        1 X81     -0.076400
     18 C11        11.3690   -3.0060    3.2170 c3        1 X81     -0.080400
     19 C12        12.7970   -2.6040    3.5140 c3        1 X81     -0.077400
     20 C13        13.2130   -3.0350    4.9040 c3        1 X81     -0.079400
     21 C14        14.6420   -2.6310    5.2030 c3        1 X81     -0.078400
     22 C15        15.0570   -3.0630    6.5930 c3        1 X81     -0.079400
     23 C16        16.4850   -2.6590    6.8920 c3        1 X81     -0.078400
     24 C17        16.8990   -3.0910    8.2820 c3        1 X81     -0.079400
     25 C18        18.3270   -2.6880    8.5810 c3        1 X81     -0.078400
     26 C19        18.7420   -3.1190    9.9710 c3        1 X81     -0.079400
     27 C20        20.1700   -2.7170   10.2720 c3        1 X81     -0.080400
     28 C21        20.5870   -3.1440   11.6550 c3        1 X81     -0.091100
     29 O7          1.4250   -2.3850   -1.7580 os        1 X81     -0.347900
     30 C22         0.5710   -3.0630   -2.5480 c         1 X81      0.630100
     31 O8          0.0650   -2.5400   -3.5530 o         1 X81     -0.624000
     32 C23         0.3420   -4.4610   -2.0440 c3        1 X81     -0.139400
     33 C24        -1.0680   -4.9260   -2.3320 c3        1 X81     -0.073400
     34 C25        -1.2540   -6.3710   -1.9210 c3        1 X81     -0.079400
     35 C26        -2.6670   -6.8410   -2.1900 c3        1 X81     -0.077400
     36 C27        -2.8550   -8.2850   -1.7760 c3        1 X81     -0.080400
     37 C28        -4.2660   -8.7580   -2.0510 c3        1 X81     -0.077400
     38 C29        -4.4510  -10.2020   -1.6310 c3        1 X81     -0.053200
     39 C30        -5.8220  -10.6970   -1.8950 c2        1 X81     -0.158200
     40 C31        -6.2270  -11.9440   -1.6290 c2        1 X81     -0.191200
     41 C32        -5.3520  -12.9820   -1.0360 c3        1 X81     -0.047200
     42 C33        -6.0750  -14.2960   -0.8310 c3        1 X81     -0.075400
     43 C34        -5.1580  -15.3360   -0.2230 c3        1 X81     -0.080400
     44 C35        -5.8780  -16.6510   -0.0170 c3        1 X81     -0.078400
     45 C36        -4.9610  -17.6910    0.5910 c3        1 X81     -0.080400
     46 C37        -5.6800  -19.0060    0.7970 c3        1 X81     -0.078400
     47 C38        -4.7630  -20.0460    1.4050 c3        1 X81     -0.081400
     48 C39        -5.4740  -21.3580    1.6130 c3        1 X81     -0.091100
     49 H2          1.4870   -0.6180    0.0050 h1        1 X81      0.012200
     50 H3          2.1760    0.7500   -1.0420 h1        1 X81      0.012200
     51 H4          0.8920   -0.5140   -2.5260 h1        1 X81      0.023700
     52 H5          3.3680   -0.0600   -3.2500 h1        1 X81      0.042700
     53 H6          2.3990   -1.3100   -4.2010 h1        1 X81      0.042700
     54 H7          5.3750   -3.6310   -1.7020 hc        1 X81      0.152700
     55 H8          5.2030   -2.1930   -0.5770 hc        1 X81      0.152700
     56 H9          7.4800   -1.3630   -1.6300 hc        1 X81      0.013200
     57 H10         7.7020   -3.0340   -2.2800 hc        1 X81      0.013200
     58 H11         6.9670   -2.4260    0.6700 hc        1 X81      0.090200
     59 H12         7.5160   -4.0100   -0.0250 hc        1 X81      0.090200
     60 H13         9.7570   -3.0190   -0.6170 hc        1 X81      0.016700
     61 H14         9.2220   -1.4280    0.0500 hc        1 X81      0.016700
     62 H15         9.4100   -4.0850    1.6310 hc        1 X81      0.048700
     63 H16         8.8310   -2.5070    2.2920 hc        1 X81      0.048700
     64 H17        11.6340   -3.0370    1.0680 hc        1 X81      0.029200
     65 H18        11.0550   -1.4620    1.7330 hc        1 X81      0.029200
     66 H19        10.6810   -2.5440    3.9730 hc        1 X81      0.040700
     67 H20        11.2640   -4.1190    3.3120 hc        1 X81      0.040700
     68 H54        13.4840   -3.0640    2.7560 hc        1 X81      0.033700
     69 H21        12.9000   -1.4900    3.4190 hc        1 X81      0.033700
     70 H56        12.5260   -2.5730    5.6610 hc        1 X81      0.039700
     71 H22        13.1090   -4.1480    4.9990 hc        1 X81      0.039700
     72 H23        14.7450   -1.5180    5.1080 hc        1 X81      0.036200
     73 H24        15.3290   -3.0920    4.4450 hc        1 X81      0.036200
     74 H25        14.3690   -2.6010    7.3500 hc        1 X81      0.039700
     75 H26        14.9520   -4.1760    6.6880 hc        1 X81      0.039700
     76 H27        17.1720   -3.1210    6.1340 hc        1 X81      0.037200
     77 H28        16.5880   -1.5460    6.7970 hc        1 X81      0.037200
     78 H29        16.7950   -4.2040    8.3770 hc        1 X81      0.039200
     79 H30        16.2120   -2.6290    9.0390 hc        1 X81      0.039200
     80 H31        18.4310   -1.5750    8.4860 hc        1 X81      0.037700
     81 H32        19.0150   -3.1490    7.8240 hc        1 X81      0.037700
     82 H33        18.6370   -4.2320   10.0660 hc        1 X81      0.039200
     83 H34        18.0540   -2.6580   10.7290 hc        1 X81      0.039200
     84 H35        20.2720   -1.6030   10.1750 hc        1 X81      0.037200
     85 H36        20.8550   -3.1780    9.5120 hc        1 X81      0.037200
     86 H37        19.9300   -2.6750   12.4270 hc        1 X81      0.029700
     87 H38        21.6410   -2.8380   11.8560 hc        1 X81      0.029700
     88 H39        20.5150   -4.2540   11.7630 hc        1 X81      0.029700
     89 H40         0.5560   -4.4880   -0.9410 hc        1 X81      0.084700
     90 H41         1.0890   -5.1250   -2.5530 hc        1 X81      0.084700
     91 H42        -1.7950   -4.2780   -1.7750 hc        1 X81      0.047200
     92 H43        -1.2870   -4.8040   -3.4260 hc        1 X81      0.047200
     93 H44        -1.0200   -6.4830   -0.8290 hc        1 X81      0.040700
     94 H45        -0.5290   -7.0190   -2.4820 hc        1 X81      0.040700
     95 H46        -2.9000   -6.7290   -3.2820 hc        1 X81      0.036700
     96 H47        -3.3910   -6.1920   -1.6300 hc        1 X81      0.036700
     97 H48        -2.1260   -8.9320   -2.3310 hc        1 X81      0.039700
     98 H49        -2.6270   -8.3930   -0.6830 hc        1 X81      0.039700
     99 H50        -4.9950   -8.1090   -1.4980 hc        1 X81      0.039200
    100 H51        -4.4920   -8.6520   -3.1450 hc        1 X81      0.039200
    101 H52        -3.7080  -10.8490   -2.1740 hc        1 X81      0.049200
    102 H53        -4.2230  -10.3050   -0.5340 hc        1 X81      0.049200
    103 H55        -6.5210   -9.9680   -2.3370 ha        1 X81      0.121000
    104 H57        -7.2620  -12.2520   -1.8480 ha        1 X81      0.114000
    105 H58        -4.4600  -13.1430   -1.7020 hc        1 X81      0.049700
    106 H59        -4.9520  -12.6150   -0.0500 hc        1 X81      0.049700
    107 H60        -6.4670  -14.6680   -1.8140 hc        1 X81      0.037200
    108 H61        -6.9610  -14.1380   -0.1600 hc        1 X81      0.037200
    109 H62        -4.2720  -15.4930   -0.8930 hc        1 X81      0.042200
    110 H63        -4.7670  -14.9630    0.7600 hc        1 X81      0.042200
    111 H64        -6.2700  -17.0240   -1.0000 hc        1 X81      0.037200
    112 H65        -6.7640  -16.4940    0.6530 hc        1 X81      0.037200
    113 H66        -4.5700  -17.3180    1.5740 hc        1 X81      0.041200
    114 H67        -4.0740  -17.8470   -0.0790 hc        1 X81      0.041200
    115 H68        -6.0710  -19.3800   -0.1860 hc        1 X81      0.037200
    116 H69        -6.5660  -18.8500    1.4670 hc        1 X81      0.037200
    117 H70        -4.3720  -19.6700    2.3870 hc        1 X81      0.039700
    118 H71        -3.8770  -20.2000    0.7340 hc        1 X81      0.039700
    119 H72        -6.3470  -21.2300    2.2980 hc        1 X81      0.030033
    120 H73        -4.7810  -22.1100    2.0610 hc        1 X81      0.030033
    121 H74        -5.8500  -21.7610    0.6410 hc        1 X81      0.030033
@<TRIPOS>BOND
     1    1    3 1   
     2    2    3 1   
     3    3    4 1   
     4    3    5 1   
     5    5    6 1   
     6    6    7 1   
     7    6   49 1   
     8    6   50 1   
     9    7    8 1   
    10    7   29 1   
    11    7   51 1   
    12    8    9 1   
    13    8   52 1   
    14    8   53 1   
    15    9   10 1   
    16   10   11 2   
    17   10   12 1   
    18   12   13 1   
    19   12   54 1   
    20   12   55 1   
    21   13   14 1   
    22   13   56 1   
    23   13   57 1   
    24   14   15 1   
    25   14   58 1   
    26   14   59 1   
    27   15   16 1   
    28   15   60 1   
    29   15   61 1   
    30   16   17 1   
    31   16   62 1   
    32   16   63 1   
    33   17   18 1   
    34   17   64 1   
    35   17   65 1   
    36   18   19 1   
    37   18   66 1   
    38   18   67 1   
    39   19   20 1   
    40   19   68 1   
    41   19   69 1   
    42   20   21 1   
    43   20   70 1   
    44   20   71 1   
    45   21   22 1   
    46   21   72 1   
    47   21   73 1   
    48   22   23 1   
    49   22   74 1   
    50   22   75 1   
    51   23   24 1   
    52   23   76 1   
    53   23   77 1   
    54   24   25 1   
    55   24   78 1   
    56   24   79 1   
    57   25   26 1   
    58   25   80 1   
    59   25   81 1   
    60   26   27 1   
    61   26   82 1   
    62   26   83 1   
    63   27   28 1   
    64   27   84 1   
    65   27   85 1   
    66   28   86 1   
    67   28   87 1   
    68   28   88 1   
    69   29   30 1   
    70   30   31 2   
    71   30   32 1   
    72   32   33 1   
    73   32   89 1   
    74   32   90 1   
    75   33   34 1   
    76   33   91 1   
    77   33   92 1   
    78   34   35 1   
    79   34   93 1   
    80   34   94 1   
    81   35   36 1   
    82   35   95 1   
    83   35   96 1   
    84   36   37 1   
    85   36   97 1   
    86   36   98 1   
    87   37   38 1   
    88   37   99 1   
    89   37  100 1   
    90   38   39 1   
    91   38  101 1   
    92   38  102 1   
    93   39   40 2   
    94   39  103 1   
    95   40   41 1   
    96   40  104 1   
    97   41   42 1   
    98   41  105 1   
    99   41  106 1   
   100   42   43 1   
   101   42  107 1   
   102   42  108 1   
   103   43   44 1   
   104   43  109 1   
   105   43  110 1   
   106   44   45 1   
   107   44  111 1   
   108   44  112 1   
   109   45   46 1   
   110   45  113 1   
   111   45  114 1   
   112   46   47 1   
   113   46  115 1   
   114   46  116 1   
   115   47   48 1   
   116   47  117 1   
   117   47  118 1   
   118   48  119 1   
   119   48  120 1   
   120   48  121 1   
@<TRIPOS>SUBSTRUCTURE
     1 X81         1 TEMP              0 ****  ****    0 ROOT
