@<TRIPOS>MOLECULE
X81
  121   120     1     0     0
SMALL
bcc


@<TRIPOS>ATOM
      1 O1          2.4500   -1.7240    1.6690 o         1 X81     -0.915167
      2 O2          3.9070    0.3520    1.8560 o         1 X81     -0.915167
      3 P1          3.7270   -1.0270    1.2990 p5        1 X81      1.323900
      4 O3          4.9660   -1.8920    1.2220 o         1 X81     -0.915167
      5 O4          3.5230   -0.7200   -0.4090 os        1 X81     -0.564200
      6 C1          2.2630   -0.3750   -0.7900 c3        1 X81      0.234400
      7 C2          1.8180   -1.0640   -2.1080 c3        1 X81      0.090100
      8 C3          2.8840   -1.0920   -3.2020 c3        1 X81      0.144400
      9 O5          3.8200   -2.1370   -2.9560 os        1 X81     -0.457900
     10 C4          5.1120   -1.7590   -2.6310 c         1 X81      0.697100
     11 O6          5.5830   -0.8140   -3.2780 o         1 X81     -0.613000
     12 C5          5.7090   -2.5980   -1.5720 c3        1 X81     -0.218400
     13 C6          7.2090   -2.4720   -1.4720 c3        1 X81     -0.037400
     14 C7          7.6650   -2.9270   -0.1000 c3        1 X81     -0.115400
     15 C8          9.1120   -2.5660    0.1530 c3        1 X81     -0.064400
     16 C9          9.5390   -2.9900    1.5420 c3        1 X81     -0.082400
     17 C10        10.9710   -2.5920    1.8300 c3        1 X81     -0.076400
     18 C11        11.3910   -3.0120    3.2220 c3        1 X81     -0.080400
     19 C12        12.8200   -2.6080    3.5160 c3        1 X81     -0.077400
     20 C13        13.2360   -3.0260    4.9100 c3        1 X81     -0.079400
     21 C14        14.6650   -2.6220    5.2040 c3        1 X81     -0.078400
     22 C15        15.0790   -3.0390    6.5990 c3        1 X81     -0.079400
     23 C16        16.5070   -2.6340    6.8940 c3        1 X81     -0.078400
     24 C17        16.9210   -3.0510    8.2890 c3        1 X81     -0.079400
     25 C18        18.3490   -2.6460    8.5850 c3        1 X81     -0.078400
     26 C19        18.7620   -3.0630    9.9790 c3        1 X81     -0.079400
     27 C20        20.1900   -2.6570   10.2770 c3        1 X81     -0.080400
     28 C21        20.6060   -3.0710   11.6650 c3        1 X81     -0.091100
     29 O7          1.4380   -2.4040   -1.7430 os        1 X81     -0.347900
     30 C22         0.5810   -3.0810   -2.5300 c         1 X81      0.630100
     31 O8          0.0760   -2.5590   -3.5370 o         1 X81     -0.624000
     32 C23         0.3440   -4.4760   -2.0200 c3        1 X81     -0.139400
     33 C24        -1.0700   -4.9320   -2.2990 c3        1 X81     -0.073400
     34 C25        -1.2630   -6.3760   -1.8860 c3        1 X81     -0.079400
     35 C26        -2.6810   -6.8360   -2.1460 c3        1 X81     -0.077400
     36 C27        -2.8750   -8.2790   -1.7330 c3        1 X81     -0.080400
     37 C28        -4.2920   -8.7420   -1.9970 c3        1 X81     -0.077400
     38 C29        -4.4830  -10.1860   -1.5800 c3        1 X81     -0.053200
     39 C30        -5.8590  -10.6710   -1.8350 c2        1 X81     -0.158200
     40 C31        -6.2660  -11.9220   -1.5890 c2        1 X81     -0.191200
     41 C32        -5.3850  -12.9760   -1.0320 c3        1 X81     -0.047200
     42 C33        -6.1160  -14.2860   -0.8280 c3        1 X81     -0.075400
     43 C34        -5.1940  -15.3430   -0.2590 c3        1 X81     -0.080400
     44 C35        -5.9210  -16.6550   -0.0540 c3        1 X81     -0.078400
     45 C36        -4.9980  -17.7120    0.5140 c3        1 X81     -0.080400
     46 C37        -5.7240  -19.0230    0.7200 c3        1 X81     -0.078400
     47 C38        -4.8020  -20.0810    1.2870 c3        1 X81     -0.081400
     48 C39        -5.5210  -21.3900    1.4940 c3        1 X81     -0.091100
     49 H2          2.2030    0.7310   -1.0410 h1        1 X81      0.012200
     50 H3          1.5110   -0.6300    0.0130 h1        1 X81      0.012200
     51 H4          0.9130   -0.5330   -2.5190 h1        1 X81      0.023700
     52 H5          2.4150   -1.3460   -4.1920 h1        1 X81      0.042700
     53 H6          3.3890   -0.0930   -3.2490 h1        1 X81      0.042700
     54 H7          5.2220   -2.2190   -0.5680 hc        1 X81      0.152700
     55 H8          5.3890   -3.6620   -1.6860 hc        1 X81      0.152700
     56 H9          7.7170   -3.0750   -2.2710 hc        1 X81      0.013200
     57 H10         7.5000   -1.3990   -1.6310 hc        1 X81      0.013200
     58 H11         6.9880   -2.4480    0.6770 hc        1 X81      0.090200
     59 H12         7.5330   -4.0360   -0.0090 hc        1 X81      0.090200
     60 H13         9.7750   -3.0530   -0.6100 hc        1 X81      0.016700
     61 H14         9.2430   -1.4570    0.0450 hc        1 X81      0.016700
     62 H15         9.4300   -4.1020    1.6460 hc        1 X81      0.048700
     63 H16         8.8530   -2.5190    2.2960 hc        1 X81      0.048700
     64 H17        11.6540   -3.0610    1.0740 hc        1 X81      0.028700
     65 H18        11.0770   -1.4800    1.7260 hc        1 X81      0.028700
     66 H19        10.7040   -2.5430    3.9750 hc        1 X81      0.040700
     67 H20        11.2850   -4.1240    3.3270 hc        1 X81      0.040700
     68 H54        13.5060   -3.0770    2.7620 hc        1 X81      0.033700
     69 H21        12.9240   -1.4960    3.4100 hc        1 X81      0.033700
     70 H56        12.5490   -2.5570    5.6620 hc        1 X81      0.039700
     71 H22        13.1310   -4.1380    5.0150 hc        1 X81      0.039700
     72 H23        15.3510   -3.0910    4.4510 hc        1 X81      0.036200
     73 H24        14.7690   -1.5100    5.0980 hc        1 X81      0.036200
     74 H25        14.9730   -4.1510    6.7050 hc        1 X81      0.039700
     75 H26        14.3920   -2.5690    7.3510 hc        1 X81      0.039700
     76 H27        17.1940   -3.1040    6.1420 hc        1 X81      0.037200
     77 H28        16.6120   -1.5220    6.7870 hc        1 X81      0.037200
     78 H29        16.2330   -2.5810    9.0410 hc        1 X81      0.039200
     79 H30        16.8150   -4.1630    8.3960 hc        1 X81      0.039200
     80 H31        18.4530   -1.5340    8.4780 hc        1 X81      0.037700
     81 H32        19.0360   -3.1150    7.8320 hc        1 X81      0.037700
     82 H33        18.0740   -2.5930   10.7310 hc        1 X81      0.039200
     83 H34        18.6570   -4.1750   10.0860 hc        1 X81      0.039200
     84 H35        20.8760   -3.1260    9.5220 hc        1 X81      0.037200
     85 H36        20.2930   -1.5450   10.1680 hc        1 X81      0.037200
     86 H37        20.5340   -4.1790   11.7840 hc        1 X81      0.029700
     87 H38        19.9490   -2.5940   12.4310 hc        1 X81      0.029700
     88 H39        21.6610   -2.7630   11.8630 hc        1 X81      0.029700
     89 H40         1.0850   -5.1470   -2.5300 hc        1 X81      0.084700
     90 H41         0.5640   -4.5010   -0.9180 hc        1 X81      0.084700
     91 H42        -1.7900   -4.2790   -1.7390 hc        1 X81      0.047200
     92 H43        -1.2940   -4.8100   -3.3920 hc        1 X81      0.047200
     93 H44        -0.5460   -7.0280   -2.4520 hc        1 X81      0.040700
     94 H45        -1.0230   -6.4880   -0.7960 hc        1 X81      0.040700
     95 H46        -2.9200   -6.7200   -3.2360 hc        1 X81      0.036700
     96 H47        -3.3970   -6.1830   -1.5800 hc        1 X81      0.036700
     97 H48        -2.1550   -8.9310   -2.2950 hc        1 X81      0.039700
     98 H49        -2.6400   -8.3910   -0.6420 hc        1 X81      0.039700
     99 H50        -5.0110   -8.0900   -1.4360 hc        1 X81      0.039200
    100 H51        -4.5270   -8.6310   -3.0890 hc        1 X81      0.039200
    101 H52        -4.2470  -10.2940   -0.4850 hc        1 X81      0.048700
    102 H53        -3.7490  -10.8360   -2.1320 hc        1 X81      0.048700
    103 H55        -6.5620   -9.9300   -2.2490 ha        1 X81      0.121000
    104 H57        -7.3050  -12.2210   -1.7980 ha        1 X81      0.114000
    105 H58        -4.5120  -13.1360   -1.7240 hc        1 X81      0.049200
    106 H59        -4.9570  -12.6260   -0.0520 hc        1 X81      0.049200
    107 H60        -6.5360  -14.6400   -1.8060 hc        1 X81      0.037700
    108 H61        -6.9820  -14.1290   -0.1330 hc        1 X81      0.037700
    109 H62        -4.3260  -15.4990   -0.9540 hc        1 X81      0.042200
    110 H63        -4.7730  -14.9890    0.7190 hc        1 X81      0.042200
    111 H64        -6.7870  -16.4990    0.6420 hc        1 X81      0.037200
    112 H65        -6.3410  -17.0090   -1.0320 hc        1 X81      0.037200
    113 H66        -4.5780  -17.3570    1.4920 hc        1 X81      0.041200
    114 H67        -4.1310  -17.8660   -0.1810 hc        1 X81      0.041200
    115 H68        -6.5910  -18.8690    1.4150 hc        1 X81      0.037200
    116 H69        -6.1450  -19.3780   -0.2580 hc        1 X81      0.037200
    117 H70        -3.9350  -20.2330    0.5910 hc        1 X81      0.039200
    118 H71        -4.3820  -19.7240    2.2640 hc        1 X81      0.039200
    119 H72        -5.9260  -21.7740    0.5260 hc        1 X81      0.030033
    120 H73        -4.8230  -22.1540    1.9120 hc        1 X81      0.030033
    121 H74        -6.3730  -21.2630    2.2040 hc        1 X81      0.030033
@<TRIPOS>BOND
     1    1    3 1   
     2    2    3 1   
     3    3    4 1   
     4    3    5 1   
     5    5    6 1   
     6    6    7 1   
     7    6   49 1   
     8    6   50 1   
     9    7    8 1   
    10    7   29 1   
    11    7   51 1   
    12    8    9 1   
    13    8   52 1   
    14    8   53 1   
    15    9   10 1   
    16   10   11 2   
    17   10   12 1   
    18   12   13 1   
    19   12   54 1   
    20   12   55 1   
    21   13   14 1   
    22   13   56 1   
    23   13   57 1   
    24   14   15 1   
    25   14   58 1   
    26   14   59 1   
    27   15   16 1   
    28   15   60 1   
    29   15   61 1   
    30   16   17 1   
    31   16   62 1   
    32   16   63 1   
    33   17   18 1   
    34   17   64 1   
    35   17   65 1   
    36   18   19 1   
    37   18   66 1   
    38   18   67 1   
    39   19   20 1   
    40   19   68 1   
    41   19   69 1   
    42   20   21 1   
    43   20   70 1   
    44   20   71 1   
    45   21   22 1   
    46   21   72 1   
    47   21   73 1   
    48   22   23 1   
    49   22   74 1   
    50   22   75 1   
    51   23   24 1   
    52   23   76 1   
    53   23   77 1   
    54   24   25 1   
    55   24   78 1   
    56   24   79 1   
    57   25   26 1   
    58   25   80 1   
    59   25   81 1   
    60   26   27 1   
    61   26   82 1   
    62   26   83 1   
    63   27   28 1   
    64   27   84 1   
    65   27   85 1   
    66   28   86 1   
    67   28   87 1   
    68   28   88 1   
    69   29   30 1   
    70   30   31 2   
    71   30   32 1   
    72   32   33 1   
    73   32   89 1   
    74   32   90 1   
    75   33   34 1   
    76   33   91 1   
    77   33   92 1   
    78   34   35 1   
    79   34   93 1   
    80   34   94 1   
    81   35   36 1   
    82   35   95 1   
    83   35   96 1   
    84   36   37 1   
    85   36   97 1   
    86   36   98 1   
    87   37   38 1   
    88   37   99 1   
    89   37  100 1   
    90   38   39 1   
    91   38  101 1   
    92   38  102 1   
    93   39   40 2   
    94   39  103 1   
    95   40   41 1   
    96   40  104 1   
    97   41   42 1   
    98   41  105 1   
    99   41  106 1   
   100   42   43 1   
   101   42  107 1   
   102   42  108 1   
   103   43   44 1   
   104   43  109 1   
   105   43  110 1   
   106   44   45 1   
   107   44  111 1   
   108   44  112 1   
   109   45   46 1   
   110   45  113 1   
   111   45  114 1   
   112   46   47 1   
   113   46  115 1   
   114   46  116 1   
   115   47   48 1   
   116   47  117 1   
   117   47  118 1   
   118   48  119 1   
   119   48  120 1   
   120   48  121 1   
@<TRIPOS>SUBSTRUCTURE
     1 X81         1 TEMP              0 ****  ****    0 ROOT
