@<TRIPOS>MOLECULE
X81
  121   119     1     0     0
SMALL
bcc


@<TRIPOS>ATOM
      1 O1         -4.5900    9.0490    0.4930 o         1 X81     -0.916833
      2 O2         -2.6930   10.3410   -0.4080 o         1 X81     -0.916833
      3 P1         -3.0860    9.1820    0.4760 p5        1 X81      1.565500
      4 O3         -2.5860    9.4270    1.8790 o         1 X81     -0.916833
      5 O4         -2.4460    7.8500   -0.0860 os        1 X81     -0.720000
      6 C1         -3.1670    7.1110   -1.0450 c3        1 X81      0.070000
      7 C2         -2.4710    5.7920   -1.2930 c3        1 X81     -0.028000
      8 C3         -3.4370    4.6560   -1.0380 c3        1 X81     -0.101000
      9 O5         -3.6540    4.5260    0.3480 os        1 X81     -0.250000
     10 C4         -3.5380    3.2070    0.8220 c2        1 X81      0.306000
     11 O6         -2.6010    2.5170    0.4730 o         1 X81     -0.405000
     12 C5         -4.5950    2.6380    1.7450 c3        1 X81     -0.162000
     13 C6         -3.9310    2.0680    2.9810 c3        1 X81     -0.144000
     14 C7         -4.5880    0.7540    3.3460 c3        1 X81     -0.169000
     15 C8         -4.6150    0.6060    4.8530 c3        1 X81     -0.146000
     16 C9         -4.1160   -0.7720    5.2330 c3        1 X81     -0.191000
     17 C10        -4.3380   -0.9980    6.7120 c3        1 X81     -0.123000
     18 C11        -3.0620   -1.5170    7.3400 c3        1 X81     -0.200000
     19 C12        -3.3820   -2.1670    8.6680 c3        1 X81     -0.124000
     20 C13        -2.1890   -2.0430    9.5900 c3        1 X81     -0.205000
     21 C14        -2.1520   -3.2290   10.5290 c3        1 X81     -0.138000
     22 C15        -1.0760   -3.0140   11.5700 c3        1 X81     -0.164000
     23 C16        -0.6590   -4.3480   12.1470 c3        1 X81     -0.154000
     24 C17         0.3500   -4.1260   13.2520 c3        1 X81     -0.159000
     25 C18         1.0200   -5.4390   13.5940 c3        1 X81     -0.156000
     26 C19         1.9630   -5.2360   14.7600 c3        1 X81     -0.159000
     27 C20         2.8420   -6.4560   14.9160 c3        1 X81     -0.159000
     28 C21         3.7060   -6.3010   16.1490 c3        1 X81     -0.208000
     29 O7         -2.0260    5.7390   -2.6260 os        1 X81     -0.268000
     30 C22        -0.7390    6.2700   -2.8180 c2        1 X81      0.309000
     31 O8         -0.4360    7.3300   -2.3060 o         1 X81     -0.397000
     32 C23         0.2680    5.5250   -3.6690 c3        1 X81     -0.162000
     33 C24         0.2640    6.0970   -5.0700 c3        1 X81     -0.159000
     34 C25         1.4620    5.5720   -5.8320 c3        1 X81     -0.154000
     35 C26         1.0630    5.2850   -7.2640 c3        1 X81     -0.160000
     36 C27         2.0320    4.2930   -7.8690 c3        1 X81     -0.156000
     37 C28         1.6480    4.0250   -9.3080 c3        1 X81     -0.158000
     38 C29         2.1930    2.6790   -9.7340 c3        1 X81     -0.135000
     39 C30         1.7380    2.3730  -11.1440 c2        1 X81     -0.151000
     40 C31         1.9890    1.1650  -11.6860 c1        1 X81     -0.190000
     41 C32         2.7240    0.1140  -10.8840 c2        1 X81     -0.128000
     42 C33         2.5970   -1.2270  -11.5740 c3        1 X81     -0.155000
     43 C34         3.6850   -2.1540  -11.0780 c3        1 X81     -0.159000
     44 C35         3.4220   -3.5550  -11.5830 c3        1 X81     -0.157000
     45 C36         4.6880   -4.3770  -11.4720 c3        1 X81     -0.158000
     46 C37         4.3340   -5.8470  -11.4330 c3        1 X81     -0.157000
     47 C38         5.5970   -6.6730  -11.5360 c3        1 X81     -0.159000
     48 C39         5.3020   -8.0980  -11.1230 c3        1 X81     -0.210000
     49 H2         -3.2110    7.6190   -1.8820 h1        1 X81      0.052000
     50 H3         -4.0740    6.9450   -0.7150 h1        1 X81      0.052000
     51 H4         -1.7050    5.7090   -0.6900 h1        1 X81      0.124000
     52 H5         -4.2880    4.8450   -1.4850 h1        1 X81      0.179000
     53 H6         -3.0620    3.8220   -1.3890 h1        1 X81      0.179000
     54 H7         -5.2150    3.3480    2.0070 hc        1 X81      0.094500
     55 H8         -5.0850    1.9300    1.2830 hc        1 X81      0.094500
     56 H9         -4.0270    2.6980    3.7230 hc        1 X81      0.065000
     57 H10        -2.9810    1.9190    2.8010 hc        1 X81      0.065000
     58 H11        -5.5030    0.7400    3.0010 hc        1 X81      0.090500
     59 H12        -4.0800    0.0160    2.9550 hc        1 X81      0.090500
     60 H13        -4.0390    1.2840    5.2580 hc        1 X81      0.066500
     61 H14        -5.5310    0.7210    5.1750 hc        1 X81      0.066500
     62 H15        -4.6060   -1.4480    4.7230 hc        1 X81      0.119000
     63 H16        -3.1620   -0.8400    5.0320 hc        1 X81      0.119000
     64 H17        -5.0530   -1.6530    6.8390 hc        1 X81      0.038500
     65 H18        -4.5900   -0.1540    7.1370 hc        1 X81      0.038500
     66 H19        -2.6510   -2.1750    6.7450 hc        1 X81      0.134500
     67 H20        -2.4430   -0.7730    7.4810 hc        1 X81      0.134500
     68 H54        -4.1540   -1.7220    9.0720 hc        1 X81      0.037000
     69 H21        -3.5880   -3.1130    8.5270 hc        1 X81      0.037000
     70 H56        -2.2630   -1.2180   10.1100 hc        1 X81      0.135500
     71 H22        -1.3670   -2.0210    9.0590 hc        1 X81      0.135500
     72 H23        -3.0190   -3.3220   10.9710 hc        1 X81      0.050500
     73 H24        -1.9550   -4.0410   10.0200 hc        1 X81      0.050500
     74 H25        -1.4230   -2.4440   12.2850 hc        1 X81      0.093500
     75 H26        -0.3020   -2.5820   11.1560 hc        1 X81      0.093500
     76 H27        -0.2570   -4.8960   11.4440 hc        1 X81      0.065500
     77 H28        -1.4430   -4.8060   12.5100 hc        1 X81      0.065500
     78 H29        -0.1050   -3.7760   14.0440 hc        1 X81      0.081500
     79 H30         1.0250   -3.4840   12.9530 hc        1 X81      0.081500
     80 H31         0.3390   -6.0990   13.8370 hc        1 X81      0.072000
     81 H32         1.5240   -5.7600   12.8200 hc        1 X81      0.072000
     82 H33         1.4450   -5.1000   15.5790 hc        1 X81      0.079500
     83 H34         2.5210   -4.4500   14.5940 hc        1 X81      0.079500
     84 H35         3.4140   -6.5490   14.1280 hc        1 X81      0.073500
     85 H36         2.2820   -7.2520   15.0090 hc        1 X81      0.073500
     86 H37         4.2400   -7.1130   16.2780 hc        1 X81      0.066000
     87 H38         3.1340   -6.1590   16.9330 hc        1 X81      0.066000
     88 H39         4.3030   -5.5320   16.0360 hc        1 X81      0.066000
     89 H40         1.1600    5.6230   -3.2790 hc        1 X81      0.098500
     90 H41         0.0290    4.5780   -3.7030 hc        1 X81      0.098500
     91 H42         0.3090    7.0730   -5.0240 hc        1 X81      0.102500
     92 H43        -0.5570    5.8300   -5.5290 hc        1 X81      0.102500
     93 H44         1.7810    4.7480   -5.4120 hc        1 X81      0.070500
     94 H45         2.1750    6.2410   -5.8200 hc        1 X81      0.070500
     95 H46         1.0820    6.1160   -7.7800 hc        1 X81      0.085500
     96 H47         0.1590    4.9110   -7.2820 hc        1 X81      0.085500
     97 H48         2.0020    3.4570   -7.3620 hc        1 X81      0.073500
     98 H49         2.9380    4.6600   -7.8370 hc        1 X81      0.073500
     99 H50         2.0210    4.7240   -9.8810 hc        1 X81      0.083500
    100 H51         0.6730    4.0220   -9.3900 hc        1 X81      0.083500
    101 H52         1.8620    1.9860   -9.1270 hc        1 X81      0.085000
    102 H53         3.1710    2.6990   -9.7030 hc        1 X81      0.085000
    103 H55         1.2640    3.0520  -11.6610 ha        1 X81      0.125000
    104 H57         1.6950    0.9680  -12.5960 ha        1 X81      0.116000
    105 H58         3.6690    0.3580  -10.8160 ha        1 X81      0.086000
    106 H59         2.3370    0.0570   -9.9880 ha        1 X81      0.086000
    107 H60         1.7220   -1.6150  -11.3730 hc        1 X81      0.078000
    108 H61         2.6870   -1.1060  -12.5400 hc        1 X81      0.078000
    109 H62         4.5520   -1.8450  -11.4090 hc        1 X81      0.080000
    110 H63         3.6920   -2.1550  -10.1000 hc        1 X81      0.080000
    111 H64         3.1390   -3.5170  -12.5180 hc        1 X81      0.077500
    112 H65         2.7180   -3.9690  -11.0450 hc        1 X81      0.077500
    113 H66         5.2600   -4.2000  -12.2460 hc        1 X81      0.079500
    114 H67         5.1640   -4.1340  -10.6530 hc        1 X81      0.079500
    115 H68         3.7420   -6.0600  -12.1830 hc        1 X81      0.077500
    116 H69         3.8790   -6.0500  -10.5910 hc        1 X81      0.077500
    117 H70         6.2810   -6.2970  -10.9470 hc        1 X81      0.077500
    118 H71         5.9190   -6.6620  -12.4600 hc        1 X81      0.077500
    119 H72         6.1050   -8.6470  -11.2470 hc        1 X81      0.069667
    120 H73         5.0370   -8.1160  -10.1790 hc        1 X81      0.069667
    121 H74         4.5740   -8.4550  -11.6740 hc        1 X81      0.069667
@<TRIPOS>BOND
     1    1    3 1   
     2    2    3 1   
     3    3    4 1   
     4    3    5 1   
     5    5    6 1   
     6    6    7 1   
     7    6   49 1   
     8    6   50 1   
     9    7    8 1   
    10    7   29 1   
    11    7   51 1   
    12    8    9 1   
    13    8   52 1   
    14    8   53 1   
    15    9   10 1   
    16   10   11 1   
    17   10   12 1   
    18   12   13 1   
    19   12   54 1   
    20   12   55 1   
    21   13   14 1   
    22   13   56 1   
    23   13   57 1   
    24   14   15 1   
    25   14   58 1   
    26   14   59 1   
    27   15   16 1   
    28   15   60 1   
    29   15   61 1   
    30   16   17 1   
    31   16   62 1   
    32   16   63 1   
    33   17   18 1   
    34   17   64 1   
    35   17   65 1   
    36   18   19 1   
    37   18   66 1   
    38   18   67 1   
    39   19   20 1   
    40   19   68 1   
    41   19   69 1   
    42   20   21 1   
    43   20   70 1   
    44   20   71 1   
    45   21   22 1   
    46   21   72 1   
    47   21   73 1   
    48   22   23 1   
    49   22   74 1   
    50   22   75 1   
    51   23   24 1   
    52   23   76 1   
    53   23   77 1   
    54   24   25 1   
    55   24   78 1   
    56   24   79 1   
    57   25   26 1   
    58   25   80 1   
    59   25   81 1   
    60   26   27 1   
    61   26   82 1   
    62   26   83 1   
    63   27   28 1   
    64   27   84 1   
    65   27   85 1   
    66   28   86 1   
    67   28   87 1   
    68   28   88 1   
    69   29   30 1   
    70   30   31 1   
    71   30   32 1   
    72   32   33 1   
    73   32   89 1   
    74   32   90 1   
    75   33   34 1   
    76   33   91 1   
    77   33   92 1   
    78   34   35 1   
    79   34   93 1   
    80   34   94 1   
    81   35   36 1   
    82   35   95 1   
    83   35   96 1   
    84   36   37 1   
    85   36   97 1   
    86   36   98 1   
    87   37   38 1   
    88   37   99 1   
    89   37  100 1   
    90   38   39 1   
    91   38  101 1   
    92   38  102 1   
    93   39   40 1   
    94   39  103 1   
    95   40  104 1   
    96   41   42 1   
    97   41  105 1   
    98   41  106 1   
    99   42   43 1   
   100   42  107 1   
   101   42  108 1   
   102   43   44 1   
   103   43  109 1   
   104   43  110 1   
   105   44   45 1   
   106   44  111 1   
   107   44  112 1   
   108   45   46 1   
   109   45  113 1   
   110   45  114 1   
   111   46   47 1   
   112   46  115 1   
   113   46  116 1   
   114   47   48 1   
   115   47  117 1   
   116   47  118 1   
   117   48  119 1   
   118   48  120 1   
   119   48  121 1   
@<TRIPOS>SUBSTRUCTURE
     1 X81         1 TEMP              0 ****  ****    0 ROOT
