@<TRIPOS>MOLECULE
X81
  121   120     1     0     0
SMALL
bcc


@<TRIPOS>ATOM
      1 O1          0.6370   -3.4180   -2.4080 o         1 X81     -0.915167
      2 O2          2.8230   -4.7140   -2.5070 o         1 X81     -0.915167
      3 P1          1.9060   -3.8290   -1.7190 p5        1 X81      1.323900
      4 O3          2.5620   -2.7870   -0.8400 o         1 X81     -0.915167
      5 O4          1.3370   -4.9010   -0.4620 os        1 X81     -0.564200
      6 C1          0.2970   -5.7070   -0.8130 c3        1 X81      0.234400
      7 C2         -0.7830   -5.8180    0.2970 c3        1 X81      0.090100
      8 C3         -0.2280   -5.9890    1.7100 c3        1 X81      0.144400
      9 O5          0.1930   -4.7340    2.2320 os        1 X81     -0.458900
     10 C4          1.5530   -4.5620    2.4330 c         1 X81      0.697100
     11 O6          2.1590   -5.5280    2.9170 o         1 X81     -0.613000
     12 C5          2.0260   -3.2140    2.0550 c3        1 X81     -0.218400
     13 C6          3.3840   -2.8690    2.6150 c3        1 X81     -0.037400
     14 C7          3.9980   -1.7490    1.7990 c3        1 X81     -0.115400
     15 C8          5.4580   -1.5500    2.1380 c3        1 X81     -0.064400
     16 C9          6.0650   -0.4550    1.2870 c3        1 X81     -0.082400
     17 C10         7.5400   -0.2750    1.5800 c3        1 X81     -0.076400
     18 C11         8.1430    0.8170    0.7230 c3        1 X81     -0.080400
     19 C12         9.6190    0.9940    1.0090 c3        1 X81     -0.077400
     20 C13        10.2200    2.0850    0.1500 c3        1 X81     -0.079400
     21 C14        11.6970    2.2610    0.4350 c3        1 X81     -0.078400
     22 C15        12.2970    3.3530   -0.4250 c3        1 X81     -0.079400
     23 C16        13.7730    3.5300   -0.1400 c3        1 X81     -0.078400
     24 C17        14.3730    4.6210   -1.0010 c3        1 X81     -0.079400
     25 C18        15.8490    4.7980   -0.7160 c3        1 X81     -0.078400
     26 C19        16.4490    5.8890   -1.5770 c3        1 X81     -0.079400
     27 C20        17.9250    6.0670   -1.2930 c3        1 X81     -0.080400
     28 C21        18.5270    7.1520   -2.1480 c3        1 X81     -0.091100
     29 O7         -1.5650   -4.6130    0.2070 os        1 X81     -0.347900
     30 C22        -2.8270   -4.6120    0.6790 c         1 X81      0.630100
     31 O8         -3.3440   -5.6380    1.1460 o         1 X81     -0.624000
     32 C23        -3.4640   -3.2560    0.5490 c3        1 X81     -0.139400
     33 C24        -4.9490   -3.3680    0.2870 c3        1 X81     -0.073400
     34 C25        -5.5990   -2.0010    0.2690 c3        1 X81     -0.079400
     35 C26        -7.0830   -2.1030   -0.0090 c3        1 X81     -0.077400
     36 C27        -7.7330   -0.7360   -0.0310 c3        1 X81     -0.080400
     37 C28        -9.2190   -0.8360   -0.3010 c3        1 X81     -0.077400
     38 C29        -9.8640    0.5350   -0.3280 c3        1 X81     -0.053200
     39 C30       -11.3220    0.4700   -0.5820 c2        1 X81     -0.158200
     40 C31       -12.1160    1.5440   -0.6380 c2        1 X81     -0.191200
     41 C32       -11.6330    2.9330   -0.4540 c3        1 X81     -0.047200
     42 C33       -12.7460    3.9510   -0.5790 c3        1 X81     -0.075400
     43 C34       -12.2230    5.3590   -0.3870 c3        1 X81     -0.080400
     44 C35       -13.3340    6.3800   -0.5110 c3        1 X81     -0.078400
     45 C36       -12.8110    7.7870   -0.3200 c3        1 X81     -0.080400
     46 C37       -13.9210    8.8090   -0.4440 c3        1 X81     -0.078400
     47 C38       -13.3980   10.2160   -0.2530 c3        1 X81     -0.081400
     48 C39       -14.4990   11.2380   -0.3760 c3        1 X81     -0.091100
     49 H2          0.6420   -6.7790   -0.9500 h1        1 X81      0.012200
     50 H3         -0.2020   -5.3380   -1.7560 h1        1 X81      0.012200
     51 H4         -1.4520   -6.6980    0.0780 h1        1 X81      0.023700
     52 H5          0.6150   -6.7270    1.6870 h1        1 X81      0.042700
     53 H6         -1.0400   -6.3380    2.4040 h1        1 X81      0.042700
     54 H7          1.2620   -2.4420    2.3160 hc        1 X81      0.152700
     55 H8          2.0860   -3.2280    0.8790 hc        1 X81      0.152700
     56 H9          3.3090   -2.5690    3.6940 hc        1 X81      0.013200
     57 H10         4.0430   -3.7760    2.5680 hc        1 X81      0.013200
     58 H11         3.4360   -0.7970    1.9850 hc        1 X81      0.090200
     59 H12         3.8700   -1.9990    0.6980 hc        1 X81      0.090200
     60 H13         6.0150   -2.5090    1.9640 hc        1 X81      0.016700
     61 H14         5.5750   -1.2920    3.2240 hc        1 X81      0.016700
     62 H15         5.5250    0.5100    1.4740 hc        1 X81      0.048700
     63 H16         5.9200   -0.7110    0.2030 hc        1 X81      0.048700
     64 H17         8.0780   -1.2410    1.3910 hc        1 X81      0.029200
     65 H18         7.6830   -0.0250    2.6640 hc        1 X81      0.029200
     66 H19         7.6050    1.7830    0.9120 hc        1 X81      0.040700
     67 H20         7.9960    0.5640   -0.3600 hc        1 X81      0.040700
     68 H54         9.7650    1.2440    2.0930 hc        1 X81      0.033700
     69 H21        10.1560    0.0270    0.8190 hc        1 X81      0.033700
     70 H56        10.0740    1.8320   -0.9330 hc        1 X81      0.039700
     71 H22         9.6820    3.0510    0.3390 hc        1 X81      0.039700
     72 H23        12.2330    1.2950    0.2450 hc        1 X81      0.036200
     73 H24        11.8430    2.5130    1.5180 hc        1 X81      0.036200
     74 H25        11.7590    4.3190   -0.2360 hc        1 X81      0.039700
     75 H26        12.1500    3.1000   -1.5080 hc        1 X81      0.039700
     76 H27        14.3100    2.5630   -0.3300 hc        1 X81      0.037200
     77 H28        13.9190    3.7820    0.9430 hc        1 X81      0.037200
     78 H29        13.8350    5.5870   -0.8120 hc        1 X81      0.039200
     79 H30        14.2270    4.3680   -2.0840 hc        1 X81      0.039200
     80 H31        16.3870    3.8310   -0.9050 hc        1 X81      0.037700
     81 H32        15.9950    5.0500    0.3670 hc        1 X81      0.037700
     82 H33        15.9110    6.8550   -1.3880 hc        1 X81      0.039200
     83 H34        16.3030    5.6360   -2.6600 hc        1 X81      0.039200
     84 H35        18.4610    5.0990   -1.4810 hc        1 X81      0.037200
     85 H36        18.0700    6.3170   -0.2090 hc        1 X81      0.037200
     86 H37        19.6140    7.2670   -1.9230 hc        1 X81      0.029700
     87 H38        18.4140    6.9080   -3.2320 hc        1 X81      0.029700
     88 H39        18.0220    8.1300   -1.9560 hc        1 X81      0.029700
     89 H40        -3.2720   -2.7040    1.5060 hc        1 X81      0.084200
     90 H41        -2.9520   -2.6920   -0.2780 hc        1 X81      0.084200
     91 H42        -5.1170   -3.8800   -0.6970 hc        1 X81      0.047200
     92 H43        -5.4210   -4.0100    1.0770 hc        1 X81      0.047200
     93 H44        -5.4350   -1.4930    1.2560 hc        1 X81      0.040700
     94 H45        -5.1100   -1.3650   -0.5160 hc        1 X81      0.040700
     95 H46        -7.2460   -2.6130   -0.9950 hc        1 X81      0.036700
     96 H47        -7.5710   -2.7390    0.7770 hc        1 X81      0.036700
     97 H48        -7.5630   -0.2230    0.9520 hc        1 X81      0.039700
     98 H49        -7.2480   -0.1040   -0.8210 hc        1 X81      0.039700
     99 H50        -9.3890   -1.3510   -1.2830 hc        1 X81      0.039200
    100 H51        -9.7040   -1.4640    0.4910 hc        1 X81      0.039200
    101 H52        -9.6780    1.0570    0.6510 hc        1 X81      0.049200
    102 H53        -9.3750    1.1640   -1.1230 hc        1 X81      0.049200
    103 H55       -11.7410   -0.5390   -0.7290 ha        1 X81      0.121000
    104 H57       -13.1950    1.4300   -0.8320 ha        1 X81      0.114000
    105 H58       -11.1480    3.0280    0.5570 hc        1 X81      0.049700
    106 H59       -10.8330    3.1540   -1.2140 hc        1 X81      0.049700
    107 H60       -13.2260    3.8620   -1.5890 hc        1 X81      0.037200
    108 H61       -13.5400    3.7370    0.1840 hc        1 X81      0.037200
    109 H62       -11.7430    5.4470    0.6230 hc        1 X81      0.042200
    110 H63       -11.4290    5.5720   -1.1500 hc        1 X81      0.042200
    111 H64       -13.8150    6.2910   -1.5210 hc        1 X81      0.037200
    112 H65       -14.1280    6.1670    0.2520 hc        1 X81      0.037200
    113 H66       -12.3300    7.8750    0.6900 hc        1 X81      0.041200
    114 H67       -12.0160    8.0000   -1.0830 hc        1 X81      0.041200
    115 H68       -14.4020    8.7210   -1.4540 hc        1 X81      0.037200
    116 H69       -14.7150    8.5960    0.3190 hc        1 X81      0.037200
    117 H70       -12.9150   10.3020    0.7560 hc        1 X81      0.039700
    118 H71       -12.6020   10.4260   -1.0170 hc        1 X81      0.039700
    119 H72       -15.2890   11.0600    0.3930 hc        1 X81      0.030033
    120 H73       -14.0920   12.2670   -0.2320 hc        1 X81      0.030033
    121 H74       -14.9750   11.1840   -1.3850 hc        1 X81      0.030033
@<TRIPOS>BOND
     1    1    3 1   
     2    2    3 1   
     3    3    4 1   
     4    3    5 1   
     5    5    6 1   
     6    6    7 1   
     7    6   49 1   
     8    6   50 1   
     9    7    8 1   
    10    7   29 1   
    11    7   51 1   
    12    8    9 1   
    13    8   52 1   
    14    8   53 1   
    15    9   10 1   
    16   10   11 2   
    17   10   12 1   
    18   12   13 1   
    19   12   54 1   
    20   12   55 1   
    21   13   14 1   
    22   13   56 1   
    23   13   57 1   
    24   14   15 1   
    25   14   58 1   
    26   14   59 1   
    27   15   16 1   
    28   15   60 1   
    29   15   61 1   
    30   16   17 1   
    31   16   62 1   
    32   16   63 1   
    33   17   18 1   
    34   17   64 1   
    35   17   65 1   
    36   18   19 1   
    37   18   66 1   
    38   18   67 1   
    39   19   20 1   
    40   19   68 1   
    41   19   69 1   
    42   20   21 1   
    43   20   70 1   
    44   20   71 1   
    45   21   22 1   
    46   21   72 1   
    47   21   73 1   
    48   22   23 1   
    49   22   74 1   
    50   22   75 1   
    51   23   24 1   
    52   23   76 1   
    53   23   77 1   
    54   24   25 1   
    55   24   78 1   
    56   24   79 1   
    57   25   26 1   
    58   25   80 1   
    59   25   81 1   
    60   26   27 1   
    61   26   82 1   
    62   26   83 1   
    63   27   28 1   
    64   27   84 1   
    65   27   85 1   
    66   28   86 1   
    67   28   87 1   
    68   28   88 1   
    69   29   30 1   
    70   30   31 2   
    71   30   32 1   
    72   32   33 1   
    73   32   89 1   
    74   32   90 1   
    75   33   34 1   
    76   33   91 1   
    77   33   92 1   
    78   34   35 1   
    79   34   93 1   
    80   34   94 1   
    81   35   36 1   
    82   35   95 1   
    83   35   96 1   
    84   36   37 1   
    85   36   97 1   
    86   36   98 1   
    87   37   38 1   
    88   37   99 1   
    89   37  100 1   
    90   38   39 1   
    91   38  101 1   
    92   38  102 1   
    93   39   40 2   
    94   39  103 1   
    95   40   41 1   
    96   40  104 1   
    97   41   42 1   
    98   41  105 1   
    99   41  106 1   
   100   42   43 1   
   101   42  107 1   
   102   42  108 1   
   103   43   44 1   
   104   43  109 1   
   105   43  110 1   
   106   44   45 1   
   107   44  111 1   
   108   44  112 1   
   109   45   46 1   
   110   45  113 1   
   111   45  114 1   
   112   46   47 1   
   113   46  115 1   
   114   46  116 1   
   115   47   48 1   
   116   47  117 1   
   117   47  118 1   
   118   48  119 1   
   119   48  120 1   
   120   48  121 1   
@<TRIPOS>SUBSTRUCTURE
     1 X81         1 TEMP              0 ****  ****    0 ROOT
