@<TRIPOS>MOLECULE
X84
   45    57     1     0     0
SMALL
bcc


@<TRIPOS>ATOM
      1 N01         0.0000    0.0000    0.0000 n7        1 X84      0.089000
      2 N02         3.1210   -0.1240    2.7900 nz        1 X84      0.306000
      3 N03        -4.1280    1.2640    0.9110 n2        1 X84      0.069000
      4 N04         3.1680   -0.0020   -3.6210 n7        1 X84     -0.325000
      5 N05         5.3470    0.0060   -1.8260 no        1 X84      1.305000
      6 C06         3.6960    0.0000    0.0000 c2        1 X84     -0.011000
      7 C07         2.3770    0.0000    0.4670 c2        1 X84     -0.571000
      8 C08         1.3130   -0.0000   -0.4520 DU        1 X84      0.052000
      9 C09         1.5820   -0.0000   -1.8120 c2        1 X84     -0.585000
     10 C10         2.8970   -0.0010   -2.2560 c3        1 X84      0.155000
     11 C11         3.9490   -0.0000   -1.3400 c2        1 X84     -0.171000
     12 C13        -1.1030    0.1460   -0.9520 c3        1 X84     -0.009000
     13 C14        -2.4150    0.1130   -0.2110 c2        1 X84     -0.320000
     14 C15        -2.9790    1.2830    0.2620 c3        1 X84     -0.129000
     15 C16        -4.7790    0.1380    1.1340 c3        1 X84      0.096000
     16 C17        -4.2750   -1.0700    0.6900 c3        1 X84     -0.374000
     17 C18        -3.0710   -1.0890    0.0040 c2        1 X84     -0.230000
     18 C19         2.0720    0.1280   -4.5850 DU        1 X84     -0.044000
     19 C20         2.6360    0.0980   -6.0050 DU        1 X84     -0.085000
     20 C21         1.4910    0.2340   -7.0120 DU        1 X84     -0.258000
     21 O22         0.9630    0.1120    2.3170 oh        1 X84     -0.277000
     22 O23         2.0190    0.2060   -8.3400 oh        1 X84     -0.421000
     23 O24         6.2010   -0.6290   -1.2340 o         1 X84     -0.542500
     24 O25         5.6450    0.6470   -2.8180 o         1 X84     -0.542500
     25 HN01        0.7060    0.1800    0.6860 DU        1 X84      0.205000
     26 H102        2.2430   -0.1240    2.3100 DU        1 X84     -0.038000
     27 H202        3.8380   -0.8200    2.8450 hn        1 X84      0.186000
     28 HN04        3.1360   -0.0700   -2.6220 hn        1 X84      0.263000
     29 H06         3.8090   -0.0360   -1.0770 ha        1 X84     -0.203000
     30 H09         2.4050   -0.0000   -1.1070 DU        1 X84      0.278000
     31 H113       -0.2780    0.0470   -1.6470 h1        1 X84      0.120500
     32 H213       -1.0070    1.0900   -1.4750 h1        1 X84      0.120500
     33 H15        -2.3620    0.6500   -0.3640 h1        1 X84      0.312000
     34 H16        -4.0170    0.8290    0.7910 DU        1 X84      0.148000
     35 H17        -5.0080   -0.4460    1.1880 DU        1 X84      0.168000
     36 H18        -3.9060   -1.5490    0.5170 DU        1 X84      0.238000
     37 H119        1.3070   -0.2210   -3.9000 ha        1 X84      0.173000
     38 H219        1.5560    1.0660   -4.4210 ha        1 X84      0.173000
     39 H120        2.0010   -0.3030   -5.2250 DU        1 X84      0.263000
     40 H220        3.3310    0.9190   -6.1350 ha        1 X84      0.171000
     41 H121        2.3280   -0.3090   -6.5890 DU        1 X84      0.169000
     42 H221        0.7970   -0.5880   -6.8820 ha        1 X84      0.074000
     43 HO23        1.5420    0.6490   -7.6590 DU        1 X84      0.313000
     44 H023        2.9690   -0.1560    1.8010 DU        1 X84      0.099000
     45 C12         2.1050    0.0000    1.9130 c3        1 X84      0.588000
@<TRIPOS>BOND
     1    1    8 1   
     2    1   12 1   
     3    1   25 1   
     4    2   26 1   
     5    2   27 1   
     6    2   44 1   
     7    2   45 1   
     8    3   14 1   
     9    3   15 1   
    10    4   10 1   
    11    4   18 1   
    12    4   28 1   
    13    5   11 1   
    14    5   23 1   
    15    5   24 1   
    16    6    7 1   
    17    6   11 1   
    18    6   29 1   
    19    7    8 1   
    20    7   45 1   
    21    8    9 1   
    22    8   25 1   
    23    8   30 1   
    24    9   10 1   
    25    9   30 1   
    26   10   11 1   
    27   10   30 1   
    28   12   13 1   
    29   12   31 1   
    30   12   32 1   
    31   13   14 1   
    32   13   17 1   
    33   14   33 1   
    34   14   34 1   
    35   15   16 1   
    36   15   34 1   
    37   15   35 1   
    38   16   17 1   
    39   16   35 1   
    40   16   36 1   
    41   17   36 1   
    42   18   19 1   
    43   18   37 1   
    44   18   38 1   
    45   18   39 1   
    46   19   20 1   
    47   19   39 1   
    48   19   40 1   
    49   19   41 1   
    50   20   22 1   
    51   20   41 1   
    52   20   42 1   
    53   20   43 1   
    54   21   26 1   
    55   21   45 1   
    56   22   43 1   
    57   44   45 1   
@<TRIPOS>SUBSTRUCTURE
     1 X84         1 TEMP              0 ****  ****    0 ROOT
