@<TRIPOS>MOLECULE
X84
   44    45     1     0     0
SMALL
bcc


@<TRIPOS>ATOM
      1 N01        -0.1860   -0.1720   -0.0400 n3        1 X84     -0.243000
      2 N02         3.0440   -0.6640    2.7870 n         1 X84     -0.397000
      3 N03        -4.9800    0.6610   -0.8610 n2        1 X84     -0.233000
      4 N04         3.0490   -0.3610   -3.6330 n3        1 X84     -0.286000
      5 N05         5.1680   -0.8060   -1.6250 no        1 X84      0.535000
      6 C06         3.3980   -0.9140    0.0660 c1        1 X84     -0.232000
      7 C07         2.1590   -0.5990    0.5150 c2        1 X84     -0.287000
      8 C08         1.0890   -0.3320   -0.4330 c2        1 X84      0.285000
      9 C09         1.4440   -0.2200   -1.8290 c2        1 X84     -0.378000
     10 C10         2.7090   -0.4990   -2.3170 c2        1 X84      0.160000
     11 C11         3.6930   -1.1480   -1.3470 c3        1 X84     -0.052000
     12 C13        -1.2800    0.1680   -0.9190 c3        1 X84      0.021000
     13 C14        -2.5950    0.3820   -0.2270 c2        1 X84     -0.219000
     14 C15        -3.7460    0.4720   -1.1350 c2        1 X84     -0.006000
     15 C16        -3.5130    0.7060    2.2730 cu        1 X84     -0.102500
     16 C17        -2.1940    0.5300    2.4290 cu        1 X84     -0.102500
     17 C18        -2.7240    0.5040    1.0890 cu        1 X84     -0.074000
     18 C19         2.1560    0.2580   -4.5850 c3        1 X84     -0.037000
     19 C20         2.7960    0.4650   -5.9540 c3        1 X84     -0.218000
     20 C21         1.7760    1.0750   -6.9040 c3        1 X84     -0.019000
     21 O22         0.8390   -0.2410    2.5200 o         1 X84     -0.495000
     22 O23         2.3580    1.3890   -8.1520 oh        1 X84     -0.315000
     23 O24         5.9980   -1.6170   -1.3390 o         1 X84     -0.360000
     24 O25         5.4390    0.2370   -2.1570 o         1 X84     -0.360000
     25 HN01       -0.3860   -0.2260    0.9470 hn        1 X84      0.288000
     26 H102        2.9470   -0.5910    3.7670 hn        1 X84      0.241000
     27 H202        3.9300   -0.8570    2.3820 hn        1 X84      0.241000
     28 HN04        4.0190   -0.3350   -3.8720 hn        1 X84      0.249000
     29 H06         3.6230   -2.2760   -1.5010 h1        1 X84      0.183000
     30 H09         0.6690    0.1410   -2.5240 ha        1 X84      0.144000
     31 H113       -1.0230    1.1160   -1.4810 h1        1 X84      0.098000
     32 H213       -1.4010   -0.6620   -1.6780 h1        1 X84      0.098000
     33 H15        -3.4940    0.3590   -2.2120 h4        1 X84      0.139000
     34 H16        -5.2100    0.7640    0.1070 hn        1 X84      0.132000
     35 H17        -4.4930    0.8760    2.6730 ha        1 X84      0.222000
     36 H18        -1.3020    0.4410    3.0300 ha        1 X84      0.222000
     37 H119        1.2480   -0.4040   -4.6950 h1        1 X84      0.092500
     38 H219        1.8040    1.2580   -4.1920 h1        1 X84      0.092500
     39 H120        3.1580   -0.5110   -6.3700 hc        1 X84      0.102500
     40 H220        3.6820    1.1490   -5.8770 hc        1 X84      0.102500
     41 H121        1.4030    2.0600   -6.5140 h1        1 X84      0.089000
     42 H221        0.9070    0.3770   -7.0430 h1        1 X84      0.089000
     43 HO23        2.6870    0.5660   -8.5330 ho        1 X84      0.199000
     44 C12         1.9550   -0.4870    1.9820 c2        1 X84      0.391000
@<TRIPOS>BOND
     1    1    8 1   
     2    1   12 1   
     3    1   25 1   
     4    2   26 1   
     5    2   27 1   
     6    2   44 1   
     7    3   14 1   
     8    3   34 1   
     9    4   10 1   
    10    4   18 1   
    11    4   28 1   
    12    5   11 1   
    13    5   23 1   
    14    5   24 1   
    15    6    7 1   
    16    6   11 1   
    17    7    8 1   
    18    7   44 1   
    19    8    9 1   
    20    9   10 1   
    21    9   30 1   
    22   10   11 1   
    23   11   29 1   
    24   12   13 1   
    25   12   31 1   
    26   12   32 1   
    27   13   14 1   
    28   13   17 1   
    29   14   33 1   
    30   15   16 1   
    31   15   17 1   
    32   15   35 1   
    33   16   17 1   
    34   16   36 1   
    35   18   19 1   
    36   18   37 1   
    37   18   38 1   
    38   19   20 1   
    39   19   39 1   
    40   19   40 1   
    41   20   22 1   
    42   20   41 1   
    43   20   42 1   
    44   21   44 1   
    45   22   43 1   
@<TRIPOS>SUBSTRUCTURE
     1 X84         1 TEMP              0 ****  ****    0 ROOT
