@<TRIPOS>MOLECULE
X84
   44    45     1     0     0
SMALL
bcc


@<TRIPOS>ATOM
      1 N01         1.7740   -0.3180    0.1680 nh        1 X84     -0.752600
      2 N02         1.1470   -4.3070    0.8250 n         1 X84     -0.666000
      3 N03         5.4360    2.4500   -1.0820 nb        1 X84     -0.661000
      4 N04        -2.9780    0.5950   -0.0590 nh        1 X84     -0.760600
      5 N05        -3.5290   -2.3410   -0.2060 no        1 X84      0.335200
      6 C06        -1.0980   -2.6210   -0.0620 ca        1 X84      0.041000
      7 C07         0.2080   -2.1850    0.0280 ca        1 X84     -0.276600
      8 C08         0.4820   -0.7740    0.0510 ca        1 X84      0.317600
      9 C09        -0.6110    0.1140    0.0140 ca        1 X84     -0.346000
     10 C10        -1.9600   -0.3180   -0.0560 ca        1 X84      0.337600
     11 C11        -2.1930   -1.7360   -0.1070 ca        1 X84     -0.338200
     12 C13         2.0950    1.0810    0.0270 c3        1 X84      0.260100
     13 C14         3.5680    1.3460    0.0070 ca        1 X84     -0.228600
     14 C15         4.1290    2.1350   -1.0190 ca        1 X84      0.410200
     15 C16         6.2380    1.9720   -0.1100 ca        1 X84      0.403200
     16 C17         5.7750    1.1730    0.9520 ca        1 X84     -0.244300
     17 C18         4.4170    0.8590    1.0080 ca        1 X84     -0.075000
     18 C19        -2.7490    2.0160   -0.0360 c3        1 X84      0.214800
     19 C20        -4.0460    2.8220   -0.0690 c3        1 X84     -0.102400
     20 C21        -3.7120    4.3050   -0.0440 c3        1 X84      0.135400
     21 O22         2.3950   -3.0130   -0.5500 o         1 X84     -0.640100
     22 O23        -4.9490    4.9990   -0.0640 oh        1 X84     -0.595800
     23 O24        -3.6220   -3.5420   -0.1380 o         1 X84     -0.238500
     24 O25        -4.5160   -1.6620   -0.3530 o         1 X84     -0.238500
     25 HN01        2.5130   -0.9670   -0.0230 hn        1 X84      0.467800
     26 H102        0.3120   -4.4720    1.3240 hn        1 X84      0.317000
     27 H202        1.8590   -4.9950    0.8350 hn        1 X84      0.317000
     28 HN04       -3.9230    0.2920   -0.1590 hn        1 X84      0.475800
     29 H06        -1.3080   -3.7080   -0.1190 ha        1 X84      0.167000
     30 H09        -0.4100    1.1970    0.0420 ha        1 X84      0.144000
     31 H113        1.6280    1.4960   -0.9170 h1        1 X84      0.051700
     32 H213        1.6430    1.6380    0.9020 h1        1 X84      0.051700
     33 H15         3.5000    2.5350   -1.8350 h4        1 X84      0.024100
     34 H16         7.3060    2.2440   -0.1920 h4        1 X84      0.026100
     35 H17         6.4730    0.8060    1.7160 ha        1 X84      0.148000
     36 H18         4.0200    0.2390    1.8250 ha        1 X84      0.148000
     37 H119       -2.1750    2.2830    0.9000 h1        1 X84      0.043700
     38 H219       -2.1130    2.3110   -0.9230 h1        1 X84      0.043700
     39 H120       -4.6360    2.5920   -0.9940 hc        1 X84      0.071200
     40 H220       -4.6930    2.5740    0.8120 hc        1 X84      0.071200
     41 H121       -3.1400    4.5670    0.8870 h1        1 X84      0.023200
     42 H221       -3.0970    4.5890   -0.9400 h1        1 X84      0.023200
     43 HO23       -4.7370    5.9400   -0.0570 ho        1 X84      0.405000
     44 C12         1.3170   -3.1760    0.0670 c         1 X84      0.689700
@<TRIPOS>BOND
     1    1    8 1   
     2    1   12 1   
     3    1   25 1   
     4    2   26 1   
     5    2   27 1   
     6    2   44 1   
     7    3   14 ar  
     8    3   15 ar  
     9    4   10 1   
    10    4   18 1   
    11    4   28 1   
    12    5   11 1   
    13    5   23 1   
    14    5   24 1   
    15    6    7 ar  
    16    6   11 ar  
    17    6   29 1   
    18    7    8 ar  
    19    7   44 1   
    20    8    9 ar  
    21    9   10 ar  
    22    9   30 1   
    23   10   11 ar  
    24   12   13 1   
    25   12   31 1   
    26   12   32 1   
    27   13   14 ar  
    28   13   17 ar  
    29   14   33 1   
    30   15   16 ar  
    31   15   34 1   
    32   16   17 ar  
    33   16   35 1   
    34   17   36 1   
    35   18   19 1   
    36   18   37 1   
    37   18   38 1   
    38   19   20 1   
    39   19   39 1   
    40   19   40 1   
    41   20   22 1   
    42   20   41 1   
    43   20   42 1   
    44   21   44 2   
    45   22   43 1   
@<TRIPOS>SUBSTRUCTURE
     1 X84         1 TEMP              0 ****  ****    0 ROOT
