@<TRIPOS>MOLECULE
X85
   56    58     1     0     0
SMALL
bcc


@<TRIPOS>ATOM
      1 C1         -0.8750   -0.5920    0.0030 ca        1 X85     -0.345000
      2 C2         -0.0030   -1.7050   -0.1130 ca        1 X85      0.338600
      3 C3         -0.6090   -3.0020   -0.2640 ca        1 X85     -0.339200
      4 C4         -2.0130   -3.1140   -0.2790 ca        1 X85      0.042000
      5 C5         -2.8480   -2.0220   -0.1520 ca        1 X85     -0.279600
      6 C6         -2.2780   -0.7090   -0.0130 ca        1 X85      0.317600
      7 C7         -4.3230   -2.2070   -0.2060 c         1 X85      0.690700
      8 N8         -4.8670   -3.2790    0.4540 n         1 X85     -0.664000
      9 O9         -5.0800   -1.4190   -0.8210 o         1 X85     -0.646100
     10 N10         0.1540   -4.2480   -0.4100 no        1 X85      0.335200
     11 O11         1.3590   -4.2390   -0.5050 o         1 X85     -0.240000
     12 O12        -0.4490   -5.2930   -0.4370 o         1 X85     -0.240000
     13 N13        -3.0910    0.3850    0.1590 nh        1 X85     -0.750600
     14 C14        -2.5800    1.7310    0.0620 c3        1 X85      0.261100
     15 N15         1.3510   -1.5280   -0.0690 nh        1 X85     -0.760600
     16 C16         1.9640   -0.2330    0.0660 c3        1 X85      0.212800
     17 C17         3.4920   -0.3010    0.0710 c3        1 X85     -0.098400
     18 C18         4.0420    1.1220    0.1560 c3        1 X85      0.173800
     19 C19         7.4270    2.6410    0.9000 c3        1 X85      0.126400
     20 C20         5.9100    2.5370    0.7100 c3        1 X85      0.130800
     21 N21         5.4760    1.1780    0.4070 n3        1 X85     -0.724600
     22 C22         6.2640    0.5770   -0.6620 c3        1 X85      0.130800
     23 C23         7.7730    0.7350   -0.4450 c3        1 X85      0.126400
     24 O24         8.1320    2.0910   -0.2050 os        1 X85     -0.413600
     25 C25        -5.5260    4.7730   -0.1410 ca        1 X85      0.401200
     26 N26        -4.5560    4.8660    0.7890 nb        1 X85     -0.662000
     27 C27        -3.6470    3.8750    0.8380 ca        1 X85      0.409200
     28 C28        -3.6580    2.7650   -0.0330 ca        1 X85     -0.228600
     29 C29        -4.6750    2.6860   -0.9920 ca        1 X85     -0.080000
     30 C30        -5.6270    3.7040   -1.0510 ca        1 X85     -0.241300
     31 H1         -0.4330    0.4090    0.1170 ha        1 X85      0.145000
     32 H4         -2.4520   -4.1230   -0.4170 ha        1 X85      0.167000
     33 H1N8       -4.3040   -3.9090    0.9630 hn        1 X85      0.317500
     34 H2N8       -5.8440   -3.4310    0.4110 hn        1 X85      0.317500
     35 HN13       -4.0710    0.2670   -0.0080 hn        1 X85      0.464800
     36 H114       -1.9410    1.9320    0.9730 h1        1 X85      0.052200
     37 H214       -1.9140    1.8310   -0.8480 h1        1 X85      0.052200
     38 HN15        1.9620   -2.3090   -0.1770 hn        1 X85      0.473800
     39 H116        1.6300    0.4320   -0.7840 h1        1 X85      0.044700
     40 H216        1.6160    0.2440    1.0300 h1        1 X85      0.044700
     41 H117        3.8490   -0.9090    0.9430 hc        1 X85      0.063700
     42 H217        3.8590   -0.7980   -0.8650 hc        1 X85      0.063700
     43 H118        3.7610    1.6700   -0.7920 h1        1 X85      0.033700
     44 H218        3.5350    1.6510    1.0140 h1        1 X85      0.033700
     45 H219        7.7450    2.1250    1.8440 h1        1 X85      0.055700
     46 H120        5.4090    2.8520    1.6670 h1        1 X85      0.041200
     47 H220        5.6020    3.2620   -0.1000 h1        1 X85      0.041200
     48 H122        6.0260   -0.5230   -0.6860 h1        1 X85      0.041200
     49 H222        5.9990    1.0140   -1.6690 h1        1 X85      0.041200
     50 H123        8.1190    0.0980    0.4110 h1        1 X85      0.055700
     51 H223        8.3270    0.4600   -1.3800 h1        1 X85      0.055700
     52 H25        -6.2590    5.6000   -0.1540 h4        1 X85      0.026100
     53 H27        -2.8690    3.9760    1.6160 h4        1 X85      0.024100
     54 H29        -4.7260    1.8360   -1.6910 ha        1 X85      0.153000
     55 H30        -6.4400    3.6750   -1.7880 ha        1 X85      0.150000
     56 H119        7.7390    3.7180    0.9240 h1        1 X85      0.055700
@<TRIPOS>BOND
     1    1    2 ar  
     2    1    6 ar  
     3    1   31 1   
     4    2    3 ar  
     5    2   15 1   
     6    3    4 ar  
     7    3   10 1   
     8    4    5 ar  
     9    4   32 1   
    10    5    6 ar  
    11    5    7 1   
    12    6   13 1   
    13    7    8 1   
    14    7    9 2   
    15    8   33 1   
    16    8   34 1   
    17   10   11 1   
    18   10   12 1   
    19   13   14 1   
    20   13   35 1   
    21   14   28 1   
    22   14   36 1   
    23   14   37 1   
    24   15   16 1   
    25   15   38 1   
    26   16   17 1   
    27   16   39 1   
    28   16   40 1   
    29   17   18 1   
    30   17   41 1   
    31   17   42 1   
    32   18   21 1   
    33   18   43 1   
    34   18   44 1   
    35   19   20 1   
    36   19   24 1   
    37   19   45 1   
    38   19   56 1   
    39   20   21 1   
    40   20   46 1   
    41   20   47 1   
    42   21   22 1   
    43   22   23 1   
    44   22   48 1   
    45   22   49 1   
    46   23   24 1   
    47   23   50 1   
    48   23   51 1   
    49   25   26 ar  
    50   25   30 ar  
    51   25   52 1   
    52   26   27 ar  
    53   27   28 ar  
    54   27   53 1   
    55   28   29 ar  
    56   29   30 ar  
    57   29   54 1   
    58   30   55 1   
@<TRIPOS>SUBSTRUCTURE
     1 X85         1 TEMP              0 ****  ****    0 ROOT
