@<TRIPOS>MOLECULE
X85
   57    59     1     0     0
SMALL
bcc


@<TRIPOS>ATOM
      1 C1         -0.0420   -0.0590    0.0070 ca        1 X85     -0.363000
      2 C2          1.3690   -0.0650   -0.0870 ca        1 X85      0.351600
      3 C3          2.0990   -0.0340    1.1750 ca        1 X85     -0.287200
      4 C4          1.4080    0.0270    2.3700 ca        1 X85      0.049000
      5 C5          0.0040    0.0580    2.4610 ca        1 X85     -0.350600
      6 C6         -0.7590   -0.0070    1.2240 ca        1 X85      0.357600
      7 C7         -0.6610    0.1460    3.7250 c         1 X85      0.588700
      8 N8          0.2070    0.3160    4.9740 n4        1 X85     -0.761400
      9 O9         -1.8540    0.1200    4.0280 o         1 X85     -0.494100
     10 N10         3.5810   -0.0660    1.2610 no        1 X85      0.330200
     11 O11         4.2530   -0.1810    0.2730 o         1 X85     -0.203000
     12 O12         4.0760    0.0240    2.3550 o         1 X85     -0.203000
     13 N13        -2.1170   -0.0110    1.2270 nh        1 X85     -0.734600
     14 C14        -2.9130   -0.0680    0.0170 c3        1 X85      0.263100
     15 N15         1.9910   -0.0930   -1.2870 nh        1 X85     -0.710600
     16 C16         1.2790   -0.1150   -2.5470 c3        1 X85      0.195800
     17 C17         2.2210   -0.1230   -3.7500 c3        1 X85     -0.101400
     18 C18         1.3770   -0.1840   -5.0260 c3        1 X85      0.177800
     19 C19         2.1050    0.4890   -8.6800 c3        1 X85      0.125900
     20 C20         1.3090    0.3420   -7.3780 c3        1 X85      0.130800
     21 N21         2.1600    0.0330   -6.2320 n3        1 X85     -0.727600
     22 C22         3.0870   -1.0570   -6.5110 c3        1 X85      0.130800
     23 C23         3.8330   -0.8760   -7.8380 c3        1 X85      0.125900
     24 O24         2.9330   -0.6430   -8.9140 os        1 X85     -0.406600
     25 C25        -7.0670    0.1730    0.8160 ca        1 X85      0.422200
     26 N26        -6.2920    1.2430    1.0820 nb        1 X85     -0.651000
     27 C27        -4.9760    1.1350    0.8260 ca        1 X85      0.413200
     28 C28        -4.3790   -0.0320    0.3070 ca        1 X85     -0.262600
     29 C29        -5.1980   -1.1360    0.0400 ca        1 X85     -0.066000
     30 C30        -6.5660   -1.0350    0.2930 ca        1 X85     -0.239300
     31 H1         -0.6190   -0.1000   -0.9330 ha        1 X85      0.166000
     32 H4          2.0210    0.0450    3.2930 ha        1 X85      0.146000
     33 H1N8        0.7940    1.1480    4.8870 hn        1 X85      0.464133
     34 H2N8       -0.4060    0.4170    5.7930 hn        1 X85      0.464133
     35 HN13       -2.6230    0.0120    2.0880 hn        1 X85      0.469800
     36 H114       -2.6450    0.8150   -0.6370 h1        1 X85      0.066700
     37 H214       -2.6560   -1.0130   -0.5470 h1        1 X85      0.066700
     38 HN15        2.9910   -0.1080   -1.3440 hn        1 X85      0.485800
     39 H116        0.6230   -1.0340   -2.5820 h1        1 X85      0.059200
     40 H216        0.6110    0.7940   -2.6050 h1        1 X85      0.059200
     41 H117        2.8580    0.8000   -3.7530 hc        1 X85      0.070200
     42 H217        2.9050   -1.0110   -3.7010 hc        1 X85      0.070200
     43 H118        0.8340   -1.1760   -5.0460 h1        1 X85      0.034200
     44 H218        0.5960    0.6280   -4.9750 h1        1 X85      0.034200
     45 H120        0.5200   -0.4510   -7.5300 h1        1 X85      0.040950
     46 H220        0.7890    1.3170   -7.1670 h1        1 X85      0.040950
     47 H122        3.8470   -1.0820   -5.6800 h1        1 X85      0.040950
     48 H222        2.5590   -2.0540   -6.5310 h1        1 X85      0.040950
     49 H123        4.3620   -1.8250   -8.1150 h1        1 X85      0.060700
     50 H223        4.5660   -0.0300   -7.7690 h1        1 X85      0.060700
     51 H25        -8.1450    0.2950    1.0320 h4        1 X85      0.041100
     52 H27        -4.3700    2.0350    1.0410 h4        1 X85      0.024100
     53 H29        -4.7730   -2.0660   -0.3670 ha        1 X85      0.145000
     54 H30        -7.2430   -1.8760    0.0910 ha        1 X85      0.161000
     55 H119        2.7330    1.4180   -8.6580 h1        1 X85      0.060700
     56 H83         0.8050   -0.5040    5.1040 hn        1 X85      0.464133
     57 H219        1.4070    0.5130   -9.5570 h1        1 X85      0.060700
@<TRIPOS>BOND
     1    1    2 ar  
     2    1    6 ar  
     3    1   31 1   
     4    2    3 ar  
     5    2   15 1   
     6    3    4 ar  
     7    3   10 1   
     8    4    5 ar  
     9    4   32 1   
    10    5    6 ar  
    11    5    7 1   
    12    6   13 1   
    13    7    8 1   
    14    7    9 2   
    15    8   33 1   
    16    8   34 1   
    17    8   56 1   
    18   10   11 1   
    19   10   12 1   
    20   13   14 1   
    21   13   35 1   
    22   14   28 1   
    23   14   36 1   
    24   14   37 1   
    25   15   16 1   
    26   15   38 1   
    27   16   17 1   
    28   16   39 1   
    29   16   40 1   
    30   17   18 1   
    31   17   41 1   
    32   17   42 1   
    33   18   21 1   
    34   18   43 1   
    35   18   44 1   
    36   19   20 1   
    37   19   24 1   
    38   19   55 1   
    39   19   57 1   
    40   20   21 1   
    41   20   45 1   
    42   20   46 1   
    43   21   22 1   
    44   22   23 1   
    45   22   47 1   
    46   22   48 1   
    47   23   24 1   
    48   23   49 1   
    49   23   50 1   
    50   25   26 ar  
    51   25   30 ar  
    52   25   51 1   
    53   26   27 ar  
    54   27   28 ar  
    55   27   52 1   
    56   28   29 ar  
    57   29   30 ar  
    58   29   53 1   
    59   30   54 1   
@<TRIPOS>SUBSTRUCTURE
     1 X85         1 TEMP              0 ****  ****    0 ROOT
