@<TRIPOS>MOLECULE
X85
   56    58     1     0     0
SMALL
bcc


@<TRIPOS>ATOM
      1 C1         -0.0210   -0.0510   -0.0260 ca        1 X85     -0.345000
      2 C2          1.3870   -0.2030   -0.0970 ca        1 X85      0.338600
      3 C3          2.0950   -0.3560    1.1460 ca        1 X85     -0.339200
      4 C4          1.3790   -0.3360    2.3590 ca        1 X85      0.042000
      5 C5          0.0090   -0.1740    2.4120 ca        1 X85     -0.279600
      6 C6         -0.7330   -0.0320    1.1880 ca        1 X85      0.317600
      7 C7         -0.6900   -0.1920    3.7240 c         1 X85      0.690700
      8 N8         -0.1090    0.4670    4.7770 n         1 X85     -0.664000
      9 O9         -1.7840   -0.7770    3.8980 o         1 X85     -0.646100
     10 N10         3.5490   -0.5380    1.2410 no        1 X85      0.335200
     11 O11         4.2320   -0.6630    0.2530 o         1 X85     -0.240000
     12 O12         4.0560   -0.5640    2.3360 o         1 X85     -0.240000
     13 N13        -2.0910    0.1760    1.2200 nh        1 X85     -0.750600
     14 C14        -2.9000    0.0840    0.0300 c3        1 X85      0.261100
     15 N15         2.0220   -0.1920   -1.3070 nh        1 X85     -0.760600
     16 C16         1.3190   -0.0550   -2.5560 c3        1 X85      0.212800
     17 C17         2.2550   -0.0910   -3.7660 c3        1 X85     -0.098400
     18 C18         1.4090   -0.0000   -5.0360 c3        1 X85      0.173800
     19 C19         2.1330    0.6770   -8.6880 c3        1 X85      0.126400
     20 C20         1.3400    0.5240   -7.3850 c3        1 X85      0.130800
     21 N21         2.1950    0.2140   -6.2430 n3        1 X85     -0.724600
     22 C22         3.1120   -0.8820   -6.5280 c3        1 X85      0.130800
     23 C23         3.8560   -0.7020   -7.8560 c3        1 X85      0.126400
     24 O24         2.9610   -0.4530   -8.9330 os        1 X85     -0.413600
     25 C25        -7.0870   -0.0040    0.6900 ca        1 X85      0.401200
     26 N26        -6.5810    0.9030   -0.1690 nb        1 X85     -0.662000
     27 C27        -5.2460    0.9150   -0.3420 ca        1 X85      0.409200
     28 C28        -4.3680    0.0300    0.3170 ca        1 X85     -0.228600
     29 C29        -4.9120   -0.9040    1.2060 ca        1 X85     -0.080000
     30 C30        -6.2940   -0.9240    1.4000 ca        1 X85     -0.241300
     31 H1         -0.5830    0.0650   -0.9670 ha        1 X85      0.145000
     32 H4          1.9480   -0.4770    3.3000 ha        1 X85      0.167000
     33 H1N8       -0.5480    0.4480    5.6640 hn        1 X85      0.317500
     34 H2N8        0.7440    0.9540    4.6730 hn        1 X85      0.317500
     35 HN13       -2.5620    0.0320    2.0920 hn        1 X85      0.464800
     36 H114       -2.6730    0.9800   -0.6210 h1        1 X85      0.052200
     37 H214       -2.6220   -0.8420   -0.5610 h1        1 X85      0.052200
     38 HN15        3.0100   -0.3260   -1.3560 hn        1 X85      0.473800
     39 H116        0.5620   -0.8880   -2.6540 h1        1 X85      0.044700
     40 H216        0.7540    0.9230   -2.5580 h1        1 X85      0.044700
     41 H117        2.9790    0.7640   -3.7200 hc        1 X85      0.063700
     42 H217        2.8480   -1.0420   -3.7670 hc        1 X85      0.063700
     43 H118        0.7750   -0.9340   -5.1090 h1        1 X85      0.033700
     44 H218        0.7070    0.8770   -4.9370 h1        1 X85      0.033700
     45 H219        2.7620    1.6060   -8.6630 h1        1 X85      0.055700
     46 H120        0.5500   -0.2680   -7.5390 h1        1 X85      0.041200
     47 H220        0.8190    1.4980   -7.1690 h1        1 X85      0.041200
     48 H122        2.5770   -1.8760   -6.5500 h1        1 X85      0.041200
     49 H222        3.8740   -0.9150   -5.7000 h1        1 X85      0.041200
     50 H123        4.3760   -1.6550   -8.1380 h1        1 X85      0.055700
     51 H223        4.5980    0.1370   -7.7830 h1        1 X85      0.055700
     52 H25        -8.1850    0.0130    0.8140 h4        1 X85      0.026100
     53 H27        -4.8620    1.6740   -1.0480 h4        1 X85      0.024100
     54 H29        -4.2650   -1.6120    1.7470 ha        1 X85      0.153000
     55 H30        -6.7570   -1.6400    2.0920 ha        1 X85      0.150000
     56 H119        1.4330    0.7070   -9.5630 h1        1 X85      0.055700
@<TRIPOS>BOND
     1    1    2 ar  
     2    1    6 ar  
     3    1   31 1   
     4    2    3 ar  
     5    2   15 1   
     6    3    4 ar  
     7    3   10 1   
     8    4    5 ar  
     9    4   32 1   
    10    5    6 ar  
    11    5    7 1   
    12    6   13 1   
    13    7    8 1   
    14    7    9 2   
    15    8   33 1   
    16    8   34 1   
    17   10   11 1   
    18   10   12 1   
    19   13   14 1   
    20   13   35 1   
    21   14   28 1   
    22   14   36 1   
    23   14   37 1   
    24   15   16 1   
    25   15   38 1   
    26   16   17 1   
    27   16   39 1   
    28   16   40 1   
    29   17   18 1   
    30   17   41 1   
    31   17   42 1   
    32   18   21 1   
    33   18   43 1   
    34   18   44 1   
    35   19   20 1   
    36   19   24 1   
    37   19   45 1   
    38   19   56 1   
    39   20   21 1   
    40   20   46 1   
    41   20   47 1   
    42   21   22 1   
    43   22   23 1   
    44   22   48 1   
    45   22   49 1   
    46   23   24 1   
    47   23   50 1   
    48   23   51 1   
    49   25   26 ar  
    50   25   30 ar  
    51   25   52 1   
    52   26   27 ar  
    53   27   28 ar  
    54   27   53 1   
    55   28   29 ar  
    56   29   30 ar  
    57   29   54 1   
    58   30   55 1   
@<TRIPOS>SUBSTRUCTURE
     1 X85         1 TEMP              0 ****  ****    0 ROOT
