@<TRIPOS>MOLECULE
X85
   57    59     1     0     0
SMALL
bcc


@<TRIPOS>ATOM
      1 C1         -0.0440   -0.0590    0.0090 ca        1 X85     -0.363000
      2 C2          1.3670   -0.0660   -0.0850 ca        1 X85      0.351600
      3 C3          2.0960   -0.0360    1.1770 ca        1 X85     -0.287200
      4 C4          1.4040    0.0250    2.3720 ca        1 X85      0.049000
      5 C5          0.0010    0.0570    2.4620 ca        1 X85     -0.350600
      6 C6         -0.7620   -0.0070    1.2240 ca        1 X85      0.357600
      7 C7         -0.6650    0.1450    3.7250 c         1 X85      0.588700
      8 N8          0.2030    0.3140    4.9760 nz        1 X85     -0.761400
      9 O9         -1.8580    0.1210    4.0290 o         1 X85     -0.494100
     10 N10         3.5780   -0.0700    1.2640 no        1 X85      0.330200
     11 O11         4.2510   -0.1850    0.2760 o         1 X85     -0.203000
     12 O12         4.0720    0.0190    2.3580 o         1 X85     -0.203000
     13 N13        -2.1200   -0.0100    1.2270 nu        1 X85     -0.734600
     14 C14        -2.9150   -0.0650    0.0170 c3        1 X85      0.263100
     15 N15         1.9890   -0.0940   -1.2850 nu        1 X85     -0.710600
     16 C16         1.2780   -0.1160   -2.5450 c3        1 X85      0.195800
     17 C17         2.2210   -0.1250   -3.7480 c3        1 X85     -0.101400
     18 C18         1.3770   -0.1840   -5.0240 c3        1 X85      0.177800
     19 C19         2.1080    0.4880   -8.6770 c3        1 X85      0.125900
     20 C20         1.3110    0.3430   -7.3760 c3        1 X85      0.130800
     21 N21         2.1610    0.0320   -6.2300 n3        1 X85     -0.727600
     22 C22         3.0860   -1.0600   -6.5080 c3        1 X85      0.130800
     23 C23         3.8320   -0.8810   -7.8360 c3        1 X85      0.125900
     24 O24         2.9330   -0.6460   -8.9120 os        1 X85     -0.406600
     25 C25        -7.0690    0.1800    0.8130 ca        1 X85      0.422200
     26 N26        -6.2930    1.2500    1.0790 nb        1 X85     -0.651000
     27 C27        -4.9780    1.1400    0.8240 ca        1 X85      0.413200
     28 C28        -4.3810   -0.0280    0.3050 ca        1 X85     -0.262600
     29 C29        -5.2010   -1.1310    0.0390 ca        1 X85     -0.066000
     30 C30        -6.5690   -1.0290    0.2910 ca        1 X85     -0.239300
     31 H1         -0.6200   -0.1000   -0.9320 ha        1 X85      0.166000
     32 H4          2.0180    0.0430    3.2950 ha        1 X85      0.146000
     33 H1N8       -0.4110    0.4160    5.7940 hn        1 X85      0.464133
     34 H2N8        0.7990   -0.5070    5.1060 hn        1 X85      0.464133
     35 HN13       -2.6260    0.0140    2.0880 hn        1 X85      0.469800
     36 H114       -2.6460    0.8170   -0.6380 h1        1 X85      0.066700
     37 H214       -2.6590   -1.0110   -0.5470 h1        1 X85      0.066700
     38 HN15        2.9900   -0.1100   -1.3410 hn        1 X85      0.485800
     39 H116        0.6110    0.7940   -2.6030 h1        1 X85      0.059200
     40 H216        0.6220   -1.0340   -2.5810 h1        1 X85      0.059200
     41 H117        2.8590    0.7980   -3.7500 hc        1 X85      0.070200
     42 H217        2.9040   -1.0130   -3.6990 hc        1 X85      0.070200
     43 H118        0.8330   -1.1740   -5.0450 h1        1 X85      0.034200
     44 H218        0.5980    0.6300   -4.9740 h1        1 X85      0.034200
     45 H120        0.7940    1.3200   -7.1650 h1        1 X85      0.040950
     46 H220        0.5200   -0.4480   -7.5290 h1        1 X85      0.040950
     47 H122        2.5540   -2.0570   -6.5300 h1        1 X85      0.040950
     48 H222        3.8450   -1.0880   -5.6780 h1        1 X85      0.040950
     49 H123        4.3590   -1.8310   -8.1130 h1        1 X85      0.060700
     50 H223        4.5670   -0.0370   -7.7660 h1        1 X85      0.060700
     51 H25        -8.1470    0.3030    1.0280 h4        1 X85      0.041100
     52 H27        -4.3710    2.0390    1.0380 h4        1 X85      0.024100
     53 H29        -4.7770   -2.0620   -0.3680 ha        1 X85      0.145000
     54 H30        -7.2470   -1.8700    0.0890 ha        1 X85      0.161000
     55 H119        1.4100    0.5150   -9.5550 h1        1 X85      0.060700
     56 H83         0.7910    1.1450    4.8890 hn        1 X85      0.464133
     57 H219        2.7380    1.4170   -8.6550 h1        1 X85      0.060700
@<TRIPOS>BOND
     1    1    2 ar  
     2    1    6 ar  
     3    1   31 1   
     4    2    3 ar  
     5    2   15 1   
     6    3    4 ar  
     7    3   10 1   
     8    4    5 ar  
     9    4   32 1   
    10    5    6 ar  
    11    5    7 1   
    12    6   13 1   
    13    7    8 1   
    14    7    9 2   
    15    8   33 1   
    16    8   34 1   
    17    8   56 1   
    18   10   11 1   
    19   10   12 1   
    20   13   14 1   
    21   13   35 1   
    22   14   28 1   
    23   14   36 1   
    24   14   37 1   
    25   15   16 1   
    26   15   38 1   
    27   16   17 1   
    28   16   39 1   
    29   16   40 1   
    30   17   18 1   
    31   17   41 1   
    32   17   42 1   
    33   18   21 1   
    34   18   43 1   
    35   18   44 1   
    36   19   20 1   
    37   19   24 1   
    38   19   55 1   
    39   19   57 1   
    40   20   21 1   
    41   20   45 1   
    42   20   46 1   
    43   21   22 1   
    44   22   23 1   
    45   22   47 1   
    46   22   48 1   
    47   23   24 1   
    48   23   49 1   
    49   23   50 1   
    50   25   26 ar  
    51   25   30 ar  
    52   25   51 1   
    53   26   27 ar  
    54   27   28 ar  
    55   27   52 1   
    56   28   29 ar  
    57   29   30 ar  
    58   29   53 1   
    59   30   54 1   
@<TRIPOS>SUBSTRUCTURE
     1 X85         1 TEMP              0 ****  ****    0 ROOT
