@<TRIPOS>MOLECULE
X86
   47    48     1     0     0
SMALL
bcc


@<TRIPOS>ATOM
      1 N01         2.0350   -0.1250    0.1770 nh        1 X86     -0.750600
      2 N02         2.3310   -4.1850    0.4970 n         1 X86     -0.664000
      3 N03         5.0440    3.5070    0.7950 nb        1 X86     -0.662000
      4 N04        -2.7960   -0.2660   -0.1080 nh        1 X86     -0.760600
      5 N05        -2.6840   -3.2390   -0.4280 no        1 X86      0.335200
      6 C06        -0.2520   -2.9830   -0.2720 ca        1 X86      0.042000
      7 C07         0.9250   -2.2760   -0.1360 ca        1 X86     -0.279600
      8 C08         0.8780   -0.8440   -0.0050 ca        1 X86      0.316600
      9 C09        -0.3830   -0.2180   -0.0090 ca        1 X86     -0.345000
     10 C10        -1.6030   -0.9310   -0.1350 ca        1 X86      0.338600
     11 C11        -1.5160   -2.3610   -0.2750 ca        1 X86     -0.338200
     12 C13         2.0590    1.3120    0.0650 c3        1 X86      0.261100
     13 C14         3.4430    1.8750   -0.0230 ca        1 X86     -0.228600
     14 C15         3.8330    2.9220    0.8390 ca        1 X86      0.409200
     15 C16         5.9210    3.0510   -0.1210 ca        1 X86      0.401200
     16 C17         5.6300    2.0080   -1.0190 ca        1 X86     -0.241300
     17 C18         4.3690    1.4140   -0.9670 ca        1 X86     -0.080000
     18 C19        -2.8880    1.1650    0.0190 c3        1 X86      0.214800
     19 C20        -4.3310    1.6660    0.0090 c3        1 X86     -0.101400
     20 C21        -4.3310    3.1790    0.1500 c3        1 X86      0.131400
     21 C22        -5.8530    4.9840    0.2590 c3        1 X86      0.115700
     22 O23         3.2290   -2.5420   -0.7760 o         1 X86     -0.646100
     23 O24        -2.5080   -4.4320   -0.4470 o         1 X86     -0.239500
     24 O25        -3.7990   -2.7870   -0.5340 o         1 X86     -0.239500
     25 O26        -5.6990    3.5810    0.1360 os        1 X86     -0.418600
     26 HN01        2.9040   -0.5980    0.0230 hn        1 X86      0.464800
     27 H102        1.5680   -4.5610    0.9980 hn        1 X86      0.317500
     28 H202        3.1830   -4.6870    0.4660 hn        1 X86      0.317500
     29 HN04       -3.6510   -0.7650   -0.2340 hn        1 X86      0.475800
     30 H06        -0.2150   -4.0830   -0.4040 ha        1 X86      0.167000
     31 H09        -0.4250    0.8770    0.0970 ha        1 X86      0.145000
     32 H113        1.4860    1.6430   -0.8540 h1        1 X86      0.052200
     33 H213        1.5310    1.7450    0.9670 h1        1 X86      0.052200
     34 H15         3.1390    3.3130    1.6050 h4        1 X86      0.023100
     35 H16         6.9070    3.5490   -0.1300 h4        1 X86      0.026100
     36 H17         6.3830    1.6710   -1.7440 ha        1 X86      0.150000
     37 H18         4.1100    0.5960   -1.6570 ha        1 X86      0.154000
     38 H119       -2.3960    1.4830    0.9860 h1        1 X86      0.044200
     39 H219       -2.3240    1.6550   -0.8280 h1        1 X86      0.044200
     40 H120       -4.8450    1.3820   -0.9460 hc        1 X86      0.070700
     41 H220       -4.9160    1.2150    0.8520 hc        1 X86      0.070700
     42 H121       -3.8550    3.4950    1.1160 h1        1 X86      0.028700
     43 H221       -3.7860    3.6640   -0.7030 h1        1 X86      0.028700
     44 H122       -5.3590    5.5120   -0.5940 h1        1 X86      0.035367
     45 H222       -6.9600    5.1450    0.2320 h1        1 X86      0.035367
     46 H322       -5.4280    5.3450    1.2280 h1        1 X86      0.035367
     47 C12         2.2280   -2.9910   -0.1700 c         1 X86      0.690700
@<TRIPOS>BOND
     1    1    8 1   
     2    1   12 1   
     3    1   26 1   
     4    2   27 1   
     5    2   28 1   
     6    2   47 1   
     7    3   14 ar  
     8    3   15 ar  
     9    4   10 1   
    10    4   18 1   
    11    4   29 1   
    12    5   11 1   
    13    5   23 1   
    14    5   24 1   
    15    6    7 ar  
    16    6   11 ar  
    17    6   30 1   
    18    7    8 ar  
    19    7   47 1   
    20    8    9 ar  
    21    9   10 ar  
    22    9   31 1   
    23   10   11 ar  
    24   12   13 1   
    25   12   32 1   
    26   12   33 1   
    27   13   14 ar  
    28   13   17 ar  
    29   14   34 1   
    30   15   16 ar  
    31   15   35 1   
    32   16   17 ar  
    33   16   36 1   
    34   17   37 1   
    35   18   19 1   
    36   18   38 1   
    37   18   39 1   
    38   19   20 1   
    39   19   40 1   
    40   19   41 1   
    41   20   25 1   
    42   20   42 1   
    43   20   43 1   
    44   21   25 1   
    45   21   44 1   
    46   21   45 1   
    47   21   46 1   
    48   22   47 2   
@<TRIPOS>SUBSTRUCTURE
     1 X86         1 TEMP              0 ****  ****    0 ROOT
