@<TRIPOS>MOLECULE
X86
   47    47     1     0     0
SMALL
bcc


@<TRIPOS>ATOM
      1 N01        -0.4370    0.1150    0.0590 n3        1 X86     -0.248000
      2 N02         2.7720    2.6360    1.4780 n         1 X86     -0.399000
      3 N03        -4.9250   -1.8050    0.7860 n2        1 X86     -0.235000
      4 N04         1.9400   -0.3990   -4.1180 n3        1 X86     -0.279000
      5 N05         4.1470    1.2100   -3.0020 no        1 X86      0.535000
      6 C06         2.9250    1.2210   -0.8800 c1        1 X86     -0.240000
      7 C07         1.7780    1.1320   -0.1650 c2        1 X86     -0.286000
      8 C08         0.6550    0.3630   -0.6840 c2        1 X86      0.286000
      9 C09         0.7420   -0.1120   -2.0410 c2        1 X86     -0.392000
     10 C10         1.8850    0.0020   -2.8190 c2        1 X86      0.163000
     11 C11         3.1550    0.4530   -2.1030 c3        1 X86     -0.047000
     12 C13        -1.6150   -0.5710   -0.4200 c3        1 X86      0.022000
     13 C14        -2.7460   -0.6340    0.5640 c2        1 X86     -0.217000
     14 C15        -3.8320   -1.5440    0.1760 c2        1 X86     -0.006000
     15 C16        -3.4350    0.4970    2.8980 cu        1 X86     -0.103500
     16 C17        -2.2370    1.0280    2.6160 cu        1 X86     -0.103500
     17 C18        -2.7910    0.0820    1.6820 cu        1 X86     -0.075000
     18 C19         0.7880   -0.8680   -4.8300 c3        1 X86     -0.094000
     19 C20         3.4140   -2.0470   -7.7720 c2        1 X86     -0.284000
     20 C21         3.8550   -0.7970   -7.6050 c2        1 X86     -0.032000
     21 C22         3.5990    1.4120   -6.8140 c3        1 X86     -0.082000
     22 O23         0.6920    1.8510    1.8840 o         1 X86     -0.496000
     23 O24         5.3170    1.0840   -2.7850 o         1 X86     -0.367000
     24 O25         3.7320    1.8690   -3.9190 o         1 X86     -0.367000
     25 O26         3.0930    0.0780   -6.8440 os        1 X86     -0.261000
     26 HN01       -0.4720    0.4950    0.9920 hn        1 X86      0.286000
     27 H102        2.7480    3.1530    2.3190 hn        1 X86      0.240000
     28 H202        3.5680    2.6740    0.8860 hn        1 X86      0.240000
     29 HN04        2.7130   -0.1120   -4.6860 hn        1 X86      0.265000
     30 H06         3.7140   -0.4890   -1.7850 h1        1 X86      0.183000
     31 H09        -0.1630   -0.5530   -2.4890 ha        1 X86      0.144000
     32 H113       -1.3230   -1.6260   -0.7060 h1        1 X86      0.098000
     33 H213       -1.9920   -0.0520   -1.3530 h1        1 X86      0.098000
     34 H15        -3.6670   -2.0750   -0.7870 h4        1 X86      0.140000
     35 H16        -5.0750   -1.3290    1.6510 hn        1 X86      0.131000
     36 H17        -4.2960    0.3980    3.5290 ha        1 X86      0.221500
     37 H18        -1.3960    1.6670    2.8350 ha        1 X86      0.221500
     38 H119       -0.0440   -0.1130   -4.8080 h1        1 X86      0.094000
     39 H219        1.0850   -1.0560   -5.8980 h1        1 X86      0.094000
     40 H120        0.4170   -1.8250   -4.3730 h1        1 X86      0.094000
     41 H220        2.4710   -2.4040   -7.3430 ha        1 X86      0.125000
     42 H121        3.9880   -2.7750   -8.3550 ha        1 X86      0.125000
     43 H221        4.7910   -0.3950   -8.0220 h4        1 X86      0.137000
     44 H122        3.6290    1.8410   -7.8440 h1        1 X86      0.092000
     45 H222        2.8690    1.9640   -6.1690 h1        1 X86      0.092000
     46 H322        4.6140    1.4330   -6.3460 h1        1 X86      0.092000
     47 C12         1.6950    1.8780    1.1160 c2        1 X86      0.391000
@<TRIPOS>BOND
     1    1    8 1   
     2    1   12 1   
     3    1   26 1   
     4    2   27 1   
     5    2   28 1   
     6    2   47 1   
     7    3   14 1   
     8    3   35 1   
     9    4   10 1   
    10    4   18 1   
    11    4   29 1   
    12    5   11 1   
    13    5   23 1   
    14    5   24 1   
    15    6    7 1   
    16    6   11 1   
    17    7    8 1   
    18    7   47 1   
    19    8    9 1   
    20    9   10 1   
    21    9   31 1   
    22   10   11 1   
    23   11   30 1   
    24   12   13 1   
    25   12   32 1   
    26   12   33 1   
    27   13   14 1   
    28   13   17 1   
    29   14   34 1   
    30   15   16 1   
    31   15   17 1   
    32   15   36 1   
    33   16   17 1   
    34   16   37 1   
    35   18   38 1   
    36   18   39 1   
    37   18   40 1   
    38   19   20 1   
    39   19   41 1   
    40   19   42 1   
    41   20   25 1   
    42   20   43 1   
    43   21   25 1   
    44   21   44 1   
    45   21   45 1   
    46   21   46 1   
    47   22   47 1   
@<TRIPOS>SUBSTRUCTURE
     1 X86         1 TEMP              0 ****  ****    0 ROOT
