@<TRIPOS>MOLECULE
X87
   45    46     1     0     0
SMALL
bcc


@<TRIPOS>ATOM
      1 N01         1.7560   -0.3210    0.1700 nh        1 X87     -0.752600
      2 N02         1.1060   -4.3050    0.8390 n         1 X87     -0.667000
      3 N03         5.4320    2.4210   -1.0970 nb        1 X87     -0.661000
      4 N04        -2.9900    0.6210   -0.0540 nh        1 X87     -0.760600
      5 N05        -4.8440    5.2000   -0.1400 n3        1 X87     -0.916800
      6 N06        -3.5590   -2.3130   -0.1830 no        1 X87      0.335200
      7 C07        -1.1310   -2.6070   -0.0480 ca        1 X87      0.041000
      8 C08         0.1790   -2.1790    0.0380 ca        1 X87     -0.277600
      9 C09         0.4610   -0.7690    0.0570 ca        1 X87      0.317600
     10 C10        -0.6260    0.1250    0.0180 ca        1 X87     -0.345000
     11 C11        -1.9790   -0.2980   -0.0490 ca        1 X87      0.337600
     12 C12        -2.2210   -1.7160   -0.0930 ca        1 X87     -0.338200
     13 C14         2.0860    1.0750    0.0220 c3        1 X87      0.260100
     14 C15         3.5600    1.3310   -0.0010 ca        1 X87     -0.228600
     15 C16         4.1240    2.1140   -1.0300 ca        1 X87      0.410200
     16 C17         6.2330    1.9400   -0.1260 ca        1 X87      0.403200
     17 C18         5.7680    1.1470    0.9400 ca        1 X87     -0.244300
     18 C19         4.4080    0.8420    0.9990 ca        1 X87     -0.075000
     19 C20        -2.7530    2.0410   -0.0360 c3        1 X87      0.212800
     20 C21        -4.0450    2.8560   -0.0800 c3        1 X87     -0.100400
     21 C22        -3.6920    4.3420   -0.0150 c3        1 X87      0.164800
     22 O23         2.3590   -3.0220   -0.5410 o         1 X87     -0.640100
     23 O24        -3.6590   -3.5140   -0.1170 o         1 X87     -0.240000
     24 O25        -4.5440   -1.6280   -0.3200 o         1 X87     -0.240000
     25 HN01        2.4900   -0.9750   -0.0200 hn        1 X87      0.467800
     26 HN02        0.2710   -4.4640    1.3400 hn        1 X87      0.316500
     27 HN0A        1.8130   -4.9970    0.8500 hn        1 X87      0.316500
     28 HN04       -3.9360    0.3230   -0.1630 hn        1 X87      0.473800
     29 HN05       -5.5530    4.9580    0.5230 hn        1 X87      0.353800
     30 HN0B       -4.5820    6.1570   -0.0150 hn        1 X87      0.353800
     31 H07        -1.3480   -3.6930   -0.1010 ha        1 X87      0.167000
     32 H10        -0.4190    1.2060    0.0410 ha        1 X87      0.145000
     33 H14         1.6190    1.4890   -0.9220 h1        1 X87      0.051700
     34 H14A        1.6390    1.6390    0.8960 h1        1 X87      0.051700
     35 H16         3.4950    2.5160   -1.8460 h4        1 X87      0.025100
     36 H17         7.3030    2.2050   -0.2110 h4        1 X87      0.026100
     37 H18         6.4650    0.7780    1.7040 ha        1 X87      0.148000
     38 H19         4.0090    0.2270    1.8190 ha        1 X87      0.148000
     39 H20        -2.1820    2.3070    0.9020 h1        1 X87      0.044700
     40 H20A       -2.1110    2.3290   -0.9200 h1        1 X87      0.044700
     41 H21        -4.6090    2.6380   -1.0250 hc        1 X87      0.062700
     42 H21A       -4.7080    2.5810    0.7820 hc        1 X87      0.062700
     43 H22        -2.9960    4.5890   -0.8680 h1        1 X87      0.026200
     44 H22A       -3.1160    4.5220    0.9430 h1        1 X87      0.026200
     45 C13         1.2810   -3.1760    0.0780 c         1 X87      0.689700
@<TRIPOS>BOND
     1    1    9 1   
     2    1   13 1   
     3    1   25 1   
     4    2   26 1   
     5    2   27 1   
     6    2   45 1   
     7    3   15 ar  
     8    3   16 ar  
     9    4   11 1   
    10    4   19 1   
    11    4   28 1   
    12    5   21 1   
    13    5   29 1   
    14    5   30 1   
    15    6   12 1   
    16    6   23 1   
    17    6   24 1   
    18    7    8 ar  
    19    7   12 ar  
    20    7   31 1   
    21    8    9 ar  
    22    8   45 1   
    23    9   10 ar  
    24   10   11 ar  
    25   10   32 1   
    26   11   12 ar  
    27   13   14 1   
    28   13   33 1   
    29   13   34 1   
    30   14   15 ar  
    31   14   18 ar  
    32   15   35 1   
    33   16   17 ar  
    34   16   36 1   
    35   17   18 ar  
    36   17   37 1   
    37   18   38 1   
    38   19   20 1   
    39   19   39 1   
    40   19   40 1   
    41   20   21 1   
    42   20   41 1   
    43   20   42 1   
    44   21   43 1   
    45   21   44 1   
    46   22   45 2   
@<TRIPOS>SUBSTRUCTURE
     1 X87         1 TEMP              0 ****  ****    0 ROOT
