@<TRIPOS>MOLECULE
X87
   45    44     1     0     0
SMALL
bcc


@<TRIPOS>ATOM
      1 N01        -0.4590    0.2780   -0.4530 n3        1 X87     -0.257000
      2 N02         2.9470   -1.5280    1.4670 n         1 X87     -0.399000
      3 N03        -3.6190    0.2120    3.4910 n3        1 X87     -0.172000
      4 N04         2.0640    0.4990   -4.5690 n3        1 X87     -0.292000
      5 N05         5.7390   -1.1570   -6.0160 n3        1 X87     -0.334000
      6 N06         4.3070   -0.7730   -3.1750 no        1 X87      0.532000
      7 C07         3.0730   -0.4700   -1.0820 c1        1 X87     -0.239000
      8 C08         1.8940   -0.3960   -0.4210 c2        1 X87     -0.279000
      9 C09         0.7070    0.0990   -1.1020 c2        1 X87      0.291000
     10 C10         0.8030    0.3700   -2.5140 c2        1 X87     -0.390000
     11 C11         1.9880    0.2870   -3.2290 c2        1 X87      0.165000
     12 C12         3.2680    0.0750   -2.4230 c3        1 X87     -0.042000
     13 C14        -1.6840    0.7180   -1.0880 c3        1 X87      0.082000
     14 C15        -2.7750    0.8360   -0.1550 c1        1 X87     -0.211000
     15 C16        -3.6970   -0.0740    4.7720 c1        1 X87     -0.131000
     16 C17        -4.7370    0.7290    2.8100 c2        1 X87      0.012000
     17 C18        -4.7660    1.0580    1.4980 c2        1 X87     -0.149000
     18 C19        -3.6860    0.9340    0.6180 c1        1 X87     -0.060000
     19 C20         0.9120    0.7520   -5.3810 c3        1 X87     -0.089000
     20 C21         4.2850    0.5910   -6.8980 c2        1 X87     -0.405000
     21 C22         4.6420   -0.6980   -6.7180 c2        1 X87     -0.013000
     22 O23         0.8580   -0.7070    1.7500 o         1 X87     -0.473000
     23 O24         3.9570   -1.7580   -3.7650 o         1 X87     -0.369500
     24 O25         5.4440   -0.3920   -3.1920 o         1 X87     -0.369500
     25 HN01       -0.5030    0.0570    0.5300 hn        1 X87      0.295000
     26 HN02        3.7530   -1.6200    0.8960 hn        1 X87      0.239000
     27 HN0A        2.9690   -1.8150    2.4130 hn        1 X87      0.239000
     28 HN04        2.9270    0.3450   -5.0560 hn        1 X87      0.263000
     29 HN05        6.2070   -0.4860   -5.4450 hn        1 X87      0.199500
     30 HN0B        5.6050   -2.0310   -5.5530 hn        1 X87      0.199500
     31 H07         3.7590    1.0950   -2.2840 h1        1 X87      0.185000
     32 H10        -0.1240    0.6230   -3.0540 ha        1 X87      0.142000
     33 H14        -1.9720   -0.0190   -1.9000 h1        1 X87      0.112500
     34 H14A       -1.5060    1.7240   -1.5800 h1        1 X87      0.112500
     35 H16        -2.7610   -0.4760    5.2170 ha        1 X87      0.052000
     36 H17        -2.7990    0.0930    2.9200 hn        1 X87      0.181000
     37 H18        -5.6310    0.8520    3.4560 h4        1 X87      0.184000
     38 H19        -5.7000    1.4560    1.0640 ha        1 X87      0.164000
     39 H20         0.1780   -0.0960   -5.3160 h1        1 X87      0.092667
     40 H20A        0.4000    1.6960   -5.0480 h1        1 X87      0.092667
     41 H21         1.2420    0.8720   -6.4470 h1        1 X87      0.092667
     42 H21A        3.4660    0.8560   -7.5740 ha        1 X87      0.115500
     43 H22         4.8270    1.4350   -6.4590 ha        1 X87      0.115500
     44 H22A        4.0610   -1.5080   -7.2070 h4        1 X87      0.132000
     45 C13         1.8490   -0.8720    0.9870 c2        1 X87      0.384000
@<TRIPOS>BOND
     1    1    9 1   
     2    1   13 1   
     3    1   25 1   
     4    2   26 1   
     5    2   27 1   
     6    2   45 1   
     7    3   15 1   
     8    3   16 1   
     9    3   36 1   
    10    4   11 1   
    11    4   19 1   
    12    4   28 1   
    13    5   21 1   
    14    5   29 1   
    15    5   30 1   
    16    6   12 1   
    17    6   23 1   
    18    6   24 1   
    19    7    8 1   
    20    7   12 1   
    21    8    9 1   
    22    8   45 1   
    23    9   10 1   
    24   10   11 1   
    25   10   32 1   
    26   11   12 1   
    27   12   31 1   
    28   13   14 1   
    29   13   33 1   
    30   13   34 1   
    31   14   18 1   
    32   15   35 1   
    33   16   17 1   
    34   16   37 1   
    35   17   18 1   
    36   17   38 1   
    37   19   39 1   
    38   19   40 1   
    39   19   41 1   
    40   20   21 1   
    41   20   42 1   
    42   20   43 1   
    43   21   44 1   
    44   22   45 1   
@<TRIPOS>SUBSTRUCTURE
     1 X87         1 TEMP              0 ****  ****    0 ROOT
