@<TRIPOS>MOLECULE
X87
   47    45     1     0     0
SMALL
bcc


@<TRIPOS>ATOM
      1 N01        -0.0010    0.0150   -2.1920 nh        1 X87     -0.728000
      2 N02         0.3180    0.8220    1.6960 n4        1 X87     -0.746400
      3 N03         1.5030    3.4360    2.2460 n1        1 X87     -0.536800
      4 N04         1.8350   -0.9990   -4.8210 n2        1 X87     -0.605900
      5 N05         1.5770   -0.0850   -9.0580 n4        1 X87     -0.840600
      6 N06         3.9750   -0.2880    2.0260 no        1 X87      0.280100
      7 C07         2.8330    0.7100    0.1490 c1        1 X87      0.021200
      8 C08         1.6500    0.6910   -0.4220 ce        1 X87     -0.105300
      9 C09         1.3310    0.0270   -1.7040 ce        1 X87      0.093000
     10 C10         2.3440   -0.5430   -2.4050 cf        1 X87     -0.207600
     11 C11         2.1700   -1.3290   -3.6330 cf        1 X87      0.497500
     12 C12         3.9120    0.6820    0.8810 c2        1 X87     -0.158200
     13 C14        -0.7770   -1.1800   -1.9100 c3        1 X87      0.248900
     14 C15        -1.1130   -1.4330   -0.5270 c1        1 X87     -0.217100
     15 C16         1.7620    4.4950    2.6450 c1        1 X87      0.322300
     16 C17        -3.0210   -2.0120    2.3930 c2        1 X87     -0.108000
     17 C18        -1.7750   -2.0790    1.9070 ce        1 X87     -0.125700
     18 C19        -1.4250   -1.7180    0.5960 cg        1 X87     -0.134300
     19 C20         1.4920    0.3360   -5.2250 c3        1 X87      0.110800
     20 C21         1.9070    0.6300   -6.6730 c3        1 X87     -0.100400
     21 C22         1.2470   -0.3570   -7.6250 c3        1 X87      0.104800
     22 O23        -0.2140    2.2390   -0.0820 o         1 X87     -0.382100
     23 O24         2.9290   -0.5240    2.5870 o         1 X87     -0.170500
     24 O25         5.0220   -0.7430    2.3500 o         1 X87     -0.170500
     25 HN01       -0.4970    0.8560   -1.9610 hn        1 X87      0.398800
     26 HN02       -0.1400   -0.1020    1.6370 hn        1 X87      0.486467
     27 HN0A       -0.2810    1.4610    2.2350 hn        1 X87      0.486467
     28 HN04        2.3990   -2.4140   -3.4860 h4        1 X87      0.048800
     29 HN05        2.5900   -0.1500   -9.2050 hn        1 X87      0.463800
     30 HN0B        1.1090   -0.7720   -9.6600 hn        1 X87      0.463800
     31 H07         4.8160    1.3140    0.7810 h4        1 X87      0.240000
     32 H10         3.3840   -0.4990   -2.0330 ha        1 X87      0.163000
     33 H14        -1.7380   -1.0870   -2.5040 h1        1 X87      0.097700
     34 H14A       -0.2040   -2.0710   -2.3100 h1        1 X87      0.097700
     35 H16         1.9990    5.4760    3.0170 ha        1 X87      0.217500
     36 H17        -3.8760   -1.6410    1.8090 ha        1 X87      0.143000
     37 H18        -3.2570   -2.3420    3.4160 ha        1 X87      0.143000
     38 H19        -0.9490   -2.5020    2.5140 ha        1 X87      0.152000
     39 H20         0.3710    0.4480   -5.1350 h1        1 X87      0.071700
     40 H20A        1.9600    1.1340   -4.5770 h1        1 X87      0.071700
     41 H21         1.5860   -1.4110   -7.3970 hx        1 X87      0.123200
     42 H21A        3.0240    0.5760   -6.7650 hc        1 X87      0.073200
     43 H22         1.5870    1.6800   -6.9070 hc        1 X87      0.073200
     44 H22A        0.1240   -0.3090   -7.5180 hx        1 X87      0.123200
     45 H023        1.2230    0.7110    2.1850 hn        1 X87      0.486467
     46 H053        1.2690    0.8560   -9.3240 hn        1 X87      0.463800
     47 C13         0.5380    1.3630    0.3090 c         1 X87      0.571300
@<TRIPOS>BOND
     1    1    9 1   
     2    1   13 1   
     3    1   25 1   
     4    2   26 1   
     5    2   27 1   
     6    2   45 1   
     7    2   47 1   
     8    3   15 3   
     9    4   11 2   
    10    4   19 1   
    11    5   21 1   
    12    5   29 1   
    13    5   30 1   
    14    5   46 1   
    15    6   12 1   
    16    6   23 1   
    17    6   24 1   
    18    7    8 2   
    19    7   12 2   
    20    8    9 1   
    21    8   47 1   
    22    9   10 2   
    23   10   11 1   
    24   10   32 1   
    25   11   28 1   
    26   12   31 1   
    27   13   14 1   
    28   13   33 1   
    29   13   34 1   
    30   14   18 3   
    31   15   35 1   
    32   16   17 2   
    33   16   36 1   
    34   16   37 1   
    35   17   18 1   
    36   17   38 1   
    37   19   20 1   
    38   19   39 1   
    39   19   40 1   
    40   20   21 1   
    41   20   42 1   
    42   20   43 1   
    43   21   41 1   
    44   21   44 1   
    45   22   47 2   
@<TRIPOS>SUBSTRUCTURE
     1 X87         1 TEMP              0 ****  ****    0 ROOT
