@<TRIPOS>MOLECULE
X87
   47    46     1     0     0
SMALL
bcc


@<TRIPOS>ATOM
      1 N01        -0.0600   -0.5310   -0.2440 n7        1 X87     -0.143000
      2 N02         3.2590    0.6970    2.4490 nz        1 X87     -0.131000
      3 N03         0.3490    2.2290   -1.4470 n1        1 X87     -0.183000
      4 N04         3.4060   -0.5930   -3.6480 n7        1 X87     -0.059000
      5 N05         1.3360    1.3810   -7.4150 nz        1 X87      0.105000
      6 N06         5.5060   -0.4540   -1.5220 no        1 X87      0.543000
      7 C07         3.5940   -0.3430   -0.0070 c1        1 X87     -0.213000
      8 C08         2.2900   -0.1730    0.3230 c2        1 X87     -0.304000
      9 C09         1.2140   -0.5090   -0.5910 c2        1 X87      0.237000
     10 C10         1.6060   -0.8860   -2.0040 c3        1 X87     -0.176000
     11 C11         3.0600   -0.7520   -2.3900 c2        1 X87      0.083000
     12 C12         4.0570   -0.9370   -1.2540 c3        1 X87     -0.089000
     13 C14        -1.1640   -0.8840   -1.1480 c3        1 X87      0.088000
     14 C15        -2.3980   -1.0550   -0.4470 c1        1 X87     -0.329000
     15 C16         0.0170    3.3340   -1.5760 c1        1 X87     -0.087000
     16 C17        -5.7050   -0.5800    0.7290 c2        1 X87     -0.100000
     17 C18        -4.6910   -1.4540    0.7180 c2        1 X87     -0.141000
     18 C19        -3.4610   -1.2220    0.0860 c1        1 X87      0.072000
     19 C20         2.5040   -0.4120   -4.7690 c3        1 X87     -0.154000
     20 C21         2.0620    1.0750   -5.0290 c3        1 X87      0.002000
     21 C22         1.0580    1.0790   -6.0550 c2        1 X87     -0.730000
     22 O23         0.9480    0.5920    2.2000 o         1 X87     -0.238000
     23 O24         6.3550   -0.8820   -0.8120 o         1 X87     -0.305500
     24 O25         5.6950    0.3120   -2.4260 o         1 X87     -0.305500
     25 HN01       -0.3340   -0.2540    0.6910 hn        1 X87      0.299000
     26 HN02        3.2840    1.6990    2.6590 hn        1 X87      0.281000
     27 HN0A        3.2510    0.1770    3.3320 hn        1 X87      0.281000
     28 HN04        4.3880   -0.4590   -3.8790 hn        1 X87      0.299000
     29 HN05        1.5520    0.5370   -7.9580 hn        1 X87      0.207333
     30 HN0B        2.1330    2.0180   -7.4930 hn        1 X87      0.207333
     31 H07         4.1650   -2.0630   -1.0740 h1        1 X87      0.215000
     32 H10         0.9760   -0.2430   -2.6990 hc        1 X87      0.180500
     33 H14        -1.2610   -0.0540   -1.9160 h1        1 X87      0.134000
     34 H14A       -0.8890   -1.8450   -1.6830 h1        1 X87      0.134000
     35 H16        -0.2930    4.3570   -1.6960 ha        1 X87      0.271000
     36 H17        -5.6590    0.4050    0.2430 ha        1 X87      0.140500
     37 H18        -6.6550   -0.8130    1.2340 ha        1 X87      0.140500
     38 H19        -4.7780   -2.4410    1.2140 ha        1 X87      0.168000
     39 H20         1.3110   -1.9660   -2.1870 hc        1 X87      0.180500
     40 H20A        3.0460   -0.7830   -5.6850 h1        1 X87      0.131500
     41 H21         1.5810   -1.0370   -4.6230 h1        1 X87      0.131500
     42 H21A        1.6360    1.4660   -4.0650 hc        1 X87      0.079500
     43 H22         2.9820    1.6670   -5.2760 hc        1 X87      0.079500
     44 H22A        0.0120    0.8620   -5.8350 hx        1 X87      0.163000
     45 H023        4.0970    0.4290    1.8820 hn        1 X87      0.281000
     46 H053        0.5150    1.8250   -7.8350 hn        1 X87      0.207333
     47 C13         2.0230    0.3710    1.6500 c2        1 X87      0.344000
@<TRIPOS>BOND
     1    1    9 1   
     2    1   13 1   
     3    1   25 1   
     4    2   26 1   
     5    2   27 1   
     6    2   45 1   
     7    2   47 1   
     8    3   15 1   
     9    4   11 1   
    10    4   19 1   
    11    4   28 1   
    12    5   21 1   
    13    5   29 1   
    14    5   30 1   
    15    5   46 1   
    16    6   12 1   
    17    6   23 1   
    18    6   24 1   
    19    7    8 1   
    20    7   12 1   
    21    8    9 1   
    22    8   47 1   
    23    9   10 1   
    24   10   11 1   
    25   10   32 1   
    26   10   39 1   
    27   11   12 1   
    28   12   31 1   
    29   13   14 1   
    30   13   33 1   
    31   13   34 1   
    32   14   18 1   
    33   15   35 1   
    34   16   17 1   
    35   16   36 1   
    36   16   37 1   
    37   17   18 1   
    38   17   38 1   
    39   19   20 1   
    40   19   40 1   
    41   19   41 1   
    42   20   21 1   
    43   20   42 1   
    44   20   43 1   
    45   21   44 1   
    46   22   47 1   
@<TRIPOS>SUBSTRUCTURE
     1 X87         1 TEMP              0 ****  ****    0 ROOT
