@<TRIPOS>MOLECULE
X88
   31    32     1     0     0
SMALL
bcc


@<TRIPOS>ATOM
      1 C1          0.0410    0.0220    0.0130 ca        1 X88     -0.246000
      2 C2          1.4190    0.0660   -0.0100 ca        1 X88      0.005000
      3 C3          2.1400    0.1160    1.1990 ca        1 X88     -0.265200
      4 C4          1.4590    0.1140    2.4240 ca        1 X88      0.012000
      5 C5          0.0700    0.0590    2.4600 ca        1 X88     -0.246600
      6 C6         -0.6860    0.0310    1.2430 ca        1 X88      0.293600
      7 N7         -2.0510   -0.0040    1.2620 nh        1 X88     -0.747600
      8 C8         -0.6240    0.0600    3.7790 c         1 X88      0.682700
      9 N9         -0.0980   -0.7090    4.7850 n         1 X88     -0.664000
     10 O10        -1.6630    0.7250    3.9930 o         1 X88     -0.630100
     11 N11         3.6150    0.1710    1.1750 no        1 X88      0.326200
     12 O12         4.1840    0.1980    0.1150 o         1 X88     -0.220500
     13 O13         4.2160    0.1830    2.2190 o         1 X88     -0.220500
     14 C14        -2.8340   -0.0270    0.0560 c3        1 X88      0.177500
     15 C15        -7.0180   -0.0220    0.5500 ca        1 X88      0.290900
     16 N16        -6.4900    0.8490   -0.3300 nb        1 X88     -0.622000
     17 C17        -5.1470    0.8390   -0.4530 ca        1 X88      0.296900
     18 C18        -4.3250   -0.0480    0.2970 ca        1 X88      0.265300
     19 N19        -4.8630   -0.9250    1.1830 nb        1 X88     -0.619000
     20 C20        -6.2020   -0.9060    1.3060 ca        1 X88      0.288900
     21 H1         -0.5000   -0.0150   -0.9450 ha        1 X88      0.147000
     22 H2          1.9600    0.0640   -0.9730 ha        1 X88      0.170000
     23 H4          2.0410    0.1720    3.3620 ha        1 X88      0.168000
     24 HN7        -2.5270    0.0800    2.1380 hn        1 X88      0.482800
     25 HN9        -0.5320   -0.7090    5.6740 hn        1 X88      0.318500
     26 HN9A        0.7100   -1.2590    4.6440 hn        1 X88      0.318500
     27 H14        -2.5650   -0.9470   -0.5470 h1        1 X88      0.059700
     28 H14A       -2.5880    0.8820   -0.5710 h1        1 X88      0.059700
     29 H17        -4.7140    1.5580   -1.1700 h4        1 X88      0.038100
     30 H20        -6.6390   -1.6160    2.0300 h4        1 X88      0.041100
     31 H15        -8.1160   -0.0170    0.6600 h4        1 X88      0.041100
@<TRIPOS>BOND
     1    1    2 ar  
     2    1    6 ar  
     3    1   21 1   
     4    2    3 ar  
     5    2   22 1   
     6    3    4 ar  
     7    3   11 1   
     8    4    5 ar  
     9    4   23 1   
    10    5    6 ar  
    11    5    8 1   
    12    6    7 1   
    13    7   14 1   
    14    7   24 1   
    15    8    9 1   
    16    8   10 2   
    17    9   25 1   
    18    9   26 1   
    19   11   12 1   
    20   11   13 1   
    21   14   18 1   
    22   14   27 1   
    23   14   28 1   
    24   15   16 ar  
    25   15   20 ar  
    26   15   31 1   
    27   16   17 ar  
    28   17   18 ar  
    29   17   29 1   
    30   18   19 ar  
    31   19   20 ar  
    32   20   30 1   
@<TRIPOS>SUBSTRUCTURE
     1 X88         1 TEMP              0 ****  ****    0 ROOT
