@<TRIPOS>MOLECULE
X88
   31    32     1     0     0
SMALL
bcc


@<TRIPOS>ATOM
      1 C1         -1.0460   -1.5030    0.0070 ca        1 X88     -0.246000
      2 C2         -2.4120   -1.6830    0.0400 ca        1 X88      0.005000
      3 C3         -3.2680   -0.5660    0.1070 ca        1 X88     -0.265200
      4 C4         -2.7310    0.7290    0.1320 ca        1 X88      0.012000
      5 C5         -1.3550    0.9240    0.0870 ca        1 X88     -0.246600
      6 C6         -0.4640   -0.1980    0.0430 ca        1 X88      0.293600
      7 N7          0.8900   -0.0230    0.0180 nh        1 X88     -0.747600
      8 C8         -0.8170    2.3130    0.1170 c         1 X88      0.682700
      9 N9         -1.4500    3.2660   -0.6380 n         1 X88     -0.664000
     10 O10         0.1880    2.6320    0.7930 o         1 X88     -0.630100
     11 N11        -4.7310   -0.7590    0.1510 no        1 X88      0.326200
     12 O12        -5.1740   -1.8770    0.1540 o         1 X88     -0.220500
     13 O13        -5.4470    0.2080    0.1770 o         1 X88     -0.220500
     14 C14         1.8050   -1.1310   -0.0210 c3        1 X88      0.177500
     15 C15         5.9050   -0.1620    0.0230 ca        1 X88      0.290900
     16 N16         5.4760   -1.1130    0.8740 nb        1 X88     -0.622000
     17 C17         4.1570   -1.3890    0.8520 ca        1 X88      0.296900
     18 C18         3.2590   -0.7210   -0.0270 ca        1 X88      0.265300
     19 N19         3.6960    0.2370   -0.8840 nb        1 X88     -0.619000
     20 C20         5.0120    0.5130   -0.8540 ca        1 X88      0.288900
     21 H1         -0.3990   -2.3920   -0.0430 ha        1 X88      0.147000
     22 H2         -2.8400   -2.7020    0.0170 ha        1 X88      0.170000
     23 H4         -3.4170    1.5930    0.2020 ha        1 X88      0.168000
     24 HN7         1.2620    0.9000    0.1210 hn        1 X88      0.482800
     25 HN9        -2.2340    3.0450   -1.1960 hn        1 X88      0.318500
     26 HN9A       -1.1200    4.1990   -0.6190 hn        1 X88      0.318500
     27 H14         1.6280   -1.7980    0.8750 h1        1 X88      0.059700
     28 H14A        1.6120   -1.7440   -0.9530 h1        1 X88      0.059700
     29 H17         3.8050   -2.1630    1.5550 h4        1 X88      0.038100
     30 H20         5.3680    1.2940   -1.5470 h4        1 X88      0.041100
     31 H15         6.9830    0.0730    0.0370 h4        1 X88      0.041100
@<TRIPOS>BOND
     1    1    2 ar  
     2    1    6 ar  
     3    1   21 1   
     4    2    3 ar  
     5    2   22 1   
     6    3    4 ar  
     7    3   11 1   
     8    4    5 ar  
     9    4   23 1   
    10    5    6 ar  
    11    5    8 1   
    12    6    7 1   
    13    7   14 1   
    14    7   24 1   
    15    8    9 1   
    16    8   10 2   
    17    9   25 1   
    18    9   26 1   
    19   11   12 1   
    20   11   13 1   
    21   14   18 1   
    22   14   27 1   
    23   14   28 1   
    24   15   16 ar  
    25   15   20 ar  
    26   15   31 1   
    27   16   17 ar  
    28   17   18 ar  
    29   17   29 1   
    30   18   19 ar  
    31   19   20 ar  
    32   20   30 1   
@<TRIPOS>SUBSTRUCTURE
     1 X88         1 TEMP              0 ****  ****    0 ROOT
