@<TRIPOS>MOLECULE
X88
   32    33     1     0     0
SMALL
bcc


@<TRIPOS>ATOM
      1 C1         -0.0040    0.1600    0.0290 ca        1 X88     -0.220000
      2 C2          1.3610    0.1390   -0.0040 ca        1 X88      0.030000
      3 C3          2.0930    0.0400    1.2140 ca        1 X88     -0.227200
      4 C4          1.4290   -0.0380    2.4210 ca        1 X88      0.003000
      5 C5          0.0150   -0.0300    2.4870 ca        1 X88     -0.322600
      6 C6         -0.7480    0.0850    1.2650 ca        1 X88      0.327600
      7 N7         -2.0980    0.1290    1.2520 nu        1 X88     -0.696600
      8 C8         -0.6580   -0.1200    3.7560 c         1 X88      0.584700
      9 N9          0.1820   -0.5020    4.9720 nz        1 X88     -0.759400
     10 O10        -1.8370    0.0490    4.0620 o         1 X88     -0.474100
     11 N11         3.5810    0.0240    1.1830 no        1 X88      0.325200
     12 O12         4.1360    0.1130    0.1270 o         1 X88     -0.183500
     13 O13         4.1630   -0.0820    2.2300 o         1 X88     -0.183500
     14 C14        -2.8720    0.1680    0.0280 c3        1 X88      0.160500
     15 C15        -7.0520   -0.1210    0.4260 ca        1 X88      0.313900
     16 N16        -6.5660    0.7690   -0.4570 nb        1 X88     -0.607000
     17 C17        -5.2210    0.8610   -0.5460 ca        1 X88      0.313900
     18 C18        -4.3610    0.0570    0.2470 ca        1 X88      0.234300
     19 N19        -4.8540   -0.8390    1.1440 nb        1 X88     -0.640000
     20 C20        -6.1920   -0.9230    1.2310 ca        1 X88      0.294900
     21 H1         -0.5530    0.2450   -0.9250 ha        1 X88      0.175000
     22 H2          1.9110    0.2010   -0.9640 ha        1 X88      0.199000
     23 H4          2.0450   -0.0910    3.3370 ha        1 X88      0.150000
     24 HN7        -2.6140    0.0590    2.1080 hn        1 X88      0.481800
     25 HN9         0.8410    0.2480    5.1950 hn        1 X88      0.467800
     26 HN9A       -0.4410   -0.6490    5.7770 hn        1 X88      0.467800
     27 H14        -2.5540   -0.6870   -0.6420 h1        1 X88      0.081200
     28 H14A       -2.6560    1.1420   -0.5040 h1        1 X88      0.081200
     29 H20        -6.5980   -1.6500    1.9560 h4        1 X88      0.050100
     30 H15        -8.1510   -0.2020    0.5020 h4        1 X88      0.056100
     31 H93         0.7050   -1.3620    4.7840 hn        1 X88      0.467800
     32 H17        -4.8290    1.5940   -1.2730 h4        1 X88      0.045100
@<TRIPOS>BOND
     1    1    2 ar  
     2    1    6 ar  
     3    1   21 1   
     4    2    3 ar  
     5    2   22 1   
     6    3    4 ar  
     7    3   11 1   
     8    4    5 ar  
     9    4   23 1   
    10    5    6 ar  
    11    5    8 1   
    12    6    7 1   
    13    7   14 1   
    14    7   24 1   
    15    8    9 1   
    16    8   10 2   
    17    9   25 1   
    18    9   26 1   
    19    9   31 1   
    20   11   12 1   
    21   11   13 1   
    22   14   18 1   
    23   14   27 1   
    24   14   28 1   
    25   15   16 ar  
    26   15   20 ar  
    27   15   30 1   
    28   16   17 ar  
    29   17   18 ar  
    30   17   32 1   
    31   18   19 ar  
    32   19   20 ar  
    33   20   29 1   
@<TRIPOS>SUBSTRUCTURE
     1 X88         1 TEMP              0 ****  ****    0 ROOT
