@<TRIPOS>MOLECULE
X88
   32    33     1     0     0
SMALL
bcc


@<TRIPOS>ATOM
      1 C1         -0.0040    0.1710    0.0300 ca        1 X88     -0.220000
      2 C2          1.3610    0.1390   -0.0050 ca        1 X88      0.030000
      3 C3          2.0930    0.0150    1.2100 ca        1 X88     -0.227200
      4 C4          1.4300   -0.0750    2.4170 ca        1 X88      0.003000
      5 C5          0.0170   -0.0570    2.4850 ca        1 X88     -0.322600
      6 C6         -0.7470    0.0820    1.2660 ca        1 X88      0.327600
      7 N7         -2.0960    0.1380    1.2560 nh        1 X88     -0.696600
      8 C8         -0.6560   -0.1600    3.7530 c         1 X88      0.584700
      9 N9          0.1820   -0.5680    4.9620 n4        1 X88     -0.759400
     10 O10        -1.8330    0.0140    4.0640 o         1 X88     -0.474100
     11 N11         3.5810   -0.0120    1.1770 no        1 X88      0.325200
     12 O12         4.1350    0.0880    0.1220 o         1 X88     -0.183500
     13 O13         4.1630   -0.1380    2.2220 o         1 X88     -0.183500
     14 C14        -2.8720    0.2010    0.0340 c3        1 X88      0.160500
     15 C15        -7.0540   -0.0640    0.4320 ca        1 X88      0.313900
     16 N16        -6.5620    0.8350   -0.4380 nb        1 X88     -0.607000
     17 C17        -5.2170    0.9190   -0.5280 ca        1 X88      0.313900
     18 C18        -4.3610    0.0970    0.2520 ca        1 X88      0.234300
     19 N19        -4.8610   -0.8080    1.1360 nb        1 X88     -0.640000
     20 C20        -6.1980   -0.8840    1.2240 ca        1 X88      0.294900
     21 H1         -0.5540    0.2740   -0.9220 ha        1 X88      0.175000
     22 H2          1.9100    0.2100   -0.9650 ha        1 X88      0.199000
     23 H4          2.0470   -0.1470    3.3320 ha        1 X88      0.150000
     24 HN7        -2.6120    0.0590    2.1110 hn        1 X88      0.481800
     25 HN9         0.6970   -1.4290    4.7600 hn        1 X88      0.467800
     26 HN9A       -0.4410   -0.7230    5.7660 hn        1 X88      0.467800
     27 H14        -2.5620   -0.6460   -0.6500 h1        1 X88      0.081200
     28 H14A       -2.6500    1.1810   -0.4850 h1        1 X88      0.081200
     29 H20        -6.6080   -1.6190    1.9390 h4        1 X88      0.050100
     30 H15        -8.1530   -0.1390    0.5080 h4        1 X88      0.056100
     31 H93         0.8480    0.1730    5.1960 hn        1 X88      0.467800
     32 H17        -4.8200    1.6600   -1.2440 h4        1 X88      0.045100
@<TRIPOS>BOND
     1    1    2 ar  
     2    1    6 ar  
     3    1   21 1   
     4    2    3 ar  
     5    2   22 1   
     6    3    4 ar  
     7    3   11 1   
     8    4    5 ar  
     9    4   23 1   
    10    5    6 ar  
    11    5    8 1   
    12    6    7 1   
    13    7   14 1   
    14    7   24 1   
    15    8    9 1   
    16    8   10 2   
    17    9   25 1   
    18    9   26 1   
    19    9   31 1   
    20   11   12 1   
    21   11   13 1   
    22   14   18 1   
    23   14   27 1   
    24   14   28 1   
    25   15   16 ar  
    26   15   20 ar  
    27   15   30 1   
    28   16   17 ar  
    29   17   18 ar  
    30   17   32 1   
    31   18   19 ar  
    32   19   20 ar  
    33   20   29 1   
@<TRIPOS>SUBSTRUCTURE
     1 X88         1 TEMP              0 ****  ****    0 ROOT
