@<TRIPOS>MOLECULE
X89
   39    41     1     0     0
SMALL
bcc


@<TRIPOS>ATOM
      1 O          -0.0430    0.2250   -0.4750 os        1 X89     -0.426600
      2 C1          1.9560    1.4580   -0.7950 c3        1 X89      0.048300
      3 N1          1.8620    1.7410   -2.1910 na        1 X89     -0.212900
      4 C2          0.6850    1.9330   -2.9340 cc        1 X89      0.400400
      5 N3          0.9580    2.1870   -4.2300 nd        1 X89     -0.670000
      6 C4          2.3500    2.1560   -4.3390 cd        1 X89      0.292200
      7 C5          2.9280    1.8760   -3.0890 cc        1 X89     -0.259600
      8 Cl2A        4.0830   -1.3180    0.0280 cl        1 X89     -0.081400
      9 Cl2B       -2.5190   -3.4430   -0.1700 cl        1 X89     -0.085400
     10 Cl4A        3.0650   -1.1230    5.2550 cl        1 X89     -0.075400
     11 Cl4B       -6.6350   -0.1200   -0.8660 cl        1 X89     -0.081400
     12 C1A         1.8110   -0.2300    1.0260 ca        1 X89     -0.124300
     13 C1B        -2.1950   -0.7880   -0.5700 ca        1 X89     -0.081300
     14 C2A         3.0340   -0.8660    1.2890 ca        1 X89      0.030400
     15 C2B        -3.0890   -1.8620   -0.4390 ca        1 X89      0.023400
     16 C3A         3.4280   -1.1470    2.6020 ca        1 X89     -0.123000
     17 C3B        -4.4700   -1.6610   -0.5300 ca        1 X89     -0.119000
     18 C4A         2.5920   -0.7850    3.6610 ca        1 X89      0.030400
     19 C4B        -4.9590   -0.3720   -0.7550 ca        1 X89      0.024400
     20 C5A         1.3710   -0.1470    3.4160 ca        1 X89     -0.124000
     21 C5B        -4.0810    0.7080   -0.8910 ca        1 X89     -0.123000
     22 C6A         0.9930    0.1250    2.1050 ca        1 X89     -0.095000
     23 C6B        -2.7090    0.4930   -0.7980 ca        1 X89     -0.094000
     24 CBA         1.3760    0.0810   -0.3780 c3        1 X89      0.169400
     25 CBB        -0.7250   -1.0330   -0.4760 c3        1 X89      0.168700
     26 H1          3.0400    1.4790   -0.4900 h1        1 X89      0.076200
     27 H1A         1.3950    2.2540   -0.2230 h1        1 X89      0.076200
     28 H2         -0.3070    1.8570   -2.4740 h5        1 X89      0.067100
     29 H4          2.8490    2.3330   -5.2910 h4        1 X89      0.042100
     30 H5          3.9660    1.7750   -2.7830 h4        1 X89      0.176000
     31 HC3         4.3890   -1.6500    2.7970 ha        1 X89      0.166000
     32 HC3A       -5.1620   -2.5120   -0.4270 ha        1 X89      0.163000
     33 HC5         0.7130    0.1380    4.2520 ha        1 X89      0.157000
     34 HC5A       -4.4700    1.7220   -1.0730 ha        1 X89      0.154000
     35 HC6         0.0300    0.6240    1.9010 ha        1 X89      0.161000
     36 HC6A       -2.0140    1.3420   -0.9070 ha        1 X89      0.156000
     37 HCB         1.7210   -0.7310   -1.0790 h1        1 X89      0.077700
     38 HCBA       -0.4780   -1.5820    0.4750 h1        1 X89      0.058200
     39 HCBB       -0.3810   -1.6420   -1.3570 h1        1 X89      0.058200
@<TRIPOS>BOND
     1    1   24 1   
     2    1   25 1   
     3    2    3 1   
     4    2   24 1   
     5    2   26 1   
     6    2   27 1   
     7    3    4 1   
     8    3    7 1   
     9    4    5 2   
    10    4   28 1   
    11    5    6 1   
    12    6    7 2   
    13    6   29 1   
    14    7   30 1   
    15    8   14 1   
    16    9   15 1   
    17   10   18 1   
    18   11   19 1   
    19   12   14 ar  
    20   12   22 ar  
    21   12   24 1   
    22   13   15 ar  
    23   13   23 ar  
    24   13   25 1   
    25   14   16 ar  
    26   15   17 ar  
    27   16   18 ar  
    28   16   31 1   
    29   17   19 ar  
    30   17   32 1   
    31   18   20 ar  
    32   19   21 ar  
    33   20   22 ar  
    34   20   33 1   
    35   21   23 ar  
    36   21   34 1   
    37   22   35 1   
    38   23   36 1   
    39   24   37 1   
    40   25   38 1   
    41   25   39 1   
@<TRIPOS>SUBSTRUCTURE
     1 X89         1 TEMP              0 ****  ****    0 ROOT
