@<TRIPOS>MOLECULE
X89
   39    32     1     0     0
SMALL
bcc


@<TRIPOS>ATOM
      1 O          -0.4080    0.3160   -0.1170 os        1 X89     -0.283000
      2 C1          1.5220    1.5310   -0.8060 c3        1 X89     -0.011000
      3 N1          1.8200    1.1840   -2.1760 n3        1 X89     -0.168000
      4 C2          1.0780    1.5030   -3.2610 c1        1 X89     -0.088000
      5 N3          1.7440    1.1030   -4.3510 n2        1 X89     -0.144000
      6 C4          2.8720    0.5480   -3.9620 c1        1 X89     -0.173000
      7 C5          2.9210    0.5990   -2.6000 c1        1 X89     -0.170000
      8 CL2A        3.3100   -1.9550    0.9350 cl        1 X89     -0.005000
      9 CL2B       -2.7380   -3.7450   -0.6560 cl        1 X89     -0.005000
     10 CL4A        3.0850   -0.1720    5.5770 cl        1 X89      0.000000
     11 CL4B       -7.0880   -0.8550   -0.2040 cl        1 X89      0.000000
     12 C1A         1.4630    0.2830    1.3590 c1        1 X89     -0.095500
     13 C1B        -2.5010   -0.8080   -0.2110 c1        1 X89     -0.095500
     14 C2A         2.4610   -0.6510    1.6250 c2        1 X89     -0.051500
     15 C2B        -3.1430   -2.0130   -0.4420 c2        1 X89     -0.051500
     16 C3A         3.0230   -0.7230    2.9000 c1        1 X89     -0.121000
     17 C3B        -4.5250   -2.0710   -0.4400 c1        1 X89     -0.121000
     18 C4A         2.5850    0.1380    3.9020 c1        1 X89     -0.051000
     19 C4B        -5.2700   -0.9130   -0.2040 c1        1 X89     -0.051000
     20 C5A         1.5920    1.0660    3.6320 c1        1 X89     -0.123500
     21 C5B        -4.6240    0.2890    0.0260 c1        1 X89     -0.123500
     22 C6A         1.0300    1.1400    2.3640 c1        1 X89     -0.094500
     23 C6B        -3.2430    0.3430    0.0230 c1        1 X89     -0.094500
     24 CBA         0.9810    0.2950   -0.0910 c2        1 X89      0.051000
     25 CBB        -1.0130   -0.9680   -0.2240 c2        1 X89      0.011000
     26 H1          2.3430    1.8390   -0.3600 h1        1 X89      0.115500
     27 H1A         0.8400    2.2590   -0.7830 h1        1 X89      0.115500
     28 H2          0.2570    1.9220   -3.2530 DU        1 X89      0.186333
     29 H4          3.5530    0.1690   -4.5450 DU        1 X89      0.186333
     30 H5          3.6620    0.2500   -2.0250 DU        1 X89      0.186333
     31 HC3         3.7700   -1.3110    3.0640 ha        1 X89      0.164500
     32 HC3A       -4.9520   -2.8720   -0.5820 ha        1 X89      0.164500
     33 HC5         1.3050    1.6340    4.2920 ha        1 X89      0.155500
     34 HC5A       -5.1150    1.0560    0.1840 ha        1 X89      0.155500
     35 HC6         0.3630    1.7630    2.1890 ha        1 X89      0.158500
     36 HC6A       -2.7740    1.2200    0.1910 ha        1 X89      0.158500
     37 HCB         1.2860   -0.4620   -0.5230 h4        1 X89      0.117000
     38 HCBA       -0.7530   -1.3710   -1.0210 h4        1 X89      0.097500
     39 HCBB       -0.7200   -1.5580    0.5700 h4        1 X89      0.097500
@<TRIPOS>BOND
     1    1   24 1   
     2    1   25 1   
     3    2    3 1   
     4    2   24 1   
     5    2   26 1   
     6    2   27 1   
     7    3    4 1   
     8    3    7 1   
     9    4    5 1   
    10    5    6 1   
    11    6    7 1   
    12    8   14 1   
    13    9   15 1   
    14   10   18 1   
    15   11   19 1   
    16   12   14 1   
    17   12   22 1   
    18   13   15 1   
    19   13   23 1   
    20   14   16 1   
    21   15   17 1   
    22   16   31 1   
    23   17   32 1   
    24   18   20 1   
    25   19   21 1   
    26   20   33 1   
    27   21   34 1   
    28   22   35 1   
    29   23   36 1   
    30   24   37 1   
    31   25   38 1   
    32   25   39 1   
@<TRIPOS>SUBSTRUCTURE
     1 X89         1 TEMP              0 ****  ****    0 ROOT
