@<TRIPOS>MOLECULE
X89
   39    41     1     0     0
SMALL
bcc


@<TRIPOS>ATOM
      1 O           0.2340    0.3310   -0.4050 os        1 X89     -0.426600
      2 C1         -1.3250    1.7770   -1.4500 c3        1 X89      0.048300
      3 N1         -0.4940    2.9100   -1.7030 na        1 X89     -0.212900
      4 C2          0.8840    2.8990   -1.9770 cc        1 X89      0.400400
      5 N3          1.3560    4.1460   -2.1730 nd        1 X89     -0.670000
      6 C4          0.2600    4.9980   -2.0180 cd        1 X89      0.292200
      7 C5         -0.8940    4.2520   -1.7210 cc        1 X89     -0.259600
      8 CL2A       -3.3870    2.0620    1.4790 cl        1 X89     -0.081400
      9 CL2B        2.3420   -1.5350    3.0230 cl        1 X89     -0.085400
     10 CL4A       -5.4330   -2.8400    1.0610 cl        1 X89     -0.075400
     11 CL4B        5.9560   -2.9760   -0.6270 cl        1 X89     -0.081400
     12 C1A        -2.1100    0.0620    0.1720 ca        1 X89     -0.124300
     13 C1B         2.1360   -0.8390    0.4180 ca        1 X89     -0.081300
     14 C2A        -3.2350    0.4670    0.9050 ca        1 X89      0.030400
     15 C2B         2.8720   -1.5130    1.4070 ca        1 X89      0.023400
     16 C3A        -4.2700   -0.4310    1.1850 ca        1 X89     -0.123000
     17 C3B         4.0600   -2.1780    1.0880 ca        1 X89     -0.119000
     18 C4A        -4.1790   -1.7460    0.7240 ca        1 X89      0.030400
     19 C4B         4.5150   -2.1680   -0.2330 ca        1 X89      0.024400
     20 C5A        -3.0660   -2.1660   -0.0110 ca        1 X89     -0.124000
     21 C5B         3.7960   -1.5000   -1.2280 ca        1 X89     -0.123000
     22 C6A        -2.0450   -1.2610   -0.2810 ca        1 X89     -0.095000
     23 C6B         2.6150   -0.8410   -0.8960 ca        1 X89     -0.094000
     24 CBA        -0.9920    1.0160   -0.1400 c3        1 X89      0.169400
     25 CBB         0.8760   -0.1310    0.7890 c3        1 X89      0.168700
     26 H1         -2.3970    2.1190   -1.3830 h1        1 X89      0.076200
     27 H1A        -1.2210    1.0500   -2.3050 h1        1 X89      0.076200
     28 H2          1.4600    1.9670   -2.0010 h5        1 X89      0.067100
     29 H4          0.3590    6.0770   -2.1260 h4        1 X89      0.042100
     30 H5         -1.9210    4.5580   -1.5380 h4        1 X89      0.176000
     31 HC3        -5.1480   -0.1020    1.7650 ha        1 X89      0.166000
     32 HC3A        4.6300   -2.7030    1.8710 ha        1 X89      0.163000
     33 HC5        -2.9960   -3.2030   -0.3750 ha        1 X89      0.157000
     34 HC5A        4.1600   -1.4900   -2.2670 ha        1 X89      0.154000
     35 HC6        -1.1600   -1.5830   -0.8570 ha        1 X89      0.161000
     36 HC6A        2.0470   -0.3110   -1.6780 ha        1 X89      0.156000
     37 HCB        -0.8450    1.7330    0.7180 h1        1 X89      0.077700
     38 HCBA        1.1110    0.7510    1.4480 h1        1 X89      0.058200
     39 HCBB        0.1780   -0.8270    1.3320 h1        1 X89      0.058200
@<TRIPOS>BOND
     1    1   24 1   
     2    1   25 1   
     3    2    3 1   
     4    2   24 1   
     5    2   26 1   
     6    2   27 1   
     7    3    4 1   
     8    3    7 1   
     9    4    5 2   
    10    4   28 1   
    11    5    6 1   
    12    6    7 2   
    13    6   29 1   
    14    7   30 1   
    15    8   14 1   
    16    9   15 1   
    17   10   18 1   
    18   11   19 1   
    19   12   14 ar  
    20   12   22 ar  
    21   12   24 1   
    22   13   15 ar  
    23   13   23 ar  
    24   13   25 1   
    25   14   16 ar  
    26   15   17 ar  
    27   16   18 ar  
    28   16   31 1   
    29   17   19 ar  
    30   17   32 1   
    31   18   20 ar  
    32   19   21 ar  
    33   20   22 ar  
    34   20   33 1   
    35   21   23 ar  
    36   21   34 1   
    37   22   35 1   
    38   23   36 1   
    39   24   37 1   
    40   25   38 1   
    41   25   39 1   
@<TRIPOS>SUBSTRUCTURE
     1 X89         1 TEMP              0 ****  ****    0 ROOT
