@<TRIPOS>MOLECULE
X89
   39    41     1     0     0
SMALL
bcc


@<TRIPOS>ATOM
      1 O          -0.0410    0.2310   -0.4760 os        1 X89     -0.426600
      2 C1          1.9720    1.4440   -0.7780 c3        1 X89      0.048300
      3 N1          1.8880    1.7380   -2.1730 na        1 X89     -0.212900
      4 C2          0.7160    1.9470   -2.9200 cc        1 X89      0.400400
      5 N3          0.9980    2.2080   -4.2120 nd        1 X89     -0.670000
      6 C4          2.3890    2.1620   -4.3160 cd        1 X89      0.292200
      7 C5          2.9590    1.8670   -3.0660 cc        1 X89     -0.259600
      8 CL2A        4.0660   -1.3600    0.0340 cl        1 X89     -0.081400
      9 CL2B       -2.5580   -3.4120   -0.2080 cl        1 X89     -0.085400
     10 CL4A        3.0280   -1.1910    5.2570 cl        1 X89     -0.075400
     11 CL4B       -6.6340   -0.0410   -0.8980 cl        1 X89     -0.081400
     12 C1A         1.8020   -0.2550    1.0300 ca        1 X89     -0.124300
     13 C1B        -2.2030   -0.7580   -0.5870 ca        1 X89     -0.081300
     14 C2A         3.0170   -0.9060    1.2930 ca        1 X89      0.030400
     15 C2B        -3.1100   -1.8240   -0.4680 ca        1 X89      0.023400
     16 C3A         3.4020   -1.2010    2.6060 ca        1 X89     -0.123000
     17 C3B        -4.4870   -1.6070   -0.5640 ca        1 X89     -0.119000
     18 C4A         2.5650   -0.8370    3.6640 ca        1 X89      0.030400
     19 C4B        -4.9610   -0.3110   -0.7820 ca        1 X89      0.024400
     20 C5A         1.3530   -0.1840    3.4180 ca        1 X89     -0.124000
     21 C5B        -4.0720    0.7600   -0.9060 ca        1 X89     -0.123000
     22 C6A         0.9830    0.1010    2.1080 ca        1 X89     -0.095000
     23 C6B        -2.7020    0.5290   -0.8080 ca        1 X89     -0.094000
     24 CBA         1.3760    0.0710   -0.3740 c3        1 X89      0.169400
     25 CBB        -0.7370   -1.0200   -0.4880 c3        1 X89      0.168700
     26 H1          1.4180    2.2420   -0.2040 h1        1 X89      0.076200
     27 H1A         3.0560    1.4510   -0.4700 h1        1 X89      0.076200
     28 H2         -0.2790    1.8790   -2.4650 h5        1 X89      0.067100
     29 H4          2.8940    2.3410   -5.2640 h4        1 X89      0.042100
     30 H5          3.9950    1.7530   -2.7560 h4        1 X89      0.176000
     31 HC3         4.3570   -1.7150    2.8010 ha        1 X89      0.166000
     32 HC3A       -5.1900   -2.4510   -0.4700 ha        1 X89      0.163000
     33 HC5         0.6950    0.1020    4.2530 ha        1 X89      0.157000
     34 HC5A       -4.4480    1.7790   -1.0820 ha        1 X89      0.154000
     35 HC6         0.0260    0.6120    1.9030 ha        1 X89      0.161000
     36 HC6A       -1.9980    1.3720   -0.9080 ha        1 X89      0.156000
     37 HCB         1.7150   -0.7410   -1.0790 h1        1 X89      0.077700
     38 HCBA       -0.3950   -1.6270   -1.3730 h1        1 X89      0.058200
     39 HCBB       -0.4990   -1.5780    0.4600 h1        1 X89      0.058200
@<TRIPOS>BOND
     1    1   24 1   
     2    1   25 1   
     3    2    3 1   
     4    2   24 1   
     5    2   26 1   
     6    2   27 1   
     7    3    4 1   
     8    3    7 1   
     9    4    5 2   
    10    4   28 1   
    11    5    6 1   
    12    6    7 2   
    13    6   29 1   
    14    7   30 1   
    15    8   14 1   
    16    9   15 1   
    17   10   18 1   
    18   11   19 1   
    19   12   14 ar  
    20   12   22 ar  
    21   12   24 1   
    22   13   15 ar  
    23   13   23 ar  
    24   13   25 1   
    25   14   16 ar  
    26   15   17 ar  
    27   16   18 ar  
    28   16   31 1   
    29   17   19 ar  
    30   17   32 1   
    31   18   20 ar  
    32   19   21 ar  
    33   20   22 ar  
    34   20   33 1   
    35   21   23 ar  
    36   21   34 1   
    37   22   35 1   
    38   23   36 1   
    39   24   37 1   
    40   25   38 1   
    41   25   39 1   
@<TRIPOS>SUBSTRUCTURE
     1 X89         1 TEMP              0 ****  ****    0 ROOT
