@<TRIPOS>MOLECULE
X8D
   24    26     1     0     0
SMALL
bcc


@<TRIPOS>ATOM
      1 C13        -0.0410   -0.0440   -0.0280 ca        1 X8D     -0.152000
      2 C14         1.3570   -0.0040   -0.0580 ca        1 X8D     -0.091000
      3 C12        -0.7120   -0.0380    1.1850 ca        1 X8D     -0.090000
      4 C15         2.0870    0.0420    1.1190 ca        1 X8D     -0.153000
      5 C11        -0.0140    0.0070    2.4030 ca        1 X8D     -0.093000
      6 C10         1.4120    0.0480    2.3630 ca        1 X8D      0.085700
      7 C3         -0.0140    0.0350    4.8520 cc        1 X8D     -0.131000
      8 C2         -0.7060    0.0160    3.6830 cd        1 X8D     -0.013300
      9 C4          1.4330    0.0480    4.8310 cc        1 X8D      0.015700
     10 C7          3.5090    0.0380    3.8610 c         1 X8D      0.633300
     11 C1         -2.1890    0.0010    3.6920 c3        1 X8D     -0.064800
     12 N5          2.3180   -0.0210    5.8450 nd        1 X8D     -0.227600
     13 N6          3.5630    0.0720    5.3060 ns        1 X8D     -0.249900
     14 N9          2.1080    0.1150    3.5670 n         1 X8D     -0.138200
     15 O8          4.4560    0.0650    3.0640 o         1 X8D     -0.599500
     16 H13        -0.6070   -0.0800   -0.9710 ha        1 X8D      0.139000
     17 H14         1.8850   -0.0080   -1.0240 ha        1 X8D      0.142000
     18 H12        -1.8130   -0.0700    1.1950 ha        1 X8D      0.138000
     19 H15         3.1900    0.0750    1.0940 ha        1 X8D      0.174000
     20 H3         -0.5020    0.0370    5.8370 ha        1 X8D      0.166000
     21 H11C       -2.5700   -0.9230    3.1890 hc        1 X8D      0.054367
     22 H12C       -2.5870    0.8930    3.1460 hc        1 X8D      0.054367
     23 H13C       -2.5870    0.0220    4.7370 hc        1 X8D      0.054367
     24 H6          4.2770   -0.4530    5.7720 hn        1 X8D      0.344500
@<TRIPOS>BOND
     1    1    2 ar  
     2    1    3 ar  
     3    1   16 1   
     4    2    4 ar  
     5    2   17 1   
     6    3    5 ar  
     7    3   18 1   
     8    4    6 ar  
     9    4   19 1   
    10    5    6 ar  
    11    5    8 1   
    12    6   14 1   
    13    7    8 2   
    14    7    9 1   
    15    7   20 1   
    16    8   11 1   
    17    9   12 2   
    18    9   14 1   
    19   10   13 1   
    20   10   14 1   
    21   10   15 2   
    22   11   21 1   
    23   11   22 1   
    24   11   23 1   
    25   12   13 1   
    26   13   24 1   
@<TRIPOS>SUBSTRUCTURE
     1 X8D         1 TEMP              0 ****  ****    0 ROOT
