@<TRIPOS>MOLECULE
X8D
   24    26     1     0     0
SMALL
bcc


@<TRIPOS>ATOM
      1 C13        -0.0380   -0.0390   -0.0290 ca        1 X8D     -0.152000
      2 C14         1.3600   -0.0010   -0.0570 ca        1 X8D     -0.091000
      3 C12        -0.7110   -0.0340    1.1830 ca        1 X8D     -0.090000
      4 C15         2.0880    0.0430    1.1210 ca        1 X8D     -0.153000
      5 C11        -0.0130    0.0090    2.4020 ca        1 X8D     -0.093000
      6 C10         1.4130    0.0480    2.3630 ca        1 X8D      0.085700
      7 C3         -0.0160    0.0330    4.8510 cc        1 X8D     -0.131000
      8 C2         -0.7070    0.0160    3.6820 cd        1 X8D     -0.013300
      9 C4          1.4310    0.0440    4.8310 cc        1 X8D      0.015700
     10 C7          3.5080    0.0330    3.8640 c         1 X8D      0.633300
     11 C1         -2.1900    0.0040    3.6890 c3        1 X8D     -0.064800
     12 N5          2.3150   -0.0280    5.8460 nd        1 X8D     -0.227600
     13 N6          3.5600    0.0650    5.3090 n         1 X8D     -0.249900
     14 N9          2.1080    0.1130    3.5690 n         1 X8D     -0.138200
     15 O8          4.4560    0.0600    3.0680 o         1 X8D     -0.599500
     16 H13        -0.6040   -0.0730   -0.9720 ha        1 X8D      0.139000
     17 H14         1.8890   -0.0040   -1.0230 ha        1 X8D      0.142000
     18 H12        -1.8120   -0.0650    1.1930 ha        1 X8D      0.138000
     19 H15         3.1920    0.0740    1.0970 ha        1 X8D      0.174000
     20 H3         -0.5050    0.0340    5.8360 ha        1 X8D      0.166000
     21 H11C       -2.5860    0.8970    3.1440 hc        1 X8D      0.054367
     22 H12C       -2.5710   -0.9200    3.1850 hc        1 X8D      0.054367
     23 H13C       -2.5890    0.0240    4.7330 hc        1 X8D      0.054367
     24 H6          4.2740   -0.4610    5.7750 hn        1 X8D      0.344500
@<TRIPOS>BOND
     1    1    2 ar  
     2    1    3 ar  
     3    1   16 1   
     4    2    4 ar  
     5    2   17 1   
     6    3    5 ar  
     7    3   18 1   
     8    4    6 ar  
     9    4   19 1   
    10    5    6 ar  
    11    5    8 1   
    12    6   14 1   
    13    7    8 2   
    14    7    9 1   
    15    7   20 1   
    16    8   11 1   
    17    9   12 2   
    18    9   14 1   
    19   10   13 1   
    20   10   14 1   
    21   10   15 2   
    22   11   21 1   
    23   11   22 1   
    24   11   23 1   
    25   12   13 1   
    26   13   24 1   
@<TRIPOS>SUBSTRUCTURE
     1 X8D         1 TEMP              0 ****  ****    0 ROOT
