@<TRIPOS>MOLECULE
X8D
   24    26     1     0     0
SMALL
bcc


@<TRIPOS>ATOM
      1 C13        -0.0400   -0.0430   -0.0290 ca        1 X8D     -0.152000
      2 C14         1.3580   -0.0020   -0.0580 ca        1 X8D     -0.091000
      3 C12        -0.7120   -0.0380    1.1840 ca        1 X8D     -0.090000
      4 C15         2.0870    0.0440    1.1200 ca        1 X8D     -0.153000
      5 C11        -0.0140    0.0070    2.4020 ca        1 X8D     -0.093000
      6 C10         1.4120    0.0490    2.3630 ca        1 X8D      0.085700
      7 C3         -0.0150    0.0330    4.8520 cc        1 X8D     -0.131000
      8 C2         -0.7060    0.0140    3.6820 cd        1 X8D     -0.013300
      9 C4          1.4320    0.0470    4.8310 cc        1 X8D      0.015700
     10 C7          3.5090    0.0390    3.8620 c         1 X8D      0.633300
     11 C1         -2.1890   -0.0020    3.6910 c3        1 X8D     -0.064800
     12 N5          2.3170   -0.0220    5.8450 nd        1 X8D     -0.227600
     13 N6          3.5620    0.0730    5.3070 n         1 X8D     -0.249900
     14 N9          2.1080    0.1160    3.5680 n         1 X8D     -0.138200
     15 O8          4.4560    0.0680    3.0660 o         1 X8D     -0.599500
     16 H13        -0.6060   -0.0790   -0.9710 ha        1 X8D      0.139000
     17 H14         1.8870   -0.0050   -1.0230 ha        1 X8D      0.142000
     18 H12        -1.8120   -0.0720    1.1940 ha        1 X8D      0.138000
     19 H15         3.1900    0.0780    1.0950 ha        1 X8D      0.174000
     20 H3         -0.5030    0.0350    5.8370 ha        1 X8D      0.166000
     21 H11C       -2.5690   -0.9260    3.1870 hc        1 X8D      0.054367
     22 H12C       -2.5880    0.8900    3.1450 hc        1 X8D      0.054367
     23 H13C       -2.5880    0.0190    4.7350 hc        1 X8D      0.054367
     24 H6          4.2760   -0.4510    5.7730 hn        1 X8D      0.344500
@<TRIPOS>BOND
     1    1    2 ar  
     2    1    3 ar  
     3    1   16 1   
     4    2    4 ar  
     5    2   17 1   
     6    3    5 ar  
     7    3   18 1   
     8    4    6 ar  
     9    4   19 1   
    10    5    6 ar  
    11    5    8 1   
    12    6   14 1   
    13    7    8 2   
    14    7    9 1   
    15    7   20 1   
    16    8   11 1   
    17    9   12 2   
    18    9   14 1   
    19   10   13 1   
    20   10   14 1   
    21   10   15 2   
    22   11   21 1   
    23   11   22 1   
    24   11   23 1   
    25   12   13 1   
    26   13   24 1   
@<TRIPOS>SUBSTRUCTURE
     1 X8D         1 TEMP              0 ****  ****    0 ROOT
