@<TRIPOS>MOLECULE
X8D
   24    26     1     0     0
SMALL
bcc


@<TRIPOS>ATOM
      1 C13         2.9980   -1.5370    0.0070 ca        1 X8D     -0.152000
      2 C14         1.9450   -2.4570   -0.0420 ca        1 X8D     -0.091000
      3 C12         2.7330   -0.1760    0.0200 ca        1 X8D     -0.090000
      4 C15         0.6290   -2.0220   -0.0770 ca        1 X8D     -0.153000
      5 C11         1.4150    0.3100   -0.0140 ca        1 X8D     -0.093000
      6 C10         0.3480   -0.6360   -0.0640 ca        1 X8D      0.085700
      7 C3         -0.1580    2.1880   -0.0110 cc        1 X8D     -0.131000
      8 C2          1.1230    1.7360   -0.0030 cd        1 X8D     -0.013300
      9 C4         -1.2530    1.2420   -0.0320 cc        1 X8D      0.015700
     10 C7         -2.2220   -0.8350   -0.0460 c         1 X8D      0.633300
     11 C1          2.2550    2.6950    0.0210 c3        1 X8D     -0.064800
     12 N5         -2.5820    1.4500    0.0450 nd        1 X8D     -0.227600
     13 N6         -3.1910    0.2390   -0.0620 n         1 X8D     -0.249900
     14 N9         -0.9600   -0.1590   -0.1200 n         1 X8D     -0.138200
     15 O8         -2.4360   -2.0530   -0.0890 o         1 X8D     -0.599500
     16 H13         4.0370   -1.8960    0.0340 ha        1 X8D      0.139000
     17 H14         2.1600   -3.5360   -0.0530 ha        1 X8D      0.142000
     18 H12         3.5700    0.5390    0.0590 ha        1 X8D      0.138000
     19 H15        -0.2000   -2.7500   -0.1170 ha        1 X8D      0.174000
     20 H3         -0.4160    3.2560    0.0030 ha        1 X8D      0.166000
     21 H11C        2.9070    2.5440   -0.8750 hc        1 X8D      0.054367
     22 H12C        1.8890    3.7510    0.0150 hc        1 X8D      0.054367
     23 H13C        2.8730    2.5410    0.9410 hc        1 X8D      0.054367
     24 H6         -4.0360    0.1310    0.4640 hn        1 X8D      0.344500
@<TRIPOS>BOND
     1    1    2 ar  
     2    1    3 ar  
     3    1   16 1   
     4    2    4 ar  
     5    2   17 1   
     6    3    5 ar  
     7    3   18 1   
     8    4    6 ar  
     9    4   19 1   
    10    5    6 ar  
    11    5    8 1   
    12    6   14 1   
    13    7    8 2   
    14    7    9 1   
    15    7   20 1   
    16    8   11 1   
    17    9   12 2   
    18    9   14 1   
    19   10   13 1   
    20   10   14 1   
    21   10   15 2   
    22   11   21 1   
    23   11   22 1   
    24   11   23 1   
    25   12   13 1   
    26   13   24 1   
@<TRIPOS>SUBSTRUCTURE
     1 X8D         1 TEMP              0 ****  ****    0 ROOT
