@<TRIPOS>MOLECULE
X8E
   33    36     1     0     0
SMALL
bcc


@<TRIPOS>ATOM
      1 C13        -0.0180    0.2370    0.0080 ca        1 X8E     -0.138000
      2 C12         1.3670    0.2480    0.0230 ca        1 X8E     -0.090000
      3 C17        -2.9020   -0.5630    0.1200 ca        1 X8E     -0.231800
      4 C21        -2.9470    0.6350    2.2080 ca        1 X8E     -0.231800
      5 C15        -0.0610   -0.1170    2.4030 ca        1 X8E     -0.141000
      6 C18        -4.3080   -0.5460    0.1420 ca        1 X8E      0.393200
      7 C20        -4.3510    0.6000    2.1340 ca        1 X8E      0.393200
      8 C14        -0.7430    0.0530    1.1990 cp        1 X8E     -0.005000
      9 C16        -2.2040    0.0420    1.1760 cp        1 X8E     -0.008000
     10 C11         2.0870    0.0770    1.2160 ca        1 X8E     -0.087000
     11 C10         1.3510   -0.1060    2.4240 ca        1 X8E      0.085700
     12 C3          4.2200   -0.0640    2.4100 cc        1 X8E     -0.126000
     13 C2          3.5420    0.0790    1.2420 cd        1 X8E     -0.015300
     14 C4          3.4900   -0.2180    3.6510 cc        1 X8E      0.013700
     15 C7          1.6250   -0.3600    4.9750 c         1 X8E      0.634300
     16 C1          4.2770    0.2410   -0.0360 c3        1 X8E     -0.064800
     17 N19        -5.0320    0.0230    1.1250 nb        1 X8E     -0.659000
     18 N5          3.9370   -0.2810    4.9200 nd        1 X8E     -0.222600
     19 N6          2.8570   -0.4670    5.7230 n         1 X8E     -0.250900
     20 N9          2.0580   -0.2920    3.6110 n         1 X8E     -0.138200
     21 O8          0.4650   -0.4350    5.4010 o         1 X8E     -0.600500
     22 H13        -0.5590    0.3810   -0.9400 ha        1 X8E      0.144000
     23 H12         1.9150    0.3950   -0.9210 ha        1 X8E      0.141000
     24 H18        -4.8890   -1.0160   -0.6710 h4        1 X8E      0.025100
     25 H21        -2.4470    1.1220    3.0560 ha        1 X8E      0.149000
     26 H20        -4.9660    1.0580    2.9290 h4        1 X8E      0.025100
     27 H15        -0.6230   -0.2710    3.3420 ha        1 X8E      0.178000
     28 H3          5.3180   -0.0650    2.4700 ha        1 X8E      0.167000
     29 H11C        4.0040   -0.5800   -0.7460 hc        1 X8E      0.055033
     30 H12C        4.0190    1.2220   -0.5090 hc        1 X8E      0.055033
     31 H13C        5.3830    0.2100    0.1270 hc        1 X8E      0.055033
     32 H6          2.9100   -0.0450    6.6300 hn        1 X8E      0.346500
     33 H17        -2.3670   -1.0510   -0.7050 ha        1 X8E      0.149000
@<TRIPOS>BOND
     1    1    2 ar  
     2    1    8 ar  
     3    1   22 1   
     4    2   10 ar  
     5    2   23 1   
     6    3    6 ar  
     7    3    9 ar  
     8    3   33 1   
     9    4    7 ar  
    10    4    9 ar  
    11    4   25 1   
    12    5    8 ar  
    13    5   11 ar  
    14    5   27 1   
    15    6   17 ar  
    16    6   24 1   
    17    7   17 ar  
    18    7   26 1   
    19    8    9 1   
    20   10   11 ar  
    21   10   13 1   
    22   11   20 1   
    23   12   13 2   
    24   12   14 1   
    25   12   28 1   
    26   13   16 1   
    27   14   18 2   
    28   14   20 1   
    29   15   19 1   
    30   15   20 1   
    31   15   21 2   
    32   16   29 1   
    33   16   30 1   
    34   16   31 1   
    35   18   19 1   
    36   19   32 1   
@<TRIPOS>SUBSTRUCTURE
     1 X8E         1 TEMP              0 ****  ****    0 ROOT
