@<TRIPOS>MOLECULE
X8E
   33    36     1     0     0
SMALL
bcc


@<TRIPOS>ATOM
      1 C13        -0.0170    0.2370    0.0080 ca        1 X8E     -0.138000
      2 C12         1.3680    0.2520    0.0240 ca        1 X8E     -0.090000
      3 C17        -2.8990   -0.5730    0.1160 ca        1 X8E     -0.231800
      4 C21        -2.9500    0.6250    2.2040 ca        1 X8E     -0.231800
      5 C15        -0.0620   -0.1190    2.4020 ca        1 X8E     -0.141000
      6 C18        -4.3040   -0.5600    0.1370 ca        1 X8E      0.393200
      7 C20        -4.3530    0.5850    2.1300 ca        1 X8E      0.393200
      8 C14        -0.7420    0.0500    1.1980 cp        1 X8E     -0.005000
      9 C16        -2.2040    0.0340    1.1730 cp        1 X8E     -0.008000
     10 C11         2.0870    0.0830    1.2180 ca        1 X8E     -0.087000
     11 C10         1.3510   -0.1030    2.4250 ca        1 X8E      0.085700
     12 C3          4.2200   -0.0530    2.4140 cc        1 X8E     -0.126000
     13 C2          3.5420    0.0880    1.2450 cd        1 X8E     -0.015300
     14 C4          3.4890   -0.2100    3.6540 cc        1 X8E      0.013700
     15 C7          1.6230   -0.3580    4.9760 c         1 X8E      0.634300
     16 C1          4.2780    0.2540   -0.0320 c3        1 X8E     -0.064800
     17 N19        -5.0310    0.0060    1.1200 nb        1 X8E     -0.659000
     18 N5          3.9350   -0.2730    4.9240 nd        1 X8E     -0.222600
     19 N6          2.8540   -0.4620    5.7260 ns        1 X8E     -0.250900
     20 N9          2.0570   -0.2880    3.6120 n         1 X8E     -0.138200
     21 O8          0.4630   -0.4370    5.4010 o         1 X8E     -0.600500
     22 H13        -0.5570    0.3800   -0.9410 ha        1 X8E      0.144000
     23 H12         1.9160    0.4020   -0.9200 ha        1 X8E      0.141000
     24 H18        -4.8830   -1.0320   -0.6770 h4        1 X8E      0.025100
     25 H21        -2.4520    1.1120    3.0540 ha        1 X8E      0.149000
     26 H20        -4.9710    1.0410    2.9240 h4        1 X8E      0.025100
     27 H15        -0.6230   -0.2750    3.3410 ha        1 X8E      0.178000
     28 H3          5.3180   -0.0510    2.4750 ha        1 X8E      0.167000
     29 H11C        5.3840    0.2260    0.1330 hc        1 X8E      0.055033
     30 H12C        4.0080   -0.5670   -0.7430 hc        1 X8E      0.055033
     31 H13C        4.0180    1.2340   -0.5040 hc        1 X8E      0.055033
     32 H6          2.9050   -0.0400    6.6320 hn        1 X8E      0.346500
     33 H17        -2.3610   -1.0590   -0.7090 ha        1 X8E      0.149000
@<TRIPOS>BOND
     1    1    2 ar  
     2    1    8 ar  
     3    1   22 1   
     4    2   10 ar  
     5    2   23 1   
     6    3    6 ar  
     7    3    9 ar  
     8    3   33 1   
     9    4    7 ar  
    10    4    9 ar  
    11    4   25 1   
    12    5    8 ar  
    13    5   11 ar  
    14    5   27 1   
    15    6   17 ar  
    16    6   24 1   
    17    7   17 ar  
    18    7   26 1   
    19    8    9 1   
    20   10   11 ar  
    21   10   13 1   
    22   11   20 1   
    23   12   13 2   
    24   12   14 1   
    25   12   28 1   
    26   13   16 1   
    27   14   18 2   
    28   14   20 1   
    29   15   19 1   
    30   15   20 1   
    31   15   21 2   
    32   16   29 1   
    33   16   30 1   
    34   16   31 1   
    35   18   19 1   
    36   19   32 1   
@<TRIPOS>SUBSTRUCTURE
     1 X8E         1 TEMP              0 ****  ****    0 ROOT
