@<TRIPOS>MOLECULE
X8E
   33    36     1     0     0
SMALL
bcc


@<TRIPOS>ATOM
      1 C13        -0.0190    0.2230    0.0060 ca        1 X8E     -0.138000
      2 C12         1.3660    0.2370    0.0210 ca        1 X8E     -0.090000
      3 C17        -2.9010   -0.5850    0.1230 ca        1 X8E     -0.231800
      4 C21        -2.9490    0.6290    2.2020 ca        1 X8E     -0.231800
      5 C15        -0.0610   -0.1140    2.4030 ca        1 X8E     -0.141000
      6 C18        -4.3060   -0.5720    0.1460 ca        1 X8E      0.393200
      7 C20        -4.3530    0.5890    2.1290 ca        1 X8E      0.393200
      8 C14        -0.7430    0.0460    1.1990 cp        1 X8E     -0.005000
      9 C16        -2.2040    0.0300    1.1750 cp        1 X8E     -0.008000
     10 C11         2.0870    0.0770    1.2160 ca        1 X8E     -0.087000
     11 C10         1.3510   -0.0990    2.4250 ca        1 X8E      0.085700
     12 C3          4.2200   -0.0500    2.4110 cc        1 X8E     -0.126000
     13 C2          3.5420    0.0830    1.2420 cd        1 X8E     -0.015300
     14 C4          3.4900   -0.1960    3.6530 cc        1 X8E      0.013700
     15 C7          1.6250   -0.3340    4.9780 c         1 X8E      0.634300
     16 C1          4.2770    0.2380   -0.0370 c3        1 X8E     -0.064800
     17 N19        -5.0320    0.0030    1.1240 nb        1 X8E     -0.659000
     18 N5          3.9380   -0.2500    4.9230 nd        1 X8E     -0.222600
     19 N6          2.8570   -0.4320    5.7270 n         1 X8E     -0.250900
     20 N9          2.0590   -0.2740    3.6130 n         1 X8E     -0.138200
     21 O8          0.4660   -0.4090    5.4040 o         1 X8E     -0.600500
     22 H13        -0.5590    0.3580   -0.9430 ha        1 X8E      0.144000
     23 H12         1.9140    0.3800   -0.9240 ha        1 X8E      0.141000
     24 H18        -4.8860   -1.0490   -0.6650 h4        1 X8E      0.025100
     25 H21        -2.4510    1.1230    3.0470 ha        1 X8E      0.149000
     26 H20        -4.9700    1.0510    2.9210 h4        1 X8E      0.025100
     27 H15        -0.6220   -0.2630    3.3440 ha        1 X8E      0.178000
     28 H3          5.3180   -0.0470    2.4710 ha        1 X8E      0.167000
     29 H11C        5.3830    0.2110    0.1270 hc        1 X8E      0.055033
     30 H12C        4.0060   -0.5880   -0.7410 hc        1 X8E      0.055033
     31 H13C        4.0160    1.2150   -0.5170 hc        1 X8E      0.055033
     32 H6          2.9090   -0.0030    6.6300 hn        1 X8E      0.346500
     33 H17        -2.3630   -1.0770   -0.6980 ha        1 X8E      0.149000
@<TRIPOS>BOND
     1    1    2 ar  
     2    1    8 ar  
     3    1   22 1   
     4    2   10 ar  
     5    2   23 1   
     6    3    6 ar  
     7    3    9 ar  
     8    3   33 1   
     9    4    7 ar  
    10    4    9 ar  
    11    4   25 1   
    12    5    8 ar  
    13    5   11 ar  
    14    5   27 1   
    15    6   17 ar  
    16    6   24 1   
    17    7   17 ar  
    18    7   26 1   
    19    8    9 1   
    20   10   11 ar  
    21   10   13 1   
    22   11   20 1   
    23   12   13 2   
    24   12   14 1   
    25   12   28 1   
    26   13   16 1   
    27   14   18 2   
    28   14   20 1   
    29   15   19 1   
    30   15   20 1   
    31   15   21 2   
    32   16   29 1   
    33   16   30 1   
    34   16   31 1   
    35   18   19 1   
    36   19   32 1   
@<TRIPOS>SUBSTRUCTURE
     1 X8E         1 TEMP              0 ****  ****    0 ROOT
