@<TRIPOS>MOLECULE
X8E
   33    36     1     0     0
SMALL
bcc


@<TRIPOS>ATOM
      1 C13         1.1410   -1.9790    0.1720 ca        1 X8E     -0.138000
      2 C12        -0.1780   -2.4030    0.1890 ca        1 X8E     -0.090000
      3 C17         3.8230   -0.9120   -0.6300 ca        1 X8E     -0.232300
      4 C21         3.2380    1.0010    0.7100 ca        1 X8E     -0.232300
      5 C15         0.4200    0.3240   -0.0220 ca        1 X8E     -0.141000
      6 C18         5.1500   -0.4470   -0.6160 ca        1 X8E      0.393200
      7 C20         4.5910    1.3780    0.6650 ca        1 X8E      0.393200
      8 C14         1.4490   -0.6120    0.0650 cp        1 X8E     -0.005000
      9 C16         2.8430   -0.1720    0.0480 cp        1 X8E     -0.008000
     10 C11        -1.2410   -1.4900    0.0990 ca        1 X8E     -0.087000
     11 C10        -0.9270   -0.1020   -0.0040 ca        1 X8E      0.085700
     12 C3         -3.6430   -1.0260   -0.0000 cc        1 X8E     -0.126000
     13 C2         -2.6300   -1.9230    0.1130 cd        1 X8E     -0.015300
     14 C4         -3.3430    0.3840   -0.1320 cc        1 X8E      0.013700
     15 C7         -1.9920    2.2280   -0.2930 c         1 X8E      0.634300
     16 C1         -2.9230   -3.3710    0.2480 c3        1 X8E     -0.064800
     17 N19         5.5410    0.6750    0.0180 nb        1 X8E     -0.659000
     18 N5         -4.1650    1.4320   -0.3400 nd        1 X8E     -0.222600
     19 N6         -3.3990    2.5550   -0.3420 n         1 X8E     -0.249900
     20 N9         -1.9760    0.8130   -0.0660 n         1 X8E     -0.139200
     21 O8         -1.0280    3.0050   -0.3130 o         1 X8E     -0.599500
     22 H13         1.9560   -2.7160    0.2500 ha        1 X8E      0.144000
     23 H12        -0.3970   -3.4790    0.2740 ha        1 X8E      0.141000
     24 H18         5.9460   -1.0040   -1.1430 h4        1 X8E      0.025100
     25 H21         2.5080    1.6140    1.2560 ha        1 X8E      0.149000
     26 H20         4.9360    2.2950    1.1760 h4        1 X8E      0.025100
     27 H15         0.6540    1.4000   -0.1120 ha        1 X8E      0.178000
     28 H3         -4.7040   -1.3160   -0.0010 ha        1 X8E      0.167000
     29 H11C       -2.4930   -3.7640    1.2040 hc        1 X8E      0.055033
     30 H12C       -4.0250   -3.5610    0.2550 hc        1 X8E      0.055033
     31 H13C       -2.4730   -3.9390   -0.6040 hc        1 X8E      0.055033
     32 H6         -3.7030    3.2880   -0.9530 hn        1 X8E      0.346500
     33 H17         3.5630   -1.8310   -1.1720 ha        1 X8E      0.149000
@<TRIPOS>BOND
     1    1    2 ar  
     2    1    8 ar  
     3    1   22 1   
     4    2   10 ar  
     5    2   23 1   
     6    3    6 ar  
     7    3    9 ar  
     8    3   33 1   
     9    4    7 ar  
    10    4    9 ar  
    11    4   25 1   
    12    5    8 ar  
    13    5   11 ar  
    14    5   27 1   
    15    6   17 ar  
    16    6   24 1   
    17    7   17 ar  
    18    7   26 1   
    19    8    9 1   
    20   10   11 ar  
    21   10   13 1   
    22   11   20 1   
    23   12   13 2   
    24   12   14 1   
    25   12   28 1   
    26   13   16 1   
    27   14   18 2   
    28   14   20 1   
    29   15   19 1   
    30   15   20 1   
    31   15   21 2   
    32   16   29 1   
    33   16   30 1   
    34   16   31 1   
    35   18   19 1   
    36   19   32 1   
@<TRIPOS>SUBSTRUCTURE
     1 X8E         1 TEMP              0 ****  ****    0 ROOT
