@<TRIPOS>MOLECULE
X8I
   35    38     1     0     0
SMALL
bcc


@<TRIPOS>ATOM
      1 C18         4.7280   -1.3820    0.8420 ca        1 X8I     -0.097000
      2 C17         3.3430   -1.2200    0.8140 ca        1 X8I     -0.156000
      3 C14         0.7540    1.3150    0.2810 ca        1 X8I     -0.080000
      4 C15        -0.6190    1.4950    0.2570 ca        1 X8I     -0.154000
      5 C19         5.5640   -0.4750    0.1990 ca        1 X8I     -0.152000
      6 C12         0.4800   -1.0570   -0.0880 ca        1 X8I     -0.077000
      7 C21         3.5990    0.7900   -0.5120 ca        1 X8I     -0.204000
      8 C13         1.3190    0.0400    0.1090 cp        1 X8I     -0.060000
      9 C16         2.7710   -0.1340    0.1380 cp        1 X8I      0.000000
     10 C11        -0.9150   -0.9170   -0.1230 ca        1 X8I     -0.093000
     11 C10        -1.4710    0.3850    0.0530 ca        1 X8I      0.088700
     12 C20         4.9870    0.6120   -0.4790 ca        1 X8I      0.126100
     13 C3         -3.1430   -1.9110   -0.3410 cc        1 X8I     -0.130000
     14 C2         -1.7920   -2.0590   -0.3360 cd        1 X8I     -0.012300
     15 C4         -3.7250   -0.6020   -0.1340 cc        1 X8I      0.015700
     16 C7         -3.7040    1.6550    0.2620 c         1 X8I      0.634300
     17 C1         -1.1850   -3.3950   -0.5480 c3        1 X8I     -0.064800
     18 N5         -5.0150   -0.2330   -0.0120 nd        1 X8I     -0.224600
     19 N6         -5.0400    1.1190    0.1250 n         1 X8I     -0.249900
     20 N9         -2.8550    0.5300   -0.0020 n         1 X8I     -0.138200
     21 O8         -3.3710    2.8340    0.4380 o         1 X8I     -0.599500
     22 O22         5.8590    1.4780   -1.0990 oh        1 X8I     -0.496100
     23 H18         5.1660   -2.2370    1.3790 ha        1 X8I      0.137000
     24 H17         2.6960   -1.9420    1.3330 ha        1 X8I      0.136000
     25 H19         6.6570   -0.5910    0.2120 ha        1 X8I      0.153000
     26 H15        -1.0520    2.5010    0.3960 ha        1 X8I      0.175000
     27 H12         0.9270   -2.0550   -0.2260 ha        1 X8I      0.144000
     28 H21         3.1610    1.6430   -1.0510 ha        1 X8I      0.138000
     29 H22         5.3370    2.1690   -1.5320 ho        1 X8I      0.420000
     30 H3         -3.8360   -2.7510   -0.4940 ha        1 X8I      0.167000
     31 H11C       -0.5790   -3.6910    0.3450 hc        1 X8I      0.055367
     32 H12C       -1.9700   -4.1740   -0.7140 hc        1 X8I      0.055367
     33 H13C       -0.5140   -3.3770   -1.4440 hc        1 X8I      0.055367
     34 H6         -5.7660    1.4820    0.7120 hn        1 X8I      0.345500
     35 H14         1.4120    2.1830    0.4450 ha        1 X8I      0.145000
@<TRIPOS>BOND
     1    1    2 ar  
     2    1    5 ar  
     3    1   23 1   
     4    2    9 ar  
     5    2   24 1   
     6    3    4 ar  
     7    3    8 ar  
     8    3   35 1   
     9    4   11 ar  
    10    4   26 1   
    11    5   12 ar  
    12    5   25 1   
    13    6    8 ar  
    14    6   10 ar  
    15    6   27 1   
    16    7    9 ar  
    17    7   12 ar  
    18    7   28 1   
    19    8    9 1   
    20   10   11 ar  
    21   10   14 1   
    22   11   20 1   
    23   12   22 1   
    24   13   14 2   
    25   13   15 1   
    26   13   30 1   
    27   14   17 1   
    28   15   18 2   
    29   15   20 1   
    30   16   19 1   
    31   16   20 1   
    32   16   21 2   
    33   17   31 1   
    34   17   32 1   
    35   17   33 1   
    36   18   19 1   
    37   19   34 1   
    38   22   29 1   
@<TRIPOS>SUBSTRUCTURE
     1 X8I         1 TEMP              0 ****  ****    0 ROOT
