@<TRIPOS>MOLECULE
X8I
   35    38     1     0     0
SMALL
bcc


@<TRIPOS>ATOM
      1 C18        -0.0420    0.7720    0.1830 ca        1 X8I     -0.091000
      2 C17         1.3350    0.7560   -0.0230 ca        1 X8I     -0.157000
      3 C14         4.5050    0.2540    1.7500 ca        1 X8I     -0.078000
      4 C15         5.8770    0.2460    1.5610 ca        1 X8I     -0.154000
      5 C19        -0.6020    0.1330    1.2870 ca        1 X8I     -0.210000
      6 C12         4.1480   -0.1060   -0.6130 ca        1 X8I     -0.078000
      7 C21         1.6340   -0.5510    1.9970 ca        1 X8I     -0.147000
      8 C13         3.6260    0.0800    0.6660 cp        1 X8I     -0.060000
      9 C16         2.1800    0.0950    0.8830 cp        1 X8I     -0.004000
     10 C11         5.5310   -0.1240   -0.8450 ca        1 X8I     -0.094000
     11 C10         6.4090    0.0570    0.2650 ca        1 X8I      0.088700
     12 C20         0.2430   -0.5260    2.1900 ca        1 X8I      0.126100
     13 C3          7.4200   -0.3130   -2.3930 cc        1 X8I     -0.131000
     14 C2          6.0790   -0.3250   -2.1790 cd        1 X8I     -0.012300
     15 C4          8.3240   -0.0990   -1.2840 cc        1 X8I      0.015700
     16 C7          8.8950    0.2960    0.9010 c         1 X8I      0.634300
     17 C1          5.1440   -0.5450   -3.3090 c3        1 X8I     -0.064800
     18 N5          9.6640    0.0400   -1.2680 nd        1 X8I     -0.225600
     19 N6         10.0440    0.1760    0.0310 n         1 X8I     -0.249900
     20 N9          7.7830    0.0220    0.0390 n         1 X8I     -0.138200
     21 O8          8.8830    0.4670    2.1270 o         1 X8I     -0.598500
     22 O22        -0.2270   -1.1820    3.3050 oh        1 X8I     -0.496100
     23 H18        -0.6960    1.2960   -0.5300 ha        1 X8I      0.135000
     24 H17         1.7660    1.2720   -0.8930 ha        1 X8I      0.136000
     25 H19        -1.6880    0.1460    1.4500 ha        1 X8I      0.136000
     26 H15         6.5580    0.3860    2.4180 ha        1 X8I      0.175000
     27 H12         3.4560   -0.2480   -1.4590 ha        1 X8I      0.143000
     28 H21         2.2720   -1.0830    2.7170 ha        1 X8I      0.155000
     29 H22        -1.1910   -1.0920    3.3190 ho        1 X8I      0.420000
     30 H3          7.8700   -0.4570   -3.3870 ha        1 X8I      0.166000
     31 H11C        4.4700    0.3410   -3.4320 hc        1 X8I      0.054700
     32 H12C        4.5120   -1.4480   -3.1180 hc        1 X8I      0.054700
     33 H13C        5.6970   -0.7000   -4.2680 hc        1 X8I      0.054700
     34 H6         10.8320    0.7730    0.1910 hn        1 X8I      0.344500
     35 H14         4.0970    0.4040    2.7620 ha        1 X8I      0.148000
@<TRIPOS>BOND
     1    1    2 ar  
     2    1    5 ar  
     3    1   23 1   
     4    2    9 ar  
     5    2   24 1   
     6    3    4 ar  
     7    3    8 ar  
     8    3   35 1   
     9    4   11 ar  
    10    4   26 1   
    11    5   12 ar  
    12    5   25 1   
    13    6    8 ar  
    14    6   10 ar  
    15    6   27 1   
    16    7    9 ar  
    17    7   12 ar  
    18    7   28 1   
    19    8    9 1   
    20   10   11 ar  
    21   10   14 1   
    22   11   20 1   
    23   12   22 1   
    24   13   14 2   
    25   13   15 1   
    26   13   30 1   
    27   14   17 1   
    28   15   18 2   
    29   15   20 1   
    30   16   19 1   
    31   16   20 1   
    32   16   21 2   
    33   17   31 1   
    34   17   32 1   
    35   17   33 1   
    36   18   19 1   
    37   19   34 1   
    38   22   29 1   
@<TRIPOS>SUBSTRUCTURE
     1 X8I         1 TEMP              0 ****  ****    0 ROOT
