@<TRIPOS>MOLECULE
X8I
   35    28     1     0     0
SMALL
bcc


@<TRIPOS>ATOM
      1 C18        -4.1290   -1.3860    0.2940 c1        1 X8I     -0.149500
      2 C17        -2.9300   -0.7220    0.0900 c1        1 X8I     -0.117000
      3 C14        -0.5300    0.2230   -1.7500 c1        1 X8I     -0.117000
      4 C15         0.4300    1.2320   -1.6800 c1        1 X8I     -0.154000
      5 C19        -4.3040   -2.6690   -0.2000 c1        1 X8I     -0.149500
      6 C12         0.0970   -0.5360    0.4620 c1        1 X8I     -0.078000
      7 C21        -2.0790   -2.6240   -1.1020 c1        1 X8I     -0.147000
      8 C13        -0.6970   -0.6620   -0.6770 c1        1 X8I     -0.032000
      9 C16        -1.9050   -1.3410   -0.6080 c1        1 X8I     -0.032000
     10 C11         1.0610    0.4760    0.5340 c1        1 X8I     -0.094000
     11 C10         1.2280    1.3610   -0.5390 c1        1 X8I      0.113000
     12 C20        -3.2790   -3.2880   -0.8980 c1        1 X8I      0.081000
     13 C3          2.8390    1.7010    1.8500 c1        1 X8I     -0.131000
     14 C2          1.9120    0.6100    1.7480 c2        1 X8I     -0.005000
     15 C4          2.9780    2.6770    0.7090 c1        1 X8I      0.040000
     16 C7          3.0510    3.1730   -1.5180 c1        1 X8I      0.335000
     17 C1          1.7120   -0.3260    2.9190 c3        1 X8I     -0.190000
     18 N5          4.1080    3.2940    0.5100 n1        1 X8I     -0.093000
     19 N6          4.3180    3.6660   -0.7760 n1        1 X8I     -0.229000
     20 N9          2.2150    2.5210   -0.4290 n3        1 X8I     -0.230000
     21 O8          2.6390    3.5900   -2.5810 o         1 X8I     -0.323000
     22 O22        -3.3610   -4.6320   -1.3040 oh        1 X8I     -0.251000
     23 H18        -4.8510   -0.9500    0.7860 ha        1 X8I      0.135500
     24 H17        -2.8070    0.1820    0.4380 ha        1 X8I      0.142000
     25 H19        -5.1490   -3.1360   -0.0560 ha        1 X8I      0.135500
     26 H14        -1.0860    0.1340   -2.5470 ha        1 X8I      0.142000
     27 H15         0.5460    1.8480   -2.4290 ha        1 X8I      0.175000
     28 H12        -0.0200   -1.1530    1.2090 ha        1 X8I      0.143000
     29 H21        -1.3580   -3.0600   -1.5940 ha        1 X8I      0.155000
     30 H22        -3.9720   -4.7120   -1.9450 ho        1 X8I      0.219000
     31 H3          3.4320    1.7670    2.6230 ha        1 X8I      0.166000
     32 H11C        2.2900   -0.0490    3.6610 hc        1 X8I      0.094333
     33 H12C        1.9420   -1.2400    2.6500 hc        1 X8I      0.094333
     34 H13C        0.7750   -0.2960    3.2060 hc        1 X8I      0.094333
     35 H6          4.8820    4.3240   -1.0580 hn        1 X8I      0.258000
@<TRIPOS>BOND
     1    1    5 1   
     2    1   23 1   
     3    2    9 1   
     4    2   24 1   
     5    3    8 1   
     6    3   26 1   
     7    4   11 1   
     8    4   27 1   
     9    5   25 1   
    10    6   10 1   
    11    6   28 1   
    12    7   12 1   
    13    7   29 1   
    14   10   14 1   
    15   11   20 1   
    16   12   22 1   
    17   13   14 1   
    18   13   31 1   
    19   14   17 1   
    20   15   18 1   
    21   15   20 1   
    22   16   20 1   
    23   16   21 1   
    24   17   32 1   
    25   17   33 1   
    26   17   34 1   
    27   19   35 1   
    28   22   30 1   
@<TRIPOS>SUBSTRUCTURE
     1 X8I         1 TEMP              0 ****  ****    0 ROOT
