@<TRIPOS>MOLECULE
X8I
   35    38     1     0     0
SMALL
bcc


@<TRIPOS>ATOM
      1 C18        -0.0420    0.7780    0.1890 ca        1 X8I     -0.091000
      2 C17         1.3350    0.7630   -0.0170 ca        1 X8I     -0.157000
      3 C14         4.5050    0.2410    1.7530 ca        1 X8I     -0.078000
      4 C15         5.8760    0.2350    1.5640 ca        1 X8I     -0.154000
      5 C19        -0.6030    0.1280    1.2860 ca        1 X8I     -0.210000
      6 C12         4.1480   -0.0950   -0.6140 ca        1 X8I     -0.078000
      7 C21         1.6320   -0.5650    1.9900 ca        1 X8I     -0.147000
      8 C13         3.6260    0.0790    0.6670 cp        1 X8I     -0.060000
      9 C16         2.1790    0.0920    0.8820 cp        1 X8I     -0.004000
     10 C11         5.5320   -0.1110   -0.8460 ca        1 X8I     -0.094000
     11 C10         6.4090    0.0590    0.2670 ca        1 X8I      0.088700
     12 C20         0.2420   -0.5410    2.1820 ca        1 X8I      0.126100
     13 C3          7.4210   -0.2870   -2.3940 cc        1 X8I     -0.131000
     14 C2          6.0800   -0.3000   -2.1810 cd        1 X8I     -0.012300
     15 C4          8.3250   -0.0840   -1.2820 cc        1 X8I      0.015700
     16 C7          8.8950    0.2890    0.9060 c         1 X8I      0.634300
     17 C1          5.1450   -0.5090   -3.3130 c3        1 X8I     -0.064800
     18 N5          9.6650    0.0550   -1.2640 nd        1 X8I     -0.225600
     19 N6         10.0440    0.1780    0.0360 ns        1 X8I     -0.249900
     20 N9          7.7830    0.0250    0.0410 n         1 X8I     -0.138200
     21 O8          8.8820    0.4490    2.1340 o         1 X8I     -0.598500
     22 O22        -0.2290   -1.2080    3.2910 oh        1 X8I     -0.496100
     23 H18        -0.6950    1.3100   -0.5190 ha        1 X8I      0.135000
     24 H17         1.7670    1.2870   -0.8810 ha        1 X8I      0.136000
     25 H19        -1.6890    0.1400    1.4480 ha        1 X8I      0.136000
     26 H15         6.5570    0.3670    2.4240 ha        1 X8I      0.175000
     27 H12         3.4570   -0.2290   -1.4620 ha        1 X8I      0.143000
     28 H21         2.2700   -1.1040    2.7050 ha        1 X8I      0.155000
     29 H22        -1.1930   -1.1180    3.3050 ho        1 X8I      0.420000
     30 H3          7.8710   -0.4210   -3.3890 ha        1 X8I      0.166000
     31 H11C        5.6990   -0.6550   -4.2740 hc        1 X8I      0.054700
     32 H12C        4.4720    0.3780   -3.4280 hc        1 X8I      0.054700
     33 H13C        4.5130   -1.4140   -3.1310 hc        1 X8I      0.054700
     34 H6         10.8320    0.7730    0.2030 hn        1 X8I      0.344500
     35 H14         4.0960    0.3820    2.7660 ha        1 X8I      0.148000
@<TRIPOS>BOND
     1    1    2 ar  
     2    1    5 ar  
     3    1   23 1   
     4    2    9 ar  
     5    2   24 1   
     6    3    4 ar  
     7    3    8 ar  
     8    3   35 1   
     9    4   11 ar  
    10    4   26 1   
    11    5   12 ar  
    12    5   25 1   
    13    6    8 ar  
    14    6   10 ar  
    15    6   27 1   
    16    7    9 ar  
    17    7   12 ar  
    18    7   28 1   
    19    8    9 1   
    20   10   11 ar  
    21   10   14 1   
    22   11   20 1   
    23   12   22 1   
    24   13   14 2   
    25   13   15 1   
    26   13   30 1   
    27   14   17 1   
    28   15   18 2   
    29   15   20 1   
    30   16   19 1   
    31   16   20 1   
    32   16   21 2   
    33   17   31 1   
    34   17   32 1   
    35   17   33 1   
    36   18   19 1   
    37   19   34 1   
    38   22   29 1   
@<TRIPOS>SUBSTRUCTURE
     1 X8I         1 TEMP              0 ****  ****    0 ROOT
