@<TRIPOS>MOLECULE
X8I
   35    38     1     0     0
SMALL
bcc


@<TRIPOS>ATOM
      1 C18        -0.0460    0.7590    0.1690 ca        1 X8I     -0.091000
      2 C17         1.3310    0.7460   -0.0350 ca        1 X8I     -0.157000
      3 C14         4.5020    0.2770    1.7470 ca        1 X8I     -0.078000
      4 C15         5.8730    0.2730    1.5600 ca        1 X8I     -0.154000
      5 C19        -0.6050    0.1290    1.2780 ca        1 X8I     -0.210000
      6 C12         4.1490   -0.1090   -0.6120 ca        1 X8I     -0.078000
      7 C21         1.6330   -0.5390    1.9980 ca        1 X8I     -0.147000
      8 C13         3.6250    0.0880    0.6640 cp        1 X8I     -0.060000
      9 C16         2.1780    0.0980    0.8780 cp        1 X8I     -0.004000
     10 C11         5.5330   -0.1240   -0.8430 ca        1 X8I     -0.094000
     11 C10         6.4080    0.0730    0.2670 ca        1 X8I      0.088700
     12 C20         0.2420   -0.5180    2.1890 ca        1 X8I      0.126100
     13 C3          7.4250   -0.3210   -2.3860 cc        1 X8I     -0.131000
     14 C2          6.0840   -0.3370   -2.1730 cd        1 X8I     -0.012300
     15 C4          8.3260   -0.0910   -1.2770 cc        1 X8I      0.015700
     16 C7          8.8920    0.3290    0.9040 c         1 X8I      0.634300
     17 C1          5.1510   -0.5730   -3.3020 c3        1 X8I     -0.064800
     18 N5          9.6660    0.0550   -1.2600 nd        1 X8I     -0.225600
     19 N6         10.0430    0.2060    0.0370 n         1 X8I     -0.249900
     20 N9          7.7820    0.0410    0.0440 n         1 X8I     -0.138200
     21 O8          8.8780    0.5140    2.1280 o         1 X8I     -0.598500
     22 O22        -0.2270   -1.1650    3.3100 oh        1 X8I     -0.496100
     23 H18        -0.7010    1.2730   -0.5510 ha        1 X8I      0.135000
     24 H17         1.7620    1.2550   -0.9100 ha        1 X8I      0.136000
     25 H19        -1.6910    0.1380    1.4390 ha        1 X8I      0.136000
     26 H15         6.5520    0.4250    2.4170 ha        1 X8I      0.175000
     27 H12         3.4590   -0.2640   -1.4580 ha        1 X8I      0.143000
     28 H21         2.2720   -1.0600    2.7240 ha        1 X8I      0.155000
     29 H22        -1.1910   -1.0790    3.3210 ho        1 X8I      0.420000
     30 H3          7.8770   -0.4730   -3.3770 ha        1 X8I      0.166000
     31 H11C        5.7070   -0.7360   -4.2590 hc        1 X8I      0.054700
     32 H12C        4.4740    0.3080   -3.4350 hc        1 X8I      0.054700
     33 H13C        4.5230   -1.4770   -3.1020 hc        1 X8I      0.054700
     34 H6         10.8280    0.8080    0.1930 hn        1 X8I      0.344500
     35 H14         4.0910    0.4350    2.7570 ha        1 X8I      0.148000
@<TRIPOS>BOND
     1    1    2 ar  
     2    1    5 ar  
     3    1   23 1   
     4    2    9 ar  
     5    2   24 1   
     6    3    4 ar  
     7    3    8 ar  
     8    3   35 1   
     9    4   11 ar  
    10    4   26 1   
    11    5   12 ar  
    12    5   25 1   
    13    6    8 ar  
    14    6   10 ar  
    15    6   27 1   
    16    7    9 ar  
    17    7   12 ar  
    18    7   28 1   
    19    8    9 1   
    20   10   11 ar  
    21   10   14 1   
    22   11   20 1   
    23   12   22 1   
    24   13   14 2   
    25   13   15 1   
    26   13   30 1   
    27   14   17 1   
    28   15   18 2   
    29   15   20 1   
    30   16   19 1   
    31   16   20 1   
    32   16   21 2   
    33   17   31 1   
    34   17   32 1   
    35   17   33 1   
    36   18   19 1   
    37   19   34 1   
    38   22   29 1   
@<TRIPOS>SUBSTRUCTURE
     1 X8I         1 TEMP              0 ****  ****    0 ROOT
