@<TRIPOS>MOLECULE
X8M
   54    56     1     0     0
SMALL
bcc


@<TRIPOS>ATOM
      1 CAA        -0.6330    0.2750    1.0090 c3        1 X8M     -0.124100
      2 CAS         0.7390   -0.0330    0.4150 c3        1 X8M      0.139500
      3 CAB         0.9680    0.8720   -0.7920 c3        1 X8M     -0.124100
      4 NAX         1.8570    0.0350    1.4480 n4        1 X8M     -0.619800
      5 CAC         1.7460    1.2930    2.2160 c3        1 X8M      0.091100
      6 CAU         1.8310   -1.2160    2.3370 c3        1 X8M      0.145500
      7 CAN         2.7760   -1.0400    3.5260 c3        1 X8M     -0.114400
      8 CAL         2.3560   -2.3560    1.4300 c3        1 X8M     -0.097900
      9 CAM         3.2380   -1.6620    0.3910 c3        1 X8M     -0.097900
     10 CAV         3.2310   -0.1700    0.7980 c3        1 X8M      0.145500
     11 CAO         4.3510    0.0870    1.8070 c3        1 X8M     -0.114400
     12 CAT         4.2100   -0.6900    3.1190 c3        1 X8M      0.144100
     13 OAP         4.8950   -1.9500    3.0090 os        1 X8M     -0.458900
     14 CAQ         6.2520   -1.9650    3.2600 c         1 X8M      0.648100
     15 OAD         6.8040   -0.8830    3.4450 o         1 X8M     -0.523000
     16 CAW         6.8210   -3.3580    3.2260 c3        1 X8M     -0.097400
     17 CAK         8.0500   -3.3700    2.2990 c3        1 X8M      0.141400
     18 OAE         8.2440   -4.6550    1.7560 oh        1 X8M     -0.585800
     19 CAR         7.1680   -3.8130    4.6070 ca        1 X8M     -0.121300
     20 CAI         6.6920   -5.0460    5.0700 ca        1 X8M     -0.118000
     21 CAG         7.0370   -5.4930    6.3450 ca        1 X8M     -0.124500
     22 CAF         7.8530   -4.7130    7.1640 ca        1 X8M     -0.109000
     23 CAH         8.3260   -3.4820    6.7070 ca        1 X8M     -0.124500
     24 CAJ         7.9850   -3.0320    5.4330 ca        1 X8M     -0.118000
     25 HAA1       -0.8260   -0.2860    1.9540 hc        1 X8M      0.070533
     26 HAA2       -0.7550    1.3690    1.2010 hc        1 X8M      0.070533
     27 HAA3       -1.4080   -0.0340    0.2620 hc        1 X8M      0.070533
     28 HAS         0.7280   -1.1040    0.0440 hx        1 X8M      0.099700
     29 HAB1        1.7960    0.4890   -1.4360 hc        1 X8M      0.070533
     30 HAB2        1.1860    1.9260   -0.4990 hc        1 X8M      0.070533
     31 HAB3        0.0320    0.8720   -1.4070 hc        1 X8M      0.070533
     32 HAC1        2.6170    1.4310    2.9090 hx        1 X8M      0.096033
     33 HAC2        0.8060    1.2690    2.8300 hx        1 X8M      0.096033
     34 HAC3        1.7100    2.1600    1.5040 hx        1 X8M      0.096033
     35 HAU         0.7800   -1.3970    2.6890 hx        1 X8M      0.108700
     36 HAV         3.3380    0.5240   -0.0780 hx        1 X8M      0.108700
     37 HAN1        2.3880   -0.2550    4.2260 hc        1 X8M      0.092700
     38 HAN2        2.7870   -2.0120    4.0940 hc        1 X8M      0.092700
     39 HAL1        1.5130   -2.9140    0.9550 hc        1 X8M      0.090200
     40 HAL2        2.9530   -3.0800    2.0410 hc        1 X8M      0.090200
     41 HAT         4.6940   -0.0870    3.9430 h1        1 X8M      0.099700
     42 HAM1        4.2820   -2.0610    0.4180 hc        1 X8M      0.090200
     43 HAM2        2.8390   -1.7930   -0.6450 hc        1 X8M      0.090200
     44 HAO1        4.4340    1.1840    2.0290 hc        1 X8M      0.092700
     45 HAO2        5.3220   -0.2090    1.3200 hc        1 X8M      0.092700
     46 HAW         6.0450   -4.0500    2.7840 hc        1 X8M      0.097700
     47 HAK1        8.9570   -3.0170    2.8580 h1        1 X8M      0.063700
     48 HAK2        7.8750   -2.7070    1.4090 h1        1 X8M      0.063700
     49 HAE         8.5580   -5.2280    2.4670 ho        1 X8M      0.414000
     50 HAI         6.0510   -5.6680    4.4280 ha        1 X8M      0.142500
     51 HAJ         8.3530   -2.0580    5.0720 ha        1 X8M      0.142500
     52 HAG         6.6650   -6.4650    6.7030 ha        1 X8M      0.145000
     53 HAF         8.1260   -5.0690    8.1690 ha        1 X8M      0.146000
     54 HAH         8.9700   -2.8650    7.3510 ha        1 X8M      0.145000
@<TRIPOS>BOND
     1    1    2 1   
     2    1   25 1   
     3    1   26 1   
     4    1   27 1   
     5    2    3 1   
     6    2    4 1   
     7    2   28 1   
     8    3   29 1   
     9    3   30 1   
    10    3   31 1   
    11    4    5 1   
    12    4    6 1   
    13    4   10 1   
    14    5   32 1   
    15    5   33 1   
    16    5   34 1   
    17    6    7 1   
    18    6    8 1   
    19    6   35 1   
    20    7   12 1   
    21    7   37 1   
    22    7   38 1   
    23    8    9 1   
    24    8   39 1   
    25    8   40 1   
    26    9   10 1   
    27    9   42 1   
    28    9   43 1   
    29   10   11 1   
    30   10   36 1   
    31   11   12 1   
    32   11   44 1   
    33   11   45 1   
    34   12   13 1   
    35   12   41 1   
    36   13   14 1   
    37   14   15 2   
    38   14   16 1   
    39   16   17 1   
    40   16   19 1   
    41   16   46 1   
    42   17   18 1   
    43   17   47 1   
    44   17   48 1   
    45   18   49 1   
    46   19   20 ar  
    47   19   24 ar  
    48   20   21 ar  
    49   20   50 1   
    50   21   22 ar  
    51   21   52 1   
    52   22   23 ar  
    53   22   53 1   
    54   23   24 ar  
    55   23   54 1   
    56   24   51 1   
@<TRIPOS>SUBSTRUCTURE
     1 X8M         1 TEMP              0 ****  ****    0 ROOT
