@<TRIPOS>MOLECULE
X8M
   54    56     1     0     0
SMALL
bcc


@<TRIPOS>ATOM
      1 CAA        -0.6290    0.3010    1.0390 c3        1 X8M     -0.124100
      2 CAS         0.7270   -0.0440    0.4300 c3        1 X8M      0.139500
      3 CAB         0.9480    0.8230   -0.8050 c3        1 X8M     -0.124100
      4 NAX         1.8640    0.0370    1.4410 n4        1 X8M     -0.619800
      5 CAC         1.7850    1.3180    2.1750 c3        1 X8M      0.091100
      6 CAU         1.8360   -1.1880    2.3660 c3        1 X8M      0.145500
      7 CAN         2.8050   -0.9930    3.5330 c3        1 X8M     -0.114400
      8 CAL         2.3280   -2.3610    1.4830 c3        1 X8M     -0.097900
      9 CAM         3.2020   -1.7090    0.4090 c3        1 X8M     -0.097900
     10 CAV         3.2230   -0.2070    0.7740 c3        1 X8M      0.145500
     11 CAO         4.3650    0.0620    1.7560 c3        1 X8M     -0.114400
     12 CAT         4.2360   -0.6750    3.0920 c3        1 X8M      0.144100
     13 OAP         4.9010   -1.9480    3.0060 os        1 X8M     -0.458900
     14 CAQ         6.2610   -1.9760    3.2350 c         1 X8M      0.648100
     15 OAD         6.8330   -0.8970    3.3790 o         1 X8M     -0.523000
     16 CAW         6.8100   -3.3780    3.2300 c3        1 X8M     -0.097400
     17 CAK         8.0240   -3.4340    2.2840 c3        1 X8M      0.141400
     18 OAE         8.1900   -4.7360    1.7750 oh        1 X8M     -0.585800
     19 CAR         7.1730   -3.7990    4.6180 ca        1 X8M     -0.121300
     20 CAI         6.6880   -5.0110    5.1230 ca        1 X8M     -0.118000
     21 CAG         7.0480   -5.4270    6.4040 ca        1 X8M     -0.124500
     22 CAF         7.8880   -4.6370    7.1880 ca        1 X8M     -0.109000
     23 CAH         8.3700   -3.4260    6.6890 ca        1 X8M     -0.124500
     24 CAJ         8.0150   -3.0070    5.4080 ca        1 X8M     -0.118000
     25 HAA1       -1.4210   -0.0170    0.3140 hc        1 X8M      0.070533
     26 HAA2       -0.8130   -0.2300    2.0030 hc        1 X8M      0.070533
     27 HAA3       -0.7320    1.4010    1.2020 hc        1 X8M      0.070533
     28 HAS         0.6960   -1.1240    0.0900 hx        1 X8M      0.099700
     29 HAB1        1.7590    0.4110   -1.4530 hc        1 X8M      0.070533
     30 HAB2        1.1860    1.8830   -0.5470 hc        1 X8M      0.070533
     31 HAB3        0.0010    0.8200   -1.4040 hc        1 X8M      0.070533
     32 HAC1        0.8560    1.3250    2.8060 hx        1 X8M      0.096033
     33 HAC2        1.7500    2.1650    1.4390 hx        1 X8M      0.096033
     34 HAC3        2.6700    1.4620    2.8490 hx        1 X8M      0.096033
     35 HAU         0.7890   -1.3430    2.7410 hx        1 X8M      0.108700
     36 HAV         3.3260    0.4600   -0.1230 hx        1 X8M      0.108700
     37 HAN1        2.8110   -1.9480    4.1280 hc        1 X8M      0.092700
     38 HAN2        2.4400   -0.1830    4.2180 hc        1 X8M      0.092700
     39 HAL1        1.4700   -2.9200    1.0390 hc        1 X8M      0.090200
     40 HAL2        2.9260   -3.0760    2.1040 hc        1 X8M      0.090200
     41 HAT         4.7420   -0.0570    3.8900 h1        1 X8M      0.099700
     42 HAM1        2.7840   -1.8630   -0.6160 hc        1 X8M      0.090200
     43 HAM2        4.2410   -2.1230    0.4300 hc        1 X8M      0.090200
     44 HAO1        4.4670    1.1630    1.9450 hc        1 X8M      0.092700
     45 HAO2        5.3220   -0.2620    1.2610 hc        1 X8M      0.092700
     46 HAW         6.0170   -4.0710    2.8210 hc        1 X8M      0.097700
     47 HAK1        8.9440   -3.0780    2.8180 h1        1 X8M      0.063700
     48 HAK2        7.8420   -2.7940    1.3780 h1        1 X8M      0.063700
     49 HAE         8.5070   -5.2930    2.4970 ho        1 X8M      0.414000
     50 HAI         6.0270   -5.6420    4.5090 ha        1 X8M      0.142500
     51 HAJ         8.3900   -2.0480    5.0140 ha        1 X8M      0.142500
     52 HAG         6.6680   -6.3830    6.7950 ha        1 X8M      0.145000
     53 HAF         8.1720   -4.9680    8.1980 ha        1 X8M      0.146000
     54 HAH         9.0340   -2.8010    7.3050 ha        1 X8M      0.145000
@<TRIPOS>BOND
     1    1    2 1   
     2    1   25 1   
     3    1   26 1   
     4    1   27 1   
     5    2    3 1   
     6    2    4 1   
     7    2   28 1   
     8    3   29 1   
     9    3   30 1   
    10    3   31 1   
    11    4    5 1   
    12    4    6 1   
    13    4   10 1   
    14    5   32 1   
    15    5   33 1   
    16    5   34 1   
    17    6    7 1   
    18    6    8 1   
    19    6   35 1   
    20    7   12 1   
    21    7   37 1   
    22    7   38 1   
    23    8    9 1   
    24    8   39 1   
    25    8   40 1   
    26    9   10 1   
    27    9   42 1   
    28    9   43 1   
    29   10   11 1   
    30   10   36 1   
    31   11   12 1   
    32   11   44 1   
    33   11   45 1   
    34   12   13 1   
    35   12   41 1   
    36   13   14 1   
    37   14   15 2   
    38   14   16 1   
    39   16   17 1   
    40   16   19 1   
    41   16   46 1   
    42   17   18 1   
    43   17   47 1   
    44   17   48 1   
    45   18   49 1   
    46   19   20 ar  
    47   19   24 ar  
    48   20   21 ar  
    49   20   50 1   
    50   21   22 ar  
    51   21   52 1   
    52   22   23 ar  
    53   22   53 1   
    54   23   24 ar  
    55   23   54 1   
    56   24   51 1   
@<TRIPOS>SUBSTRUCTURE
     1 X8M         1 TEMP              0 ****  ****    0 ROOT
