@<TRIPOS>MOLECULE
X8M
   54    56     1     0     0
SMALL
bcc


@<TRIPOS>ATOM
      1 CAA        -0.5920   -0.2000    0.9360 c3        1 X8M     -0.124100
      2 CAS         0.8010    0.0190    0.3540 c3        1 X8M      0.139500
      3 CAB         0.7750    1.2620   -0.5320 c3        1 X8M     -0.124100
      4 NAX         1.9010    0.0700    1.4070 n4        1 X8M     -0.619800
      5 CAC         1.8540    1.3700    2.1090 c3        1 X8M      0.091100
      6 CAU         1.8310   -1.1400    2.3460 c3        1 X8M      0.145000
      7 CAN         2.8120   -0.9860    3.5110 c3        1 X8M     -0.114900
      8 CAL         2.2710   -2.3320    1.4630 c3        1 X8M     -0.097400
      9 CAM         3.2420   -1.7290    0.4460 c3        1 X8M     -0.097400
     10 CAV         3.2650   -0.2140    0.7610 c3        1 X8M      0.145000
     11 CAO         4.3880    0.0820    1.7560 c3        1 X8M     -0.114900
     12 CAT         4.2470   -0.6680    3.0830 c3        1 X8M      0.144100
     13 OAP         4.9080   -1.9430    2.9890 os        1 X8M     -0.458900
     14 CAQ         6.2660   -1.9790    3.2330 c         1 X8M      0.648100
     15 OAD         6.8400   -0.9040    3.3970 o         1 X8M     -0.523000
     16 CAW         6.8090   -3.3830    3.2190 c3        1 X8M     -0.097400
     17 CAK         8.0350   -3.4320    2.2880 c3        1 X8M      0.141400
     18 OAE         8.2020   -4.7290    1.7650 oh        1 X8M     -0.584800
     19 CAR         7.1520   -3.8220    4.6060 ca        1 X8M     -0.121300
     20 CAI         6.6550   -5.0370    5.0900 ca        1 X8M     -0.118000
     21 CAG         6.9950   -5.4700    6.3710 ca        1 X8M     -0.124500
     22 CAF         7.8300   -4.6930    7.1750 ca        1 X8M     -0.109000
     23 CAH         8.3240   -3.4790    6.6960 ca        1 X8M     -0.124500
     24 CAJ         7.9870   -3.0430    5.4160 ca        1 X8M     -0.118000
     25 HAA1       -1.3370   -0.0650    0.1110 hc        1 X8M      0.070867
     26 HAA2       -0.7090   -1.2380    1.3310 hc        1 X8M      0.070867
     27 HAA3       -0.8370    0.5310    1.7430 hc        1 X8M      0.070867
     28 HAS         1.0440   -0.8740   -0.3000 hx        1 X8M      0.099700
     29 HAB1        0.3410    2.1370    0.0100 hc        1 X8M      0.070867
     30 HAB2        0.1220    1.0400   -1.4150 hc        1 X8M      0.070867
     31 HAB3        1.7870    1.5350   -0.9160 hc        1 X8M      0.070867
     32 HAC1        0.8170    1.5420    2.5020 hx        1 X8M      0.096367
     33 HAC2        2.5760    1.4000    2.9670 hx        1 X8M      0.096367
     34 HAC3        2.1270    2.1880    1.3900 hx        1 X8M      0.096367
     35 HAU         0.7860   -1.2490    2.7400 hx        1 X8M      0.108700
     36 HAV         3.3750    0.4150   -0.1620 hx        1 X8M      0.108700
     37 HAN1        2.4550   -0.1970    4.2240 hc        1 X8M      0.092700
     38 HAN2        2.8110   -1.9590    4.0770 hc        1 X8M      0.092700
     39 HAL1        1.3890   -2.8040    0.9660 hc        1 X8M      0.090200
     40 HAL2        2.7790   -3.1060    2.0930 hc        1 X8M      0.090200
     41 HAT         4.7500   -0.0590    3.8910 h1        1 X8M      0.099700
     42 HAM1        4.2690   -2.1590    0.5720 hc        1 X8M      0.090200
     43 HAM2        2.9150   -1.9190   -0.6060 hc        1 X8M      0.090200
     44 HAO1        5.3610   -0.2170    1.2760 hc        1 X8M      0.092700
     45 HAO2        4.4560    1.1840    1.9540 hc        1 X8M      0.092700
     46 HAW         6.0190   -4.0670    2.7910 hc        1 X8M      0.097700
     47 HAK1        8.9490   -3.0880    2.8390 h1        1 X8M      0.063700
     48 HAK2        7.8680   -2.7810    1.3880 h1        1 X8M      0.063700
     49 HAE         8.5080   -5.2960    2.4840 ho        1 X8M      0.414000
     50 HAI         5.9990   -5.6570    4.4600 ha        1 X8M      0.142500
     51 HAJ         8.3720   -2.0820    5.0380 ha        1 X8M      0.142500
     52 HAG         6.6060   -6.4290    6.7460 ha        1 X8M      0.145000
     53 HAF         8.0990   -5.0370    8.1850 ha        1 X8M      0.146000
     54 HAH         8.9820   -2.8640    7.3280 ha        1 X8M      0.145000
@<TRIPOS>BOND
     1    1    2 1   
     2    1   25 1   
     3    1   26 1   
     4    1   27 1   
     5    2    3 1   
     6    2    4 1   
     7    2   28 1   
     8    3   29 1   
     9    3   30 1   
    10    3   31 1   
    11    4    5 1   
    12    4    6 1   
    13    4   10 1   
    14    5   32 1   
    15    5   33 1   
    16    5   34 1   
    17    6    7 1   
    18    6    8 1   
    19    6   35 1   
    20    7   12 1   
    21    7   37 1   
    22    7   38 1   
    23    8    9 1   
    24    8   39 1   
    25    8   40 1   
    26    9   10 1   
    27    9   42 1   
    28    9   43 1   
    29   10   11 1   
    30   10   36 1   
    31   11   12 1   
    32   11   44 1   
    33   11   45 1   
    34   12   13 1   
    35   12   41 1   
    36   13   14 1   
    37   14   15 2   
    38   14   16 1   
    39   16   17 1   
    40   16   19 1   
    41   16   46 1   
    42   17   18 1   
    43   17   47 1   
    44   17   48 1   
    45   18   49 1   
    46   19   20 ar  
    47   19   24 ar  
    48   20   21 ar  
    49   20   50 1   
    50   21   22 ar  
    51   21   52 1   
    52   22   23 ar  
    53   22   53 1   
    54   23   24 ar  
    55   23   54 1   
    56   24   51 1   
@<TRIPOS>SUBSTRUCTURE
     1 X8M         1 TEMP              0 ****  ****    0 ROOT
