@<TRIPOS>MOLECULE
X8M
   54    54     1     0     0
SMALL
bcc


@<TRIPOS>ATOM
      1 CAA        -2.9960   -0.5900   -3.9160 c3        1 X8M     -0.242000
      2 CAS        -1.4790   -0.4970   -3.9080 c3        1 X8M     -0.059000
      3 CAB        -1.0450    0.7830   -4.6120 c3        1 X8M     -0.242000
      4 NAX        -1.0010   -0.4830   -2.5390 n4        1 X8M      0.015000
      5 CAC        -1.4970    0.7870   -1.8590 c3        1 X8M     -0.188000
      6 CAU        -1.5190   -1.5540   -1.8840 c3        1 X8M     -0.051000
      7 CAN        -1.1840   -1.6550   -0.4240 c3        1 X8M     -0.200500
      8 CAL        -0.7540   -2.6730   -2.5760 c3        1 X8M     -0.181500
      9 CAM         0.5910   -1.8860   -3.0670 c3        1 X8M     -0.181500
     10 CAV         0.3170   -0.4640   -2.5500 c3        1 X8M     -0.051000
     11 CAO         0.9900   -0.3700   -1.1980 c3        1 X8M     -0.200500
     12 CAT         0.1880   -1.0180   -0.0180 c3        1 X8M      0.036000
     13 OAP        -0.0510   -0.0350    0.9440 os        1 X8M     -0.284000
     14 CAQ         0.9870    0.0780    1.9290 c2        1 X8M      0.331000
     15 OAD         2.1500    0.1390    1.5810 o         1 X8M     -0.344000
     16 CAW         0.6260    0.2070    3.4060 c3        1 X8M     -0.050000
     17 CAK         1.2320   -0.9390    4.1740 c3        1 X8M     -0.015000
     18 OAE         0.6470   -2.1520    3.7490 oh        1 X8M     -0.341000
     19 CAR         1.1620    1.5160    3.9450 c2        1 X8M     -0.109000
     20 CAI         0.3300    2.3610    4.6650 c2        1 X8M     -0.113000
     21 CAG         0.8450    3.5080    5.2510 c1        1 X8M     -0.128000
     22 CAF         2.1900    3.8110    5.1170 c1        1 X8M     -0.118500
     23 CAH         3.0220    2.9670    4.3980 c1        1 X8M     -0.118500
     24 CAJ         2.5080    1.8190    3.8120 c1        1 X8M     -0.119000
     25 HAA1       -3.3630    0.0250   -3.2480 hc        1 X8M      0.109833
     26 HAA2       -3.3340   -0.3470   -4.8060 hc        1 X8M      0.109833
     27 HAA3       -3.2690   -1.5070   -3.7010 hc        1 X8M      0.109833
     28 HAS        -1.1040   -1.2680   -4.3750 hx        1 X8M      0.137000
     29 HAB1       -1.6080    0.9270   -5.4080 hc        1 X8M      0.109833
     30 HAB2       -0.1060    0.7030   -4.8860 hc        1 X8M      0.109833
     31 HAB3       -1.1440    1.5430   -3.9990 hc        1 X8M      0.109833
     32 HAC1       -1.7480    0.5860   -0.9320 hx        1 X8M      0.138667
     33 HAC2       -0.7850    1.4610   -1.8670 hx        1 X8M      0.138667
     34 HAC3       -2.2760    1.1310   -2.3400 hx        1 X8M      0.138667
     35 HAU        -2.4810   -1.6360   -2.0380 hx        1 X8M      0.149500
     36 HAV         0.6590    0.2070   -3.1690 hx        1 X8M      0.149500
     37 HAN1       -1.8930   -1.2130    0.0860 hc        1 X8M      0.134500
     38 HAN2       -1.1690   -2.6030   -0.1770 hc        1 X8M      0.134500
     39 HAL1       -0.5320   -3.3860   -1.9470 hc        1 X8M      0.127500
     40 HAL2       -1.2560   -3.0200   -3.3410 hc        1 X8M      0.127500
     41 HAT         0.7430   -1.7150    0.3840 h1        1 X8M      0.129000
     42 HAM1        0.6670   -1.8970   -4.0440 hc        1 X8M      0.127500
     43 HAM2        1.3900   -2.2630   -2.6470 hc        1 X8M      0.127500
     44 HAO1        1.8630   -0.8120   -1.2560 hc        1 X8M      0.134500
     45 HAO2        1.1340    0.5720   -0.9910 hc        1 X8M      0.134500
     46 HAW        -0.3440    0.1880    3.5070 hc        1 X8M      0.143000
     47 HAK1        1.0670   -0.8140    5.1330 h1        1 X8M      0.093000
     48 HAK2        2.1990   -0.9670    4.0090 h1        1 X8M      0.093000
     49 HAE         1.1760   -2.8330    3.9750 ho        1 X8M      0.219000
     50 HAI        -0.6160    2.1490    4.7590 ha        1 X8M      0.136000
     51 HAJ         3.0920    1.2270    3.3070 ha        1 X8M      0.150000
     52 HAG         0.2590    4.1020    5.7570 ha        1 X8M      0.143000
     53 HAF         2.5520    4.6180    5.5290 ha        1 X8M      0.144000
     54 HAH         3.9690    3.1800    4.3040 ha        1 X8M      0.144000
@<TRIPOS>BOND
     1    1    2 1   
     2    1   25 1   
     3    1   26 1   
     4    1   27 1   
     5    2    3 1   
     6    2    4 1   
     7    2   28 1   
     8    3   29 1   
     9    3   30 1   
    10    3   31 1   
    11    4    5 1   
    12    4    6 1   
    13    4   10 1   
    14    5   32 1   
    15    5   33 1   
    16    5   34 1   
    17    6    7 1   
    18    6    8 1   
    19    6   35 1   
    20    7   12 1   
    21    7   37 1   
    22    7   38 1   
    23    8    9 1   
    24    8   39 1   
    25    8   40 1   
    26    9   10 1   
    27    9   42 1   
    28    9   43 1   
    29   10   11 1   
    30   10   36 1   
    31   11   12 1   
    32   11   44 1   
    33   11   45 1   
    34   12   13 1   
    35   12   41 1   
    36   13   14 1   
    37   14   15 1   
    38   14   16 1   
    39   16   17 1   
    40   16   19 1   
    41   16   46 1   
    42   17   18 1   
    43   17   47 1   
    44   17   48 1   
    45   18   49 1   
    46   19   20 1   
    47   19   24 1   
    48   20   21 1   
    49   20   50 1   
    50   21   52 1   
    51   22   23 1   
    52   22   53 1   
    53   23   54 1   
    54   24   51 1   
@<TRIPOS>SUBSTRUCTURE
     1 X8M         1 TEMP              0 ****  ****    0 ROOT
