@<TRIPOS>MOLECULE
X8M
   54    56     1     0     0
SMALL
bcc


@<TRIPOS>ATOM
      1 CAA        -5.8000   -0.2970   -1.3810 c3        1 X8M     -0.124100
      2 CAS        -4.9320    0.4450   -0.3680 c3        1 X8M      0.139500
      3 CAB        -5.7840    0.7960    0.8470 c3        1 X8M     -0.124100
      4 NAX        -3.6570   -0.3110   -0.0190 n4        1 X8M     -0.619800
      5 CAC        -3.9870   -1.7150    0.3080 c3        1 X8M      0.091100
      6 CAU        -2.6380   -0.1840   -1.1620 c3        1 X8M      0.145500
      7 CAN        -1.4670   -1.1410   -0.9350 c3        1 X8M     -0.114400
      8 CAL        -2.1310    1.2760   -1.0760 c3        1 X8M     -0.097900
      9 CAM        -2.3230    1.6790    0.3870 c3        1 X8M     -0.097900
     10 CAV        -2.8640    0.4060    1.0800 c3        1 X8M      0.145500
     11 CAO        -1.6900   -0.4540    1.5520 c3        1 X8M     -0.114400
     12 CAT        -0.7870   -0.9620    0.4250 c3        1 X8M      0.144100
     13 OAP         0.2780   -0.0210    0.2000 os        1 X8M     -0.458900
     14 CAQ         1.3950   -0.1130    1.0040 c         1 X8M      0.648100
     15 OAD         1.3570   -0.9150    1.9340 o         1 X8M     -0.523000
     16 CAW         2.4760    0.8490    0.5880 c3        1 X8M     -0.097400
     17 CAK         2.9380    1.6420    1.8240 c3        1 X8M      0.141400
     18 OAE         3.4490    2.8970    1.4400 oh        1 X8M     -0.585800
     19 CAR         3.6100    0.1130   -0.0500 ca        1 X8M     -0.121300
     20 CAI         4.0870    0.5240   -1.3000 ca        1 X8M     -0.118000
     21 CAG         5.1650   -0.1360   -1.8880 ca        1 X8M     -0.124500
     22 CAF         5.7700   -1.2100   -1.2340 ca        1 X8M     -0.109000
     23 CAH         5.2940   -1.6250    0.0100 ca        1 X8M     -0.124500
     24 CAJ         4.2180   -0.9670    0.6020 ca        1 X8M     -0.118000
     25 HAA1       -6.5710    0.4200   -1.7630 hc        1 X8M      0.070533
     26 HAA2       -5.2150   -0.6680   -2.2560 hc        1 X8M      0.070533
     27 HAA3       -6.3320   -1.1560   -0.9060 hc        1 X8M      0.070533
     28 HAS        -4.5920    1.4170   -0.8420 hx        1 X8M      0.099700
     29 HAB1       -6.0020   -0.0920    1.4870 hc        1 X8M      0.070533
     30 HAB2       -5.3010    1.5890    1.4690 hc        1 X8M      0.070533
     31 HAB3       -6.7610    1.2030    0.4800 hc        1 X8M      0.070533
     32 HAC1       -4.3680   -2.2290   -0.6150 hx        1 X8M      0.096033
     33 HAC2       -3.0870   -2.2730    0.6780 hx        1 X8M      0.096033
     34 HAC3       -4.7770   -1.7340    1.1050 hx        1 X8M      0.096033
     35 HAU        -3.1480   -0.4060   -2.1360 hx        1 X8M      0.108700
     36 HAV        -3.5430    0.6340    1.9440 hx        1 X8M      0.108700
     37 HAN1       -1.8000   -2.2060   -1.0440 hc        1 X8M      0.092700
     38 HAN2       -0.7120   -0.9470   -1.7470 hc        1 X8M      0.092700
     39 HAL1       -1.0480    1.3170   -1.3630 hc        1 X8M      0.090200
     40 HAL2       -2.6990    1.9420   -1.7700 hc        1 X8M      0.090200
     41 HAT        -0.3360   -1.9460    0.7470 h1        1 X8M      0.099700
     42 HAM1       -1.3530    1.9840    0.8510 hc        1 X8M      0.090200
     43 HAM2       -3.0450    2.5260    0.4920 hc        1 X8M      0.090200
     44 HAO1       -1.0700    0.1720    2.2520 hc        1 X8M      0.092700
     45 HAO2       -2.0610   -1.3240    2.1550 hc        1 X8M      0.092700
     46 HAW         2.0380    1.5810   -0.1520 hc        1 X8M      0.097700
     47 HAK1        2.0610    1.8820    2.4840 h1        1 X8M      0.063700
     48 HAK2        3.6930    1.0470    2.4020 h1        1 X8M      0.063700
     49 HAE         4.2980    2.7440    1.0050 ho        1 X8M      0.414000
     50 HAI         3.6170    1.3730   -1.8190 ha        1 X8M      0.142500
     51 HAJ         3.8370   -1.2970    1.5830 ha        1 X8M      0.142500
     52 HAG         5.5400    0.1940   -2.8680 ha        1 X8M      0.145000
     53 HAF         6.6220   -1.7290   -1.6990 ha        1 X8M      0.146000
     54 HAH         5.7700   -2.4720    0.5280 ha        1 X8M      0.145000
@<TRIPOS>BOND
     1    1    2 1   
     2    1   25 1   
     3    1   26 1   
     4    1   27 1   
     5    2    3 1   
     6    2    4 1   
     7    2   28 1   
     8    3   29 1   
     9    3   30 1   
    10    3   31 1   
    11    4    5 1   
    12    4    6 1   
    13    4   10 1   
    14    5   32 1   
    15    5   33 1   
    16    5   34 1   
    17    6    7 1   
    18    6    8 1   
    19    6   35 1   
    20    7   12 1   
    21    7   37 1   
    22    7   38 1   
    23    8    9 1   
    24    8   39 1   
    25    8   40 1   
    26    9   10 1   
    27    9   42 1   
    28    9   43 1   
    29   10   11 1   
    30   10   36 1   
    31   11   12 1   
    32   11   44 1   
    33   11   45 1   
    34   12   13 1   
    35   12   41 1   
    36   13   14 1   
    37   14   15 2   
    38   14   16 1   
    39   16   17 1   
    40   16   19 1   
    41   16   46 1   
    42   17   18 1   
    43   17   47 1   
    44   17   48 1   
    45   18   49 1   
    46   19   20 ar  
    47   19   24 ar  
    48   20   21 ar  
    49   20   50 1   
    50   21   22 ar  
    51   21   52 1   
    52   22   23 ar  
    53   22   53 1   
    54   23   24 ar  
    55   23   54 1   
    56   24   51 1   
@<TRIPOS>SUBSTRUCTURE
     1 X8M         1 TEMP              0 ****  ****    0 ROOT
