@<TRIPOS>MOLECULE
X8U
   67    72     1     0     0
SMALL
bcc


@<TRIPOS>ATOM
      1 O2         -1.0180    0.4390   -0.3520 o         1 X8U     -0.813300
      2 C20        -0.0780   -0.3920   -0.2080 c         1 X8U      0.844100
      3 O1          0.0850   -1.1280    0.7960 o         1 X8U     -0.813300
      4 C19         0.9460   -0.5140   -1.3470 cc        1 X8U      0.307800
      5 N4          0.5320   -0.5050   -2.6630 nc        1 X8U     -0.605000
      6 C21         2.3300   -0.6300   -1.1800 cd        1 X8U     -0.117700
      7 C22         3.0350   -0.6610    0.1090 c3        1 X8U     -0.030100
      8 C23         4.1470   -1.6920    0.1470 c3        1 X8U     -0.076400
      9 C24         4.8890   -1.6300    1.4650 c3        1 X8U     -0.076400
     10 C25         5.9600   -2.7030    1.5360 c3        1 X8U     -0.038100
     11 C26         6.6890   -2.6770    2.8330 ca        1 X8U     -0.072300
     12 C31         6.0350   -3.0470    4.0160 ca        1 X8U     -0.128500
     13 C30         6.7170   -3.0350    5.2310 ca        1 X8U     -0.129500
     14 C29         8.0580   -2.6550    5.2780 ca        1 X8U     -0.137000
     15 C28         8.7150   -2.2870    4.1040 ca        1 X8U     -0.129500
     16 C27         8.0350   -2.2970    2.8880 ca        1 X8U     -0.128500
     17 S2          3.0980   -0.7140   -2.6910 ss        1 X8U     -0.164300
     18 C18         1.5870   -0.6010   -3.4940 cd        1 X8U      0.363900
     19 C15         1.4220   -0.5490   -4.9370 ca        1 X8U     -0.089500
     20 C16         2.4230   -0.0730   -5.7930 ca        1 X8U     -0.079000
     21 C17         2.1450    0.1700   -7.1400 ca        1 X8U     -0.140000
     22 C12         0.8600   -0.0180   -7.6560 ca        1 X8U     -0.046300
     23 C11         0.5420    0.4370   -9.0350 c3        1 X8U     -0.044100
     24 C10        -0.9280    0.3610   -9.4050 c3        1 X8U     -0.070400
     25 C9         -1.8560    0.5000   -8.2080 c3        1 X8U     -0.177700
     26 C14         0.1690   -0.8780   -5.4790 ca        1 X8U     -0.024000
     27 C13        -0.1230   -0.5720   -6.8140 ca        1 X8U     -0.199900
     28 C8         -1.5260   -0.6050   -7.2430 ce        1 X8U      0.579900
     29 N3         -2.3090   -1.5430   -6.7520 n2        1 X8U     -0.558400
     30 N2         -3.7020   -1.4010   -6.6690 n4        1 X8U     -0.355100
     31 C7         -4.1330   -1.0240   -5.3030 cc        1 X8U      0.303100
     32 S1         -5.6560   -1.5550   -4.6510 ss        1 X8U     -0.007100
     33 C4         -5.2380   -0.9070   -3.1370 ca        1 X8U     -0.054100
     34 C3         -5.9190   -0.9350   -1.9270 ca        1 X8U     -0.124000
     35 C2         -5.2970   -0.4180   -0.7890 ca        1 X8U     -0.073000
     36 N1         -3.3370   -0.3550   -4.4650 nd        1 X8U     -0.418100
     37 C5         -3.9300   -0.2990   -3.2100 ca        1 X8U      0.045400
     38 C6         -3.3120    0.2060   -2.0460 ca        1 X8U      0.007000
     39 C1         -4.0080    0.1260   -0.8450 ca        1 X8U     -0.107000
     40 H221        2.2790   -0.8890    0.9200 hc        1 X8U      0.086200
     41 H222        3.4600    0.3580    0.3250 hc        1 X8U      0.086200
     42 H231        4.8640   -1.5150   -0.6990 hc        1 X8U      0.037200
     43 H232        3.7120   -2.7160    0.0080 hc        1 X8U      0.037200
     44 H241        5.3590   -0.6190    1.5890 hc        1 X8U      0.049200
     45 H242        4.1640   -1.7660    2.3110 hc        1 X8U      0.049200
     46 H251        6.6810   -2.5640    0.6860 hc        1 X8U      0.045700
     47 H252        5.4820   -3.7110    1.4030 hc        1 X8U      0.045700
     48 H31         4.9760   -3.3440    3.9790 ha        1 X8U      0.132500
     49 H27         8.5580   -2.0040    1.9650 ha        1 X8U      0.132500
     50 H30         6.1940   -3.3250    6.1540 ha        1 X8U      0.127500
     51 H29         8.5950   -2.6460    6.2370 ha        1 X8U      0.127000
     52 H28         9.7730   -1.9860    4.1380 ha        1 X8U      0.127500
     53 H16         3.4280    0.1420   -5.3950 ha        1 X8U      0.152000
     54 H14        -0.6030   -1.3130   -4.8190 ha        1 X8U      0.186000
     55 H17         2.9390    0.5590   -7.7950 ha        1 X8U      0.141000
     56 H111        1.1350   -0.1710   -9.7710 hc        1 X8U      0.067200
     57 H112        0.8910    1.5020   -9.1370 hc        1 X8U      0.067200
     58 H101       -1.1670    1.1770  -10.1370 hc        1 X8U      0.056200
     59 H102       -1.1360   -0.6160   -9.9160 hc        1 X8U      0.056200
     60 H91C       -1.6880    1.4890   -7.6990 hc        1 X8U      0.072700
     61 H92C       -2.9190    0.4770   -8.5600 hc        1 X8U      0.072700
     62 HA         -4.0850   -2.3450   -6.8500 hn        1 X8U      0.442300
     63 H3         -6.9230   -1.3780   -1.8580 ha        1 X8U      0.142000
     64 HB         -5.8250   -0.4610    0.1770 ha        1 X8U      0.148000
     65 H1         -3.4860    0.4670    0.0710 ha        1 X8U      0.205000
     66 H6         -2.2700    0.6010   -2.0570 ha        1 X8U      0.241000
     67 H22        -4.1200   -0.7260   -7.3290 hn        1 X8U      0.442300
@<TRIPOS>BOND
     1    1    2 1   
     2    2    3 1   
     3    2    4 1   
     4    4    5 1   
     5    4    6 2   
     6    5   18 2   
     7    6    7 1   
     8    6   17 1   
     9    7    8 1   
    10    7   40 1   
    11    7   41 1   
    12    8    9 1   
    13    8   42 1   
    14    8   43 1   
    15    9   10 1   
    16    9   44 1   
    17    9   45 1   
    18   10   11 1   
    19   10   46 1   
    20   10   47 1   
    21   11   12 ar  
    22   11   16 ar  
    23   12   13 ar  
    24   12   48 1   
    25   13   14 ar  
    26   13   50 1   
    27   14   15 ar  
    28   14   51 1   
    29   15   16 ar  
    30   15   52 1   
    31   16   49 1   
    32   17   18 1   
    33   18   19 1   
    34   19   20 ar  
    35   19   26 ar  
    36   20   21 ar  
    37   20   53 1   
    38   21   22 ar  
    39   21   55 1   
    40   22   23 1   
    41   22   27 ar  
    42   23   24 1   
    43   23   56 1   
    44   23   57 1   
    45   24   25 1   
    46   24   58 1   
    47   24   59 1   
    48   25   28 1   
    49   25   60 1   
    50   25   61 1   
    51   26   27 ar  
    52   26   54 1   
    53   27   28 1   
    54   28   29 2   
    55   29   30 1   
    56   30   31 1   
    57   30   62 1   
    58   30   67 1   
    59   31   32 1   
    60   31   36 2   
    61   32   33 1   
    62   33   34 ar  
    63   33   37 ar  
    64   34   35 ar  
    65   34   63 1   
    66   35   39 ar  
    67   35   64 1   
    68   36   37 1   
    69   37   38 ar  
    70   38   39 ar  
    71   38   66 1   
    72   39   65 1   
@<TRIPOS>SUBSTRUCTURE
     1 X8U         1 TEMP              0 ****  ****    0 ROOT
