@<TRIPOS>MOLECULE
X8U
   66    71     1     0     0
SMALL
bcc


@<TRIPOS>ATOM
      1 O2         -1.9070    2.3840    0.8790 o         1 X8U     -0.805800
      2 C20        -2.2650    1.5660   -0.0030 c         1 X8U      0.841100
      3 O1         -2.9050    1.8370   -1.0530 o         1 X8U     -0.805800
      4 C19        -1.9310    0.0840    0.2400 cc        1 X8U      0.333800
      5 N4         -0.6730   -0.4280   -0.0320 nc        1 X8U     -0.595000
      6 C21        -2.8400   -0.8410    0.7530 cd        1 X8U     -0.157700
      7 C22        -4.2340   -0.5650    1.1300 c3        1 X8U      0.010900
      8 C23        -5.1090   -0.3350   -0.0890 c3        1 X8U     -0.099400
      9 C24        -6.5100    0.0660    0.3190 c3        1 X8U     -0.067400
     10 C25        -7.3680    0.3350   -0.9040 c3        1 X8U     -0.045100
     11 C26        -8.7260    0.8220   -0.5350 ca        1 X8U     -0.060300
     12 C31        -8.8900    2.1110   -0.0100 ca        1 X8U     -0.129500
     13 C30       -10.1590    2.5760    0.3290 ca        1 X8U     -0.134000
     14 C29       -11.2770    1.7610    0.1470 ca        1 X8U     -0.147000
     15 C28       -11.1200    0.4780   -0.3750 ca        1 X8U     -0.134000
     16 C27        -9.8510    0.0100   -0.7150 ca        1 X8U     -0.129500
     17 S2         -2.1110   -2.3630    0.9000 ss        1 X8U     -0.240300
     18 C18        -0.6240   -1.7300    0.2750 cd        1 X8U      0.418900
     19 C15         0.5420   -2.5850    0.1290 ca        1 X8U     -0.097500
     20 C16         0.4030   -3.9780    0.2050 ca        1 X8U     -0.120000
     21 C17         1.5150   -4.8010    0.0660 ca        1 X8U     -0.140000
     22 C12         2.7840   -4.2570   -0.1430 ca        1 X8U     -0.074300
     23 C11         3.9550   -5.1540   -0.3190 c3        1 X8U     -0.034100
     24 C10         4.9210   -4.5530   -1.3170 c3        1 X8U     -0.069400
     25 C9          5.3940   -3.1930   -0.8570 c3        1 X8U     -0.150700
     26 C14         1.8160   -2.0330   -0.0800 ca        1 X8U     -0.056000
     27 C13         2.9420   -2.8590   -0.2040 ca        1 X8U     -0.129900
     28 C8          4.2920   -2.2820   -0.3810 ce        1 X8U      0.423900
     29 N3          4.4630   -1.0160   -0.0700 n2        1 X8U     -0.456400
     30 N2          5.6700   -0.4260   -0.0800 nh        1 X8U     -0.442300
     31 C7          5.6450    0.9910   -0.1450 cc        1 X8U      0.528100
     32 S1          4.2980    1.8910    0.5010 ss        1 X8U      0.116900
     33 C4          5.0940    3.3370    0.1790 ca        1 X8U     -0.137100
     34 C3          4.6780    4.6540    0.4000 ca        1 X8U     -0.072000
     35 C2          5.5160    5.6980    0.0460 ca        1 X8U     -0.140000
     36 N1          6.6710    1.7260   -0.6080 nd        1 X8U     -0.602100
     37 C5          6.3750    3.0780   -0.4180 ca        1 X8U      0.107400
     38 C6          7.2110    4.1600   -0.7690 ca        1 X8U     -0.096000
     39 C1          6.7730    5.4500   -0.5330 ca        1 X8U     -0.131000
     40 H221       -4.6480   -1.4110    1.7420 hc        1 X8U      0.044200
     41 H222       -4.2550    0.3600    1.7730 hc        1 X8U      0.044200
     42 H231       -4.6380    0.4760   -0.7170 hc        1 X8U      0.071700
     43 H232       -5.1480   -1.2670   -0.7110 hc        1 X8U      0.071700
     44 H241       -6.9780   -0.7430    0.9390 hc        1 X8U      0.034700
     45 H242       -6.4650    0.9910    0.9530 hc        1 X8U      0.034700
     46 H251       -6.8590    1.1080   -1.5430 hc        1 X8U      0.054700
     47 H252       -7.4470   -0.6030   -1.5160 hc        1 X8U      0.054700
     48 H31        -8.0070    2.7520    0.1330 ha        1 X8U      0.136500
     49 H27        -9.7330   -1.0030   -1.1260 ha        1 X8U      0.136500
     50 H30       -10.2780    3.5880    0.7410 ha        1 X8U      0.122000
     51 H29       -12.2770    2.1290    0.4150 ha        1 X8U      0.119000
     52 H28       -11.9980   -0.1670   -0.5200 ha        1 X8U      0.122000
     53 H16        -0.5930   -4.4210    0.3690 ha        1 X8U      0.138000
     54 H14         1.9140   -0.9350   -0.1430 ha        1 X8U      0.181000
     55 H17         1.3950   -5.8930    0.1170 ha        1 X8U      0.123000
     56 H111        4.4680   -5.2990    0.6700 hc        1 X8U      0.047200
     57 H112        3.6240   -6.1660   -0.6750 hc        1 X8U      0.047200
     58 H101        5.8070   -5.2280   -1.4460 hc        1 X8U      0.044700
     59 H102        4.4170   -4.4620   -2.3150 hc        1 X8U      0.044700
     60 H91C        6.1260   -3.3270   -0.0130 hc        1 X8U      0.051700
     61 H92C        5.9460   -2.7050   -1.7080 hc        1 X8U      0.051700
     62 HA          6.3890   -0.8360   -0.6640 hn        1 X8U      0.398800
     63 H3          3.6910    4.8500    0.8450 ha        1 X8U      0.149000
     64 HB          5.1960    6.7370    0.2150 ha        1 X8U      0.130000
     65 H1          7.4150    6.3010   -0.8030 ha        1 X8U      0.124000
     66 H6          8.1920    3.9660   -1.2260 ha        1 X8U      0.140000
@<TRIPOS>BOND
     1    1    2 1   
     2    2    3 1   
     3    2    4 1   
     4    4    5 1   
     5    4    6 2   
     6    5   18 2   
     7    6    7 1   
     8    6   17 1   
     9    7    8 1   
    10    7   40 1   
    11    7   41 1   
    12    8    9 1   
    13    8   42 1   
    14    8   43 1   
    15    9   10 1   
    16    9   44 1   
    17    9   45 1   
    18   10   11 1   
    19   10   46 1   
    20   10   47 1   
    21   11   12 ar  
    22   11   16 ar  
    23   12   13 ar  
    24   12   48 1   
    25   13   14 ar  
    26   13   50 1   
    27   14   15 ar  
    28   14   51 1   
    29   15   16 ar  
    30   15   52 1   
    31   16   49 1   
    32   17   18 1   
    33   18   19 1   
    34   19   20 ar  
    35   19   26 ar  
    36   20   21 ar  
    37   20   53 1   
    38   21   22 ar  
    39   21   55 1   
    40   22   23 1   
    41   22   27 ar  
    42   23   24 1   
    43   23   56 1   
    44   23   57 1   
    45   24   25 1   
    46   24   58 1   
    47   24   59 1   
    48   25   28 1   
    49   25   60 1   
    50   25   61 1   
    51   26   27 ar  
    52   26   54 1   
    53   27   28 1   
    54   28   29 2   
    55   29   30 1   
    56   30   31 1   
    57   30   62 1   
    58   31   32 1   
    59   31   36 2   
    60   32   33 1   
    61   33   34 ar  
    62   33   37 ar  
    63   34   35 ar  
    64   34   63 1   
    65   35   39 ar  
    66   35   64 1   
    67   36   37 1   
    68   37   38 ar  
    69   38   39 ar  
    70   38   66 1   
    71   39   65 1   
@<TRIPOS>SUBSTRUCTURE
     1 X8U         1 TEMP              0 ****  ****    0 ROOT
