@<TRIPOS>MOLECULE
X8U
   66    71     1     0     0
SMALL
bcc


@<TRIPOS>ATOM
      1 O2          1.0160    0.2050    0.6690 o         1 X8U     -0.805300
      2 C20         1.5270   -0.7720    0.0700 c         1 X8U      0.841100
      3 O1          1.6020   -1.9540    0.4990 o         1 X8U     -0.805300
      4 C19         2.1660   -0.4950   -1.3030 cc        1 X8U      0.333800
      5 N4          1.4080   -0.4470   -2.4600 nc        1 X8U     -0.595000
      6 C21         3.5300   -0.2670   -1.4880 cd        1 X8U     -0.157700
      7 C22         4.5540   -0.2580   -0.4340 c3        1 X8U      0.010900
      8 C23         4.8200   -1.6550    0.1010 c3        1 X8U     -0.099400
      9 C24         5.7800   -1.6130    1.2690 c3        1 X8U     -0.068400
     10 C25         6.0080   -3.0060    1.8260 c3        1 X8U     -0.045100
     11 C26         6.8760   -2.9870    3.0350 ca        1 X8U     -0.060300
     12 C31         6.3860   -2.4720    4.2430 ca        1 X8U     -0.129500
     13 C30         7.1890   -2.4600    5.3810 ca        1 X8U     -0.134000
     14 C29         8.4900   -2.9620    5.3270 ca        1 X8U     -0.147000
     15 C28         8.9840   -3.4770    4.1290 ca        1 X8U     -0.134000
     16 C27         8.1820   -3.4890    2.9880 ca        1 X8U     -0.129500
     17 S2          3.8620    0.0130   -3.1260 ss        1 X8U     -0.240300
     18 C18         2.1850   -0.1840   -3.5170 cd        1 X8U      0.419900
     19 C15         1.7240   -0.0600   -4.8890 ca        1 X8U     -0.097500
     20 C16         2.6550    0.0080   -5.9370 ca        1 X8U     -0.119000
     21 C17         2.2210    0.1350   -7.2500 ca        1 X8U     -0.144000
     22 C12         0.8560    0.1910   -7.5570 ca        1 X8U     -0.073300
     23 C11         0.4690    0.3640   -8.9830 c3        1 X8U     -0.033100
     24 C10        -0.9950    0.0860   -9.2410 c3        1 X8U     -0.069400
     25 C9         -1.8570    0.7330   -8.1780 c3        1 X8U     -0.150700
     26 C14         0.3550   -0.0080   -5.1890 ca        1 X8U     -0.058000
     27 C13        -0.0860    0.1100   -6.5150 ca        1 X8U     -0.130900
     28 C8         -1.5330    0.1520   -6.8270 ce        1 X8U      0.423900
     29 N3         -2.3750   -0.3060   -5.9330 n2        1 X8U     -0.452400
     30 N2         -3.6980   -0.4040   -6.1430 nh        1 X8U     -0.441300
     31 C7         -4.4820   -0.5180   -4.9650 cc        1 X8U      0.528100
     32 S1         -3.8230   -1.2360   -3.5190 ss        1 X8U      0.118900
     33 C4         -5.3210   -1.1190   -2.7640 ca        1 X8U     -0.138100
     34 C3         -5.7000   -1.4920   -1.4710 ca        1 X8U     -0.071000
     35 C2         -7.0090   -1.2950   -1.0640 ca        1 X8U     -0.140000
     36 N1         -5.7810   -0.1760   -4.9090 nd        1 X8U     -0.603100
     37 C5         -6.2820   -0.5270   -3.6530 ca        1 X8U      0.107400
     38 C6         -7.6100   -0.3370   -3.2150 ca        1 X8U     -0.096000
     39 C1         -7.9550   -0.7220   -1.9330 ca        1 X8U     -0.131000
     40 H221        5.5090    0.1890   -0.8200 hc        1 X8U      0.044200
     41 H222        4.1920    0.3920    0.4120 hc        1 X8U      0.044200
     42 H231        3.8360   -2.1070    0.4200 hc        1 X8U      0.071700
     43 H232        5.2420   -2.3000   -0.7130 hc        1 X8U      0.071700
     44 H241        5.3610   -0.9540    2.0750 hc        1 X8U      0.035200
     45 H242        6.7590   -1.1690    0.9490 hc        1 X8U      0.035200
     46 H251        6.4670   -3.6530    1.0310 hc        1 X8U      0.054700
     47 H252        5.0140   -3.4590    2.0910 hc        1 X8U      0.054700
     48 H31         5.3590   -2.0760    4.2840 ha        1 X8U      0.136500
     49 H27         8.5760   -3.8960    2.0460 ha        1 X8U      0.136500
     50 H30         6.7960   -2.0530    6.3240 ha        1 X8U      0.122000
     51 H29         9.1230   -2.9520    6.2250 ha        1 X8U      0.119000
     52 H28        10.0080   -3.8730    4.0820 ha        1 X8U      0.122000
     53 H16         3.7330   -0.0390   -5.7160 ha        1 X8U      0.138000
     54 H14        -0.3720   -0.0650   -4.3600 ha        1 X8U      0.181000
     55 H17         2.9580    0.1910   -8.0650 ha        1 X8U      0.123000
     56 H111        0.7050    1.4220   -9.2850 hc        1 X8U      0.046700
     57 H112        1.0950   -0.3100   -9.6290 hc        1 X8U      0.046700
     58 H101       -1.2810    0.4820  -10.2490 hc        1 X8U      0.045200
     59 H102       -1.1770   -1.0210   -9.2480 hc        1 X8U      0.045200
     60 H91C       -2.9330    0.6050   -8.4650 hc        1 X8U      0.052200
     61 H92C       -1.6510    1.8370   -8.1380 hc        1 X8U      0.052200
     62 HA         -4.1130    0.2080   -6.8340 hn        1 X8U      0.399800
     63 H3         -4.9590   -1.9330   -0.7870 ha        1 X8U      0.149000
     64 HB         -7.3160   -1.5840   -0.0480 ha        1 X8U      0.130000
     65 H1         -8.9870   -0.5780   -1.5790 ha        1 X8U      0.124000
     66 H6         -8.3490    0.1140   -3.8920 ha        1 X8U      0.140000
@<TRIPOS>BOND
     1    1    2 1   
     2    2    3 1   
     3    2    4 1   
     4    4    5 1   
     5    4    6 2   
     6    5   18 2   
     7    6    7 1   
     8    6   17 1   
     9    7    8 1   
    10    7   40 1   
    11    7   41 1   
    12    8    9 1   
    13    8   42 1   
    14    8   43 1   
    15    9   10 1   
    16    9   44 1   
    17    9   45 1   
    18   10   11 1   
    19   10   46 1   
    20   10   47 1   
    21   11   12 ar  
    22   11   16 ar  
    23   12   13 ar  
    24   12   48 1   
    25   13   14 ar  
    26   13   50 1   
    27   14   15 ar  
    28   14   51 1   
    29   15   16 ar  
    30   15   52 1   
    31   16   49 1   
    32   17   18 1   
    33   18   19 1   
    34   19   20 ar  
    35   19   26 ar  
    36   20   21 ar  
    37   20   53 1   
    38   21   22 ar  
    39   21   55 1   
    40   22   23 1   
    41   22   27 ar  
    42   23   24 1   
    43   23   56 1   
    44   23   57 1   
    45   24   25 1   
    46   24   58 1   
    47   24   59 1   
    48   25   28 1   
    49   25   60 1   
    50   25   61 1   
    51   26   27 ar  
    52   26   54 1   
    53   27   28 1   
    54   28   29 2   
    55   29   30 1   
    56   30   31 1   
    57   30   62 1   
    58   31   32 1   
    59   31   36 2   
    60   32   33 1   
    61   33   34 ar  
    62   33   37 ar  
    63   34   35 ar  
    64   34   63 1   
    65   35   39 ar  
    66   35   64 1   
    67   36   37 1   
    68   37   38 ar  
    69   38   39 ar  
    70   38   66 1   
    71   39   65 1   
@<TRIPOS>SUBSTRUCTURE
     1 X8U         1 TEMP              0 ****  ****    0 ROOT
