@<TRIPOS>MOLECULE
X8U
   66    61     1     0     0
SMALL
bcc


@<TRIPOS>ATOM
      1 O2         -4.5450    1.0790    2.2950 o         1 X8U     -0.540500
      2 C20        -3.6340    0.1480    2.2950 c2        1 X8U      0.397000
      3 O1         -3.5120   -0.6070    3.2890 o         1 X8U     -0.540500
      4 C19        -2.5960    0.0800    1.1400 c2        1 X8U     -0.089000
      5 N4         -1.4400    1.1350    0.8710 n2        1 X8U     -0.065000
      6 C21        -2.5910   -0.8870    0.0580 c1        1 X8U     -0.347000
      7 C22        -3.4930   -2.1600   -0.0430 c2        1 X8U     -0.096000
      8 C23        -4.5540   -1.9550   -1.1500 c3        1 X8U     -0.156000
      9 C24        -5.2230   -3.2590   -1.4520 c3        1 X8U     -0.153000
     10 C25        -6.6210   -2.9850   -2.1350 c3        1 X8U     -0.129000
     11 C26        -7.2180   -4.3230   -2.6350 c2        1 X8U     -0.056000
     12 C31        -7.8810   -5.1550   -1.7470 c2        1 X8U     -0.124000
     13 C30        -8.5120   -6.3110   -2.2090 c1        1 X8U     -0.130000
     14 C29        -8.4740   -6.6310   -3.5710 c1        1 X8U     -0.120167
     15 C28        -7.8100   -5.7980   -4.4590 c1        1 X8U     -0.120167
     16 C27        -7.1790   -4.6410   -3.9930 c1        1 X8U     -0.134000
     17 S2         -1.4680   -0.4990   -0.9120 ss        1 X8U      0.336000
     18 C18        -0.7800    0.7830   -0.3450 c1        1 X8U     -0.266000
     19 C15         0.3560    1.5830   -1.0230 c1        1 X8U      0.009000
     20 C16         0.0970    2.2930   -2.2510 c2        1 X8U     -0.119000
     21 C17         1.0880    3.1250   -2.8100 c1        1 X8U     -0.141000
     22 C12         2.3070    3.2600   -2.1830 c1        1 X8U     -0.067000
     23 C11         3.3800    4.2510   -2.6920 c3        1 X8U     -0.120000
     24 C10         4.5080    4.5020   -1.8230 c3        1 X8U     -0.147000
     25 C9          5.0580    3.3550   -1.0620 c3        1 X8U     -0.154000
     26 C14         1.5900    1.7170   -0.3840 c1        1 X8U     -0.057000
     27 C13         2.5710    2.5380   -0.9340 c1        1 X8U     -0.046000
     28 C8          4.0240    2.6540   -0.2960 c2        1 X8U     -0.024000
     29 N3          4.3640    1.8870    0.7720 n1        1 X8U     -0.081000
     30 N2          5.7240    1.7590    1.1520 n2        1 X8U     -0.171000
     31 C7          6.1020    1.8570    2.5690 c2        1 X8U     -0.140000
     32 S1          7.0570    0.7930    3.1460 ss        1 X8U      0.578000
     33 C4          7.4920    1.2720    4.5520 c1        1 X8U     -0.366000
     34 C3          8.2660    0.6610    5.5660 c1        1 X8U     -0.120167
     35 C2          8.4010    1.2790    6.8030 c1        1 X8U     -0.120167
     36 N1          5.9650    2.8990    3.5420 n2        1 X8U     -0.176000
     37 C5          6.8500    2.5260    4.8040 c1        1 X8U     -0.033000
     38 C6          6.9870    3.1420    6.0460 c1        1 X8U     -0.120167
     39 C1          7.7550    2.5350    7.0510 c1        1 X8U     -0.120167
     40 H221       -3.9610   -2.3180    0.8520 ha        1 X8U      0.106500
     41 H222       -2.9410   -2.9310   -0.2630 ha        1 X8U      0.106500
     42 H231       -5.2160   -1.3160   -0.8460 hc        1 X8U      0.086000
     43 H232       -4.1180   -1.6140   -1.9630 hc        1 X8U      0.086000
     44 H241       -4.6630   -3.7800   -2.0570 hc        1 X8U      0.082500
     45 H242       -5.3570   -3.7520   -0.6320 hc        1 X8U      0.082500
     46 H251       -7.2470   -2.5650   -1.4660 hc        1 X8U      0.088500
     47 H252       -6.5020   -2.3790   -2.8910 hc        1 X8U      0.088500
     48 H31        -7.9080   -4.9220   -0.7590 ha        1 X8U      0.145000
     49 H27        -6.7060   -4.0460   -4.6250 ha        1 X8U      0.127000
     50 H30        -8.9400   -6.9070   -1.5860 ha        1 X8U      0.126000
     51 H29        -8.9060   -7.4200   -3.8870 ha        1 X8U      0.130500
     52 H28        -7.7810   -6.0280   -5.4460 ha        1 X8U      0.130500
     53 H16        -0.7710    2.2040   -2.6920 ha        1 X8U      0.139000
     54 H14         1.7230    1.3240    0.5480 ha        1 X8U      0.182000
     55 H17         0.9260    3.5710   -3.6550 ha        1 X8U      0.123000
     56 H111        3.7340    3.9030   -3.5670 hc        1 X8U      0.087000
     57 H112        2.9440    5.1000   -2.8620 hc        1 X8U      0.087000
     58 H101        4.2280    5.2060   -1.1550 hc        1 X8U      0.083500
     59 H102        5.2410    4.8770   -2.3770 hc        1 X8U      0.083500
     60 H91C        5.6320    2.7540   -1.6390 hc        1 X8U      0.091000
     61 H92C        5.7080    3.7080   -0.4070 hc        1 X8U      0.091000
     62 HA          6.3520    1.5730    0.5300 hn        1 X8U      0.193000
     63 H3          8.7090   -0.2230    5.7230 ha        1 X8U      0.130500
     64 HB          9.0610    1.1200    7.4700 ha        1 X8U      0.130500
     65 H1          7.9170    2.9600    7.8990 ha        1 X8U      0.130500
     66 H6          6.4300    4.0010    5.9110 ha        1 X8U      0.130500
@<TRIPOS>BOND
     1    1    2 1   
     2    2    3 1   
     3    2    4 1   
     4    4    5 1   
     5    4    6 1   
     6    5   18 1   
     7    6   17 1   
     8    7    8 1   
     9    7   40 1   
    10    7   41 1   
    11    8    9 1   
    12    8   42 1   
    13    8   43 1   
    14    9   10 1   
    15    9   44 1   
    16    9   45 1   
    17   10   11 1   
    18   10   46 1   
    19   10   47 1   
    20   11   12 1   
    21   11   16 1   
    22   12   13 1   
    23   12   48 1   
    24   13   50 1   
    25   14   15 1   
    26   14   51 1   
    27   15   52 1   
    28   16   49 1   
    29   17   18 1   
    30   19   20 1   
    31   19   26 1   
    32   20   21 1   
    33   20   53 1   
    34   21   55 1   
    35   22   23 1   
    36   22   27 1   
    37   23   24 1   
    38   23   56 1   
    39   23   57 1   
    40   24   25 1   
    41   24   58 1   
    42   24   59 1   
    43   25   28 1   
    44   25   60 1   
    45   25   61 1   
    46   26   54 1   
    47   27   28 1   
    48   28   29 1   
    49   30   31 1   
    50   30   62 1   
    51   31   32 1   
    52   31   36 1   
    53   32   33 1   
    54   33   37 1   
    55   34   35 1   
    56   34   63 1   
    57   35   64 1   
    58   36   37 1   
    59   38   39 1   
    60   38   66 1   
    61   39   65 1   
@<TRIPOS>SUBSTRUCTURE
     1 X8U         1 TEMP              0 ****  ****    0 ROOT
