@<TRIPOS>MOLECULE
X8U
   66    71     1     0     0
SMALL
bcc


@<TRIPOS>ATOM
      1 O2          0.9670    0.0810    0.6750 o         1 X8U     -0.805800
      2 C20         1.5100   -0.8730    0.0660 c         1 X8U      0.841100
      3 O1          1.6160   -2.0580    0.4790 o         1 X8U     -0.805800
      4 C19         2.1510   -0.5570   -1.2980 cc        1 X8U      0.333800
      5 N4          1.3980   -0.5090   -2.4580 nc        1 X8U     -0.595000
      6 C21         3.5090   -0.2940   -1.4710 cd        1 X8U     -0.157700
      7 C22         4.5270   -0.2760   -0.4100 c3        1 X8U      0.010900
      8 C23         4.8260   -1.6750    0.1020 c3        1 X8U     -0.099400
      9 C24         5.7780   -1.6280    1.2770 c3        1 X8U     -0.068400
     10 C25         6.0400   -3.0240    1.8110 c3        1 X8U     -0.045100
     11 C26         6.9000   -3.0030    3.0250 ca        1 X8U     -0.060300
     12 C31         6.3890   -2.5240    4.2390 ca        1 X8U     -0.129500
     13 C30         7.1860   -2.5100    5.3820 ca        1 X8U     -0.134000
     14 C29         8.5000   -2.9750    5.3270 ca        1 X8U     -0.147000
     15 C28         9.0140   -3.4540    4.1230 ca        1 X8U     -0.134000
     16 C27         8.2190   -3.4690    2.9780 ca        1 X8U     -0.129500
     17 S2          3.8430    0.0210   -3.1020 ss        1 X8U     -0.240300
     18 C18         2.1750   -0.2100   -3.5060 cd        1 X8U      0.419900
     19 C15         1.7180   -0.0740   -4.8790 ca        1 X8U     -0.097500
     20 C16         2.6530   -0.0030   -5.9230 ca        1 X8U     -0.119000
     21 C17         2.2230    0.1350   -7.2370 ca        1 X8U     -0.144000
     22 C12         0.8600    0.2010   -7.5470 ca        1 X8U     -0.073300
     23 C11         0.4780    0.3870   -8.9730 c3        1 X8U     -0.033100
     24 C10        -0.9860    0.1160   -9.2370 c3        1 X8U     -0.069400
     25 C9         -1.8490    0.7610   -8.1730 c3        1 X8U     -0.150700
     26 C14         0.3500   -0.0120   -5.1830 ca        1 X8U     -0.058000
     27 C13        -0.0860    0.1190   -6.5090 ca        1 X8U     -0.130900
     28 C8         -1.5320    0.1720   -6.8240 ce        1 X8U      0.423900
     29 N3         -2.3800   -0.2830   -5.9340 n2        1 X8U     -0.453400
     30 N2         -3.7030   -0.3700   -6.1460 nu        1 X8U     -0.441300
     31 C7         -4.4900   -0.4820   -4.9710 cc        1 X8U      0.528100
     32 S1         -3.8400   -1.2150   -3.5280 ss        1 X8U      0.118900
     33 C4         -5.3370   -1.0880   -2.7740 ca        1 X8U     -0.138100
     34 C3         -5.7230   -1.4640   -1.4840 ca        1 X8U     -0.071000
     35 C2         -7.0300   -1.2570   -1.0780 ca        1 X8U     -0.140000
     36 N1         -5.7860   -0.1300   -4.9150 nd        1 X8U     -0.603100
     37 C5         -6.2920   -0.4830   -3.6620 ca        1 X8U      0.107400
     38 C6         -7.6190   -0.2830   -3.2250 ca        1 X8U     -0.096000
     39 C1         -7.9700   -0.6720   -1.9450 ca        1 X8U     -0.131000
     40 H221        4.1440    0.3500    0.4440 hc        1 X8U      0.044200
     41 H222        5.4720    0.2020   -0.7830 hc        1 X8U      0.044200
     42 H231        3.8520   -2.1570    0.4090 hc        1 X8U      0.071700
     43 H232        5.2680   -2.2950   -0.7200 hc        1 X8U      0.071700
     44 H241        5.3370   -0.9940    2.0920 hc        1 X8U      0.035200
     45 H242        6.7460   -1.1530    0.9700 hc        1 X8U      0.035200
     46 H251        5.0560   -3.5080    2.0620 hc        1 X8U      0.054700
     47 H252        6.5190   -3.6440    1.0080 hc        1 X8U      0.054700
     48 H31         5.3520   -2.1560    4.2800 ha        1 X8U      0.136500
     49 H27         8.6290   -3.8480    2.0300 ha        1 X8U      0.136500
     50 H30         6.7770   -2.1310    6.3290 ha        1 X8U      0.122000
     51 H29         9.1270   -2.9640    6.2290 ha        1 X8U      0.119000
     52 H28        10.0490   -3.8220    4.0750 ha        1 X8U      0.122000
     53 H16         3.7300   -0.0590   -5.6990 ha        1 X8U      0.138000
     54 H14        -0.3790   -0.0710   -4.3560 ha        1 X8U      0.181000
     55 H17         2.9630    0.1930   -8.0490 ha        1 X8U      0.123000
     56 H111        1.1030   -0.2850   -9.6210 hc        1 X8U      0.046700
     57 H112        0.7190    1.4460   -9.2670 hc        1 X8U      0.046700
     58 H101       -1.1730   -0.9900   -9.2510 hc        1 X8U      0.045200
     59 H102       -1.2680    0.5190  -10.2440 hc        1 X8U      0.045200
     60 H91C       -2.9240    0.6390   -8.4640 hc        1 X8U      0.052200
     61 H92C       -1.6390    1.8640   -8.1270 hc        1 X8U      0.052200
     62 HA         -4.1120    0.2490   -6.8350 hn        1 X8U      0.399800
     63 H3         -4.9860   -1.9150   -0.8010 ha        1 X8U      0.149000
     64 HB         -7.3410   -1.5490   -0.0640 ha        1 X8U      0.130000
     65 H1         -9.0010   -0.5190   -1.5930 ha        1 X8U      0.124000
     66 H6         -8.3530    0.1790   -3.9010 ha        1 X8U      0.140000
@<TRIPOS>BOND
     1    1    2 1   
     2    2    3 1   
     3    2    4 1   
     4    4    5 1   
     5    4    6 2   
     6    5   18 2   
     7    6    7 1   
     8    6   17 1   
     9    7    8 1   
    10    7   40 1   
    11    7   41 1   
    12    8    9 1   
    13    8   42 1   
    14    8   43 1   
    15    9   10 1   
    16    9   44 1   
    17    9   45 1   
    18   10   11 1   
    19   10   46 1   
    20   10   47 1   
    21   11   12 ar  
    22   11   16 ar  
    23   12   13 ar  
    24   12   48 1   
    25   13   14 ar  
    26   13   50 1   
    27   14   15 ar  
    28   14   51 1   
    29   15   16 ar  
    30   15   52 1   
    31   16   49 1   
    32   17   18 1   
    33   18   19 1   
    34   19   20 ar  
    35   19   26 ar  
    36   20   21 ar  
    37   20   53 1   
    38   21   22 ar  
    39   21   55 1   
    40   22   23 1   
    41   22   27 ar  
    42   23   24 1   
    43   23   56 1   
    44   23   57 1   
    45   24   25 1   
    46   24   58 1   
    47   24   59 1   
    48   25   28 1   
    49   25   60 1   
    50   25   61 1   
    51   26   27 ar  
    52   26   54 1   
    53   27   28 1   
    54   28   29 2   
    55   29   30 1   
    56   30   31 1   
    57   30   62 1   
    58   31   32 1   
    59   31   36 2   
    60   32   33 1   
    61   33   34 ar  
    62   33   37 ar  
    63   34   35 ar  
    64   34   63 1   
    65   35   39 ar  
    66   35   64 1   
    67   36   37 1   
    68   37   38 ar  
    69   38   39 ar  
    70   38   66 1   
    71   39   65 1   
@<TRIPOS>SUBSTRUCTURE
     1 X8U         1 TEMP              0 ****  ****    0 ROOT
