@<TRIPOS>MOLECULE
X8W
   32    33     1     0     0
SMALL
bcc


@<TRIPOS>ATOM
      1 CAJ         0.2460   -0.9880    0.6420 ca        1 X8W     -0.070500
      2 CAH         1.2870   -0.0800    0.4870 ca        1 X8W     -0.190000
      3 CAO         1.2280    1.1510    1.1560 ca        1 X8W      0.132100
      4 OAB         2.2220    2.0970    1.0600 oh        1 X8W     -0.497100
      5 CAI         0.1310    1.4710    1.9720 ca        1 X8W     -0.190000
      6 CAK        -0.9030    0.5530    2.1090 ca        1 X8W     -0.070500
      7 CAQ        -0.8640   -0.6850    1.4500 ca        1 X8W     -0.105800
      8 CAG        -1.9090   -1.6840    1.5820 ce        1 X8W     -0.044200
      9 CAF        -3.1920   -1.5390    1.9320 cf        1 X8W     -0.241200
     10 CAN        -3.9240   -0.3050    2.2640 c         1 X8W      0.612900
     11 OAA        -4.0000    0.6750    1.5200 o         1 X8W     -0.505100
     12 CAT        -4.6300   -0.3450    3.5710 ca        1 X8W     -0.249600
     13 CAR        -4.3060    0.5690    4.5920 ca        1 X8W      0.224100
     14 OAD        -3.2820    1.4450    4.3320 oh        1 X8W     -0.489600
     15 CAL        -4.9740    0.5730    5.8250 ca        1 X8W     -0.312500
     16 CAP        -5.9970   -0.3600    6.0360 ca        1 X8W      0.214100
     17 OAC        -6.7040   -0.4210    7.2110 oh        1 X8W     -0.489100
     18 CAM        -6.3510   -1.2900    5.0500 ca        1 X8W     -0.312500
     19 CAS        -5.6590   -1.2710    3.8320 ca        1 X8W      0.224100
     20 OAE        -5.9660   -2.1600    2.8300 oh        1 X8W     -0.489600
     21 HAJ         0.2910   -1.9550    0.1180 ha        1 X8W      0.144000
     22 HAH         2.1470   -0.3230   -0.1520 ha        1 X8W      0.142000
     23 HAB         2.8970    1.7600    0.4520 ho        1 X8W      0.419000
     24 HAI         0.1000    2.4430    2.4840 ha        1 X8W      0.142000
     25 HAK        -1.7700    0.8110    2.7420 ha        1 X8W      0.144000
     26 HAD        -3.2080    2.0580    5.0780 ho        1 X8W      0.430000
     27 HAL        -4.7020    1.2960    6.6040 ha        1 X8W      0.150000
     28 HAC        -6.3710    0.2720    7.8010 ho        1 X8W      0.426000
     29 HAM        -7.1580   -2.0100    5.2390 ha        1 X8W      0.150000
     30 HAE        -6.7280   -2.6880    3.1160 ho        1 X8W      0.430000
     31 HAG        -1.5620   -2.7130    1.3550 ha        1 X8W      0.121000
     32 HAF        -3.8400   -2.4360    1.9960 ha        1 X8W      0.153000
@<TRIPOS>BOND
     1    1    2 ar  
     2    1    7 ar  
     3    1   21 1   
     4    2    3 ar  
     5    2   22 1   
     6    3    4 1   
     7    3    5 ar  
     8    4   23 1   
     9    5    6 ar  
    10    5   24 1   
    11    6    7 ar  
    12    6   25 1   
    13    7    8 1   
    14    8    9 2   
    15    8   31 1   
    16    9   10 1   
    17    9   32 1   
    18   10   11 2   
    19   10   12 1   
    20   12   13 ar  
    21   12   19 ar  
    22   13   14 1   
    23   13   15 ar  
    24   14   26 1   
    25   15   16 ar  
    26   15   27 1   
    27   16   17 1   
    28   16   18 ar  
    29   17   28 1   
    30   18   19 ar  
    31   18   29 1   
    32   19   20 1   
    33   20   30 1   
@<TRIPOS>SUBSTRUCTURE
     1 X8W         1 TEMP              0 ****  ****    0 ROOT
