@<TRIPOS>MOLECULE
X8Z
   28    28     1     0     0
SMALL
bcc


@<TRIPOS>ATOM
      1 O1          0.3910   -1.4490    0.9870 o         1 X8Z     -0.622100
      2 C4          0.3860   -0.3020    0.4920 c         1 X8Z      0.683100
      3 C2          1.6580    0.2360   -0.1810 c3        1 X8Z     -0.128700
      4 C1          2.8690   -0.4230    0.4450 c3        1 X8Z      0.038700
      5 S           4.2850    0.6210    0.1630 sh        1 X8Z     -0.422900
      6 C3          1.5480   -0.0580   -1.6650 c3        1 X8Z     -0.104100
      7 H11C        2.7130   -0.5530    1.5430 h1        1 X8Z      0.070700
      8 H12C        3.0350   -1.4340    0.0030 h1        1 X8Z      0.070700
      9 H31C        2.3180    0.5180   -2.2290 hc        1 X8Z      0.057700
     10 H32C        1.6990   -1.1480   -1.8570 hc        1 X8Z      0.057700
     11 H33C        0.5230    0.2060   -2.0380 hc        1 X8Z      0.057700
     12 H           5.1970   -0.1110    0.7740 hs        1 X8Z      0.188800
     13 H2          1.7420    1.3490   -0.0260 hc        1 X8Z      0.062700
     14 N          -0.7150    0.5290    0.6160 n         1 X8Z     -0.425800
     15 C8         -2.0800   -0.0010    0.5010 c3        1 X8Z     -0.039300
     16 C9         -2.4200   -0.7020   -0.8600 c         1 X8Z      0.910600
     17 O3         -1.6280   -0.5770   -1.8350 o         1 X8Z     -0.834300
     18 O2         -3.5130   -1.3290   -0.8920 o         1 X8Z     -0.834300
     19 C5         -0.7010    1.9100    0.1620 c3        1 X8Z      0.083000
     20 C6         -2.1450    2.4350    0.2770 c3        1 X8Z     -0.080400
     21 C7         -3.0030    1.2280    0.6470 c3        1 X8Z     -0.070400
     22 H8         -2.2380   -0.7440    1.3260 h1        1 X8Z      0.070700
     23 H51C       -0.0060    2.5050    0.8170 h1        1 X8Z      0.029700
     24 H52C       -0.3460    1.9940   -0.9030 h1        1 X8Z      0.029700
     25 H71C       -3.8840    1.1170   -0.0300 hc        1 X8Z      0.044700
     26 H72C       -3.3760    1.3160    1.6960 hc        1 X8Z      0.044700
     27 H61C       -2.2100    3.2330    1.0560 hc        1 X8Z      0.030700
     28 H62C       -2.4690    2.8720   -0.6980 hc        1 X8Z      0.030700
@<TRIPOS>BOND
     1    1    2 2   
     2    2    3 1   
     3    2   14 1   
     4    3    4 1   
     5    3    6 1   
     6    3   13 1   
     7    4    5 1   
     8    4    7 1   
     9    4    8 1   
    10    5   12 1   
    11    6    9 1   
    12    6   10 1   
    13    6   11 1   
    14   14   15 1   
    15   14   19 1   
    16   15   16 1   
    17   15   21 1   
    18   15   22 1   
    19   16   17 1   
    20   16   18 1   
    21   19   20 1   
    22   19   23 1   
    23   19   24 1   
    24   20   21 1   
    25   20   27 1   
    26   20   28 1   
    27   21   25 1   
    28   21   26 1   
@<TRIPOS>SUBSTRUCTURE
     1 X8Z         1 TEMP              0 ****  ****    0 ROOT
