@<TRIPOS>MOLECULE
X8Z
   28    27     1     0     0
SMALL
bcc


@<TRIPOS>ATOM
      1 O1         -2.0330   -0.0650    0.5580 o         1 X8Z     -0.383000
      2 C4         -0.8190   -0.0650    0.5580 c1        1 X8Z      0.327000
      3 C2         -0.0590   -0.0650    1.8750 c2        1 X8Z     -0.118000
      4 C1         -0.4690    1.1370    2.6940 c3        1 X8Z     -0.222000
      5 S           0.6970    1.3810    4.0130 sh        1 X8Z     -0.069000
      6 C3         -0.3770   -1.3270    2.6390 c3        1 X8Z     -0.222000
      7 H11C       -1.3580    0.9870    3.0690 h1        1 X8Z      0.110000
      8 H12C       -0.4870    1.9290    2.1240 h1        1 X8Z      0.110000
      9 H31C        0.0020   -2.0960    2.1710 hc        1 X8Z      0.097000
     10 H32C        0.0070   -1.2710    3.5350 hc        1 X8Z      0.097000
     11 H33C       -1.3450   -1.4320    2.7060 hc        1 X8Z      0.097000
     12 H           0.6970    2.5150    4.3320 hs        1 X8Z      0.017000
     13 H2          0.9000   -0.0250    1.6970 ha        1 X8Z      0.102000
     14 N          -0.0940   -0.0830   -0.6960 n3        1 X8Z     -0.284000
     15 C8         -0.7420   -0.1040   -2.1810 c3        1 X8Z     -0.066000
     16 C9         -0.8160   -1.5040   -2.6630 c2        1 X8Z      0.330000
     17 O3          0.1070   -1.9710   -3.3830 o         1 X8Z     -0.569000
     18 O2         -1.8360   -2.2020   -2.4160 o         1 X8Z     -0.569000
     19 C5          1.1820   -0.0850   -0.8410 c3        1 X8Z     -0.033000
     20 C6          1.4480    0.5830   -2.1880 c3        1 X8Z     -0.159000
     21 C7          0.1000    0.6800   -2.8890 c3        1 X8Z     -0.149000
     22 H8         -1.6680    0.1850   -2.2840 h1        1 X8Z      0.110000
     23 H51C        1.5190   -1.0010   -0.8470 h1        1 X8Z      0.069000
     24 H52C        1.6030    0.4250   -0.1230 h1        1 X8Z      0.069000
     25 H71C       -0.2160    1.6040   -2.8850 hc        1 X8Z      0.084000
     26 H72C        0.1740    0.3540   -3.8060 hc        1 X8Z      0.084000
     27 H61C        2.0630    0.0400   -2.7170 hc        1 X8Z      0.070000
     28 H62C        1.8200    1.4750   -2.0520 hc        1 X8Z      0.070000
@<TRIPOS>BOND
     1    1    2 1   
     2    2   14 1   
     3    3    4 1   
     4    3    6 1   
     5    3   13 1   
     6    4    5 1   
     7    4    7 1   
     8    4    8 1   
     9    5   12 1   
    10    6    9 1   
    11    6   10 1   
    12    6   11 1   
    13   14   15 1   
    14   14   19 1   
    15   15   16 1   
    16   15   21 1   
    17   15   22 1   
    18   16   17 1   
    19   16   18 1   
    20   19   20 1   
    21   19   23 1   
    22   19   24 1   
    23   20   21 1   
    24   20   27 1   
    25   20   28 1   
    26   21   25 1   
    27   21   26 1   
@<TRIPOS>SUBSTRUCTURE
     1 X8Z         1 TEMP              0 ****  ****    0 ROOT
