@<TRIPOS>MOLECULE
X8Z
   28    23     1     0     0
SMALL
bcc


@<TRIPOS>ATOM
      1 O1          1.4380   -1.0990   -0.3610 o         1 X8Z     -0.533000
      2 C4          2.3130   -0.3680   -0.8970 c2        1 X8Z      0.331000
      3 C2          2.2370   -0.5630    3.6440 c2        1 X8Z     -0.227000
      4 C1         -1.5100   -1.2410    3.8990 c1        1 X8Z     -0.606000
      5 S          -0.2230   -1.0520    3.4210 s         1 X8Z      0.535000
      6 C3          2.2010   -1.5510    2.7490 c2        1 X8Z     -0.227000
      7 H11C        0.6240    0.3610    1.1860 ha        1 X8Z      0.003000
      8 H12C        0.2750    0.6600    1.6890 ha        1 X8Z      0.003000
      9 H31C        4.7520    0.3910   -2.0280 h1        1 X8Z      0.031667
     10 H32C        2.2850   -2.6080    3.0380 ha        1 X8Z      0.127500
     11 H33C        2.1190   -1.3660    1.6570 ha        1 X8Z      0.127500
     12 H           2.3620   -0.7340    4.7220 ha        1 X8Z      0.127500
     13 H2          2.1950    0.4940    3.3430 ha        1 X8Z      0.127500
     14 N           3.3780    0.2300   -0.4090 n2        1 X8Z     -0.436000
     15 C8         -0.3720    0.0990   -1.8970 c3        1 X8Z     -0.240000
     16 C9          0.7960   -0.0920   -2.8050 c2        1 X8Z      0.339000
     17 O3          2.0490   -0.2360   -2.3400 os        1 X8Z     -0.353000
     18 O2          0.7250   -0.1040   -4.0480 o         1 X8Z     -0.425000
     19 C5          4.2240    1.0030   -1.2450 c3        1 X8Z     -0.068000
     20 C6          4.4720   -0.8310   -6.1650 c1        1 X8Z     -0.235500
     21 C7          3.6150   -0.6530   -5.3480 c1        1 X8Z     -0.235500
     22 H8         -0.6590   -0.8940   -1.4700 hc        1 X8Z      0.101333
     23 H51C        5.0020    1.4660   -0.5810 h1        1 X8Z      0.031667
     24 H52C        5.2320   -0.9900   -6.8830 ha        1 X8Z      0.232500
     25 H71C       -1.2290    0.5310   -2.4640 hc        1 X8Z      0.101333
     26 H72C       -0.0950    0.7680   -1.0460 hc        1 X8Z      0.101333
     27 H61C        3.6900    1.8320   -1.7880 h1        1 X8Z      0.031667
     28 H62C        2.8440   -0.4930   -4.6170 ha        1 X8Z      0.232500
@<TRIPOS>BOND
     1    1    2 1   
     2    2   14 1   
     3    2   17 1   
     4    3    6 1   
     5    3   12 1   
     6    3   13 1   
     7    4    5 1   
     8    6   10 1   
     9    6   11 1   
    10    7    8 1   
    11    9   19 1   
    12   14   19 1   
    13   15   16 1   
    14   15   22 1   
    15   15   25 1   
    16   15   26 1   
    17   16   17 1   
    18   16   18 1   
    19   19   23 1   
    20   19   27 1   
    21   20   21 1   
    22   20   24 1   
    23   21   28 1   
@<TRIPOS>SUBSTRUCTURE
     1 X8Z         1 TEMP              0 ****  ****    0 ROOT
