@<TRIPOS>MOLECULE
X8Z
   28    22     1     0     0
SMALL
bcc


@<TRIPOS>ATOM
      1 O1          0.1290    0.0910    1.6540 o         1 X8Z     -0.602000
      2 C4          0.5330   -0.7060    0.7430 c2        1 X8Z      0.175000
      3 C2          3.7490   -1.7870    0.9540 c2        1 X8Z     -0.536000
      4 C1         -1.2810    2.4450    1.9770 c2        1 X8Z     -0.202000
      5 S          -2.0350    3.7660    2.1470 s         1 X8Z     -0.117000
      6 C3          4.8460   -2.4680    0.8200 c1        1 X8Z      0.080000
      7 H11C       -1.0630    1.7220    2.7860 h4        1 X8Z      0.157000
      8 H12C       -0.8580    2.0450    1.0300 h4        1 X8Z      0.157000
      9 H31C        4.5760   -2.9090   -1.5090 ha        1 X8Z      0.006500
     10 H32C        2.9770   -1.7130    0.1540 ha        1 X8Z      0.221000
     11 H33C        4.4130   -3.5270   -1.2790 ha        1 X8Z      0.006500
     12 H           3.4400   -1.2150    1.8430 ha        1 X8Z      0.221000
     13 H2          0.9000   -1.7190    1.0610 h5        1 X8Z      0.036000
     14 N           0.6070   -0.5280   -0.5720 n2        1 X8Z     -0.560000
     15 C8          0.1600    0.6940   -1.1320 c3        1 X8Z     -0.066000
     16 C9          1.0260   -2.5730   -2.1740 c1        1 X8Z      0.471000
     17 O3          2.1630   -2.6940   -1.8330 o         1 X8Z     -0.244000
     18 O2         -0.0790   -2.5770   -2.6180 o         1 X8Z     -0.244000
     19 C5          4.4050   -0.2410   -2.2240 c3        1 X8Z     -0.133000
     20 C6          3.6330    1.0120   -2.3290 c2        1 X8Z     -0.467000
     21 C7          3.9670    2.1290   -2.9200 c1        1 X8Z      0.108000
     22 H8         -0.9360    0.8920   -0.9590 h1        1 X8Z      0.015000
     23 H51C        5.3690   -0.1790   -2.7830 hc        1 X8Z      0.084000
     24 H52C        3.8030   -1.0940   -2.6300 hc        1 X8Z      0.084000
     25 H71C        0.3270    0.6520   -2.2430 h1        1 X8Z      0.015000
     26 H72C        0.7070    1.5990   -0.7350 h1        1 X8Z      0.015000
     27 H61C        2.6330    0.9630   -1.8240 ha        1 X8Z      0.236000
     28 H62C        4.6260   -0.4640   -1.1470 hc        1 X8Z      0.084000
@<TRIPOS>BOND
     1    1    2 1   
     2    2   13 1   
     3    2   14 1   
     4    3    6 1   
     5    3   10 1   
     6    3   12 1   
     7    4    5 1   
     8    4    7 1   
     9    4    8 1   
    10    9   11 1   
    11   14   15 1   
    12   15   22 1   
    13   15   25 1   
    14   15   26 1   
    15   16   17 1   
    16   16   18 1   
    17   19   20 1   
    18   19   23 1   
    19   19   24 1   
    20   19   28 1   
    21   20   21 1   
    22   20   27 1   
@<TRIPOS>SUBSTRUCTURE
     1 X8Z         1 TEMP              0 ****  ****    0 ROOT
