@<TRIPOS>MOLECULE
X8Z
   28    39     1     0     0
SMALL
bcc


@<TRIPOS>ATOM
      1 O1          0.0000    0.0000    0.0000 o         1 X8Z     -0.265000
      2 C4          1.2120    0.0000    0.0000 c3        1 X8Z     -0.011000
      3 C2          1.9660    0.0000    1.3050 DU        1 X8Z     -0.515000
      4 C1          0.9730    0.0000    2.4690 DU        1 X8Z      0.061000
      5 S           1.8750    0.1500    4.0350 sh        1 X8Z     -0.230000
      6 C3          2.8470   -1.2480    1.3860 c3        1 X8Z     -0.055000
      7 H11C        1.2500   -0.2500    1.4520 DU        1 X8Z      0.125000
      8 H12C        1.2500   -0.2500    1.4520 DU        1 X8Z      0.125000
      9 H31C        2.2980   -1.3870    0.4620 DU        1 X8Z      0.096000
     10 H32C        2.1600   -1.3050    0.5500 DU        1 X8Z      0.096000
     11 H33C        2.5090   -1.7700    0.4990 DU        1 X8Z     -0.055000
     12 H           2.1800    0.1290    2.7430 DU        1 X8Z      0.193000
     13 H2          2.3430    0.1690    0.3040 DU        1 X8Z      0.286000
     14 N           1.8860   -0.0050   -1.1670 n3        1 X8Z     -0.049000
     15 C8          1.2800   -0.0120   -2.5070 DU        1 X8Z      0.406000
     16 C9          0.4570   -1.2610   -2.6900 c2        1 X8Z      0.410000
     17 O3          0.3790   -2.0700   -1.7960 o         1 X8Z     -0.561500
     18 O2         -0.1900   -1.4740   -3.8460 o         1 X8Z     -0.561500
     19 C5          3.3540    0.0010   -1.3130 DU        1 X8Z     -0.314000
     20 C6          3.6100    0.6050   -2.7160 c3        1 X8Z     -0.093000
     21 C7          2.4330    0.0120   -3.5320 DU        1 X8Z      0.078000
     22 H8          2.1390   -0.4120   -3.0330 DU        1 X8Z     -0.172000
     23 H51C        4.0820   -0.3770   -0.6060 ha        1 X8Z      0.140500
     24 H52C        3.6360    0.2370   -2.3320 ha        1 X8Z      0.140500
     25 H71C        1.7040    0.3590   -2.8110 DU        1 X8Z     -0.174000
     26 H72C        2.1340    0.0270   -2.4910 DU        1 X8Z     -0.174000
     27 H61C        2.9670    1.4580   -2.5360 hc        1 X8Z      0.044000
     28 H62C        3.4860    0.7070   -1.6450 DU        1 X8Z      0.030000
@<TRIPOS>BOND
     1    1    2 1   
     2    2    3 1   
     3    2   13 1   
     4    2   14 1   
     5    3    4 1   
     6    3    6 1   
     7    3    7 1   
     8    3    8 1   
     9    3   13 1   
    10    4    5 1   
    11    4    7 1   
    12    4    8 1   
    13    4   12 1   
    14    5   12 1   
    15    6    9 1   
    16    6   10 1   
    17    6   11 1   
    18    9   11 1   
    19   10   11 1   
    20   14   15 1   
    21   14   19 1   
    22   15   16 1   
    23   15   21 1   
    24   15   22 1   
    25   15   25 1   
    26   15   26 1   
    27   16   17 1   
    28   16   18 1   
    29   19   20 1   
    30   19   23 1   
    31   19   24 1   
    32   19   28 1   
    33   20   21 1   
    34   20   27 1   
    35   20   28 1   
    36   21   22 1   
    37   21   25 1   
    38   21   26 1   
    39   25   26 1   
@<TRIPOS>SUBSTRUCTURE
     1 X8Z         1 TEMP              0 ****  ****    0 ROOT
