@<TRIPOS>MOLECULE
X92
   55    50     1     0     0
SMALL
bcc


@<TRIPOS>ATOM
      1 CAK        -0.1410    0.8120    0.9000 c3        1 X92     -0.185000
      2 CAI         3.6180   -1.8530    2.8000 c1        1 X92      0.388500
      3 CAG         2.8860   -0.8420    3.1120 c1        1 X92     -0.782000
      4 CAH         2.1360    0.1620    3.4170 c1        1 X92      0.388500
      5 CAJ        -1.0050   -0.7490    2.6120 c2        1 X92     -0.212000
      6 CAV        -1.0900   -0.2180    1.3900 c2        1 X92     -0.109000
      7 CAM        -2.1350   -0.6170    0.4030 c3        1 X92     -0.176000
      8 CAP        -3.2220   -1.4110    0.9690 c1        1 X92     -0.040000
      9 CAX        -4.3470   -1.8210    0.1190 c3        1 X92     -0.150000
     10 CAS        -4.9170   -3.1270    0.6740 c2        1 X92      0.329000
     11 OAE        -4.4390   -4.2520    0.4830 o         1 X92     -0.380000
     12 OAB        -6.0420   -3.1110    1.4220 oh        1 X92     -0.307000
     13 HAJ        -1.7250   -1.5020    2.9640 ha        1 X92      0.118000
     14 HAH        -0.2250   -0.4490    3.3260 ha        1 X92      0.118000
     15 HAG         0.6690    1.0100    1.6470 hc        1 X92      0.072333
     16 HAI        -0.6850    1.7720    0.7060 hc        1 X92      0.072333
     17 HAK         0.3320    0.4820   -0.0580 hc        1 X92      0.072333
     18 HAM1       -2.5710    0.3150   -0.0690 hc        1 X92      0.122000
     19 HAM2       -1.6360   -1.1860   -0.4370 hc        1 X92      0.122000
     20 HAP1       -1.6950   -3.2540    1.2500 ha        1 X92      0.002000
     21 HAP2       -2.2600   -3.6110    1.1260 ha        1 X92      0.002000
     22 HAX        -6.4330   -2.2110    1.4320 ho        1 X92      0.285000
     23 N          -4.1410   -1.8460   -1.3170 n8        1 X92     -0.358000
     24 CA         -6.9340    2.7070   -1.4860 c1        1 X92     -0.167000
     25 CB         -6.0400    3.1990   -0.8630 c1        1 X92     -0.161000
     26 C          -7.9650    2.1310   -2.3140 c2        1 X92      0.416000
     27 O          -8.0580    2.4850   -3.5140 o         1 X92     -0.391000
     28 H          -4.9820   -1.5560   -1.7860 hn        1 X92      0.165500
     29 HA         -5.1270   -0.9910    0.3500 h1        1 X92      0.232000
     30 HB1C       -5.2460    3.6140   -0.2950 ha        1 X92      0.220000
     31 HB2C       -2.5900    2.6770   -0.1990 ha        1 X92      0.002000
     32 HB3C       -3.2390    2.5950   -0.3730 ha        1 X92      0.002000
     33 NBB        -8.8860    1.2580   -1.7320 n         1 X92     -0.281000
     34 CBA        -9.8130    0.6040   -2.6410 c3        1 X92     -0.017000
     35 CAO        -9.5080   -0.8260   -3.1240 c3        1 X92     -0.193000
     36 CAL       -10.5020   -1.8660   -2.5680 c3        1 X92     -0.031000
     37 CAN       -10.6200   -1.5260   -1.1800 c1        1 X92     -0.190000
     38 CAY       -10.3940   -0.8010   -0.2490 c1        1 X92     -0.160000
     39 CAQ        -9.8130    0.2870    0.4710 c3        1 X92     -0.036000
     40 CAZ        -8.6130    0.8200   -0.3640 c3        1 X92     -0.033000
     41 CAT        -7.4490   -0.2000   -0.2040 c2        1 X92      0.324000
     42 OAF        -7.0100   -0.3580    0.9790 o         1 X92     -0.579000
     43 OAC        -6.9490   -0.8050   -1.1910 o         1 X92     -0.579000
     44 HBA        -9.8810    1.2530   -3.5660 h1        1 X92      0.091000
     45 HAZ        -8.2800    1.7490    0.1970 h1        1 X92      0.100000
     46 HAO1       -8.4680   -1.1200   -2.8100 hc        1 X92      0.114000
     47 HAO2       -9.5590   -0.8470   -4.2420 hc        1 X92      0.114000
     48 HAY       -10.8290    0.6450   -2.1540 h1        1 X92      0.091000
     49 HAL1      -10.1000   -2.9010   -2.7210 hc        1 X92      0.084500
     50 HAL2      -11.4910   -1.7970   -3.0930 hc        1 X92      0.084500
     51 HAN1      -12.1540   -3.5990   -1.4840 ha        1 X92      0.002000
     52 HAN2      -12.6180   -4.0930   -1.4650 ha        1 X92      0.002000
     53 HAQ1      -10.5680    1.1010    0.6370 hc        1 X92      0.107500
     54 HAQ2       -9.3940   -0.0270    1.4670 hc        1 X92      0.107500
     55 H2         -3.8950   -2.7690   -1.6180 hn        1 X92      0.165500
@<TRIPOS>BOND
     1    1    6 1   
     2    1   15 1   
     3    1   16 1   
     4    1   17 1   
     5    2    3 1   
     6    3    4 1   
     7    5    6 1   
     8    5   13 1   
     9    5   14 1   
    10    6    7 1   
    11    7    8 1   
    12    7   18 1   
    13    7   19 1   
    14    8    9 1   
    15    9   10 1   
    16    9   23 1   
    17    9   29 1   
    18   10   11 1   
    19   10   12 1   
    20   12   22 1   
    21   20   21 1   
    22   23   28 1   
    23   23   55 1   
    24   24   25 1   
    25   24   26 1   
    26   25   30 1   
    27   26   27 1   
    28   26   33 1   
    29   31   32 1   
    30   33   34 1   
    31   33   40 1   
    32   34   35 1   
    33   34   44 1   
    34   34   48 1   
    35   35   36 1   
    36   35   46 1   
    37   35   47 1   
    38   36   37 1   
    39   36   49 1   
    40   36   50 1   
    41   37   38 1   
    42   38   39 1   
    43   39   40 1   
    44   39   53 1   
    45   39   54 1   
    46   40   41 1   
    47   40   45 1   
    48   41   42 1   
    49   41   43 1   
    50   51   52 1   
@<TRIPOS>SUBSTRUCTURE
     1 X92         1 TEMP              0 ****  ****    0 ROOT
