@<TRIPOS>MOLECULE
X92
   55    50     1     0     0
SMALL
bcc


@<TRIPOS>ATOM
      1 CAK        -1.4670    1.1980   -1.1770 c2        1 X92     -0.268000
      2 CAI         0.5330    1.1850    2.9310 c1        1 X92      0.278000
      3 CAG        -0.4110    1.1440    2.0130 c2        1 X92     -0.525000
      4 CAH        -1.4310    2.1410    1.9010 c1        1 X92     -0.013000
      5 CAJ        -2.4900    2.0200    0.9230 c3        1 X92     -0.221000
      6 CAV        -2.3520    1.0320   -0.1880 c2        1 X92     -0.086000
      7 CAM        -3.2920   -0.1250   -0.1520 c3        1 X92     -0.160000
      8 CAP        -2.8650   -1.1710    0.8620 c3        1 X92     -0.143000
      9 CAX        -4.0520   -1.9930    1.3570 c3        1 X92     -0.096000
     10 CAS        -4.1920   -5.0870   -1.0530 c1        1 X92      0.443000
     11 OAE        -4.1210   -5.7800   -0.0870 o         1 X92     -0.226500
     12 OAB        -4.2540   -4.4580   -2.0620 o         1 X92     -0.226500
     13 HAJ        -3.4320    1.7890    1.5390 hc        1 X92      0.181000
     14 HAH        -2.6750    3.0470    0.4910 hc        1 X92      0.181000
     15 HAG        -0.4110    0.2890    1.2930 ha        1 X92      0.187000
     16 HAI        -0.7920    2.0610   -1.2220 ha        1 X92      0.102500
     17 HAK        -1.3710    0.4860   -2.0050 ha        1 X92      0.102500
     18 HAM1       -4.3190    0.2590    0.1250 hc        1 X92      0.112000
     19 HAM2       -3.3660   -0.5970   -1.1680 hc        1 X92      0.112000
     20 HAP1       -2.4180   -0.6620    1.7580 hc        1 X92      0.072500
     21 HAP2       -2.0790   -1.8350    0.4190 hc        1 X92      0.072500
     22 HAX        -3.6870   -2.6950    2.1600 h1        1 X92      0.086500
     23 N          -4.6790   -2.8080    0.3380 n3        1 X92     -0.370000
     24 CA         -8.1500   -0.8380    1.4190 c1        1 X92     -0.182000
     25 CB         -8.6530   -0.8410    2.5040 c1        1 X92     -0.119000
     26 C          -7.5460   -0.9070    0.1180 c2        1 X92      0.431000
     27 O          -7.3720   -2.0200   -0.4430 o         1 X92     -0.428000
     28 H          -5.5660   -3.1400    0.6740 hn        1 X92      0.150500
     29 HA         -4.7800   -1.2690    1.8390 h1        1 X92      0.086500
     30 HB1C       -9.0810   -0.8020    3.4730 ha        1 X92      0.222000
     31 HB2C       -6.1490   -2.9800   -2.2920 ha        1 X92      0.001000
     32 HB3C       -6.0010   -2.6670   -2.8760 ha        1 X92      0.001000
     33 NBB        -7.1750    0.2610   -0.5220 n         1 X92     -0.285000
     34 CBA        -6.6970    0.1590   -1.8910 c3        1 X92     -0.033000
     35 CAO        -7.6960   -0.3280   -2.9620 c3        1 X92     -0.230000
     36 CAL        -8.8970    0.4790   -3.2480 c1        1 X92      0.030000
     37 CAN        -9.1720    1.3680   -2.2370 c1        1 X92     -0.246000
     38 CAY        -9.1850    1.9860   -1.1870 c1        1 X92     -0.065000
     39 CAQ        -8.6140    2.2560    0.0960 c3        1 X92     -0.080000
     40 CAZ        -7.2120    1.5680    0.1190 c3        1 X92     -0.063000
     41 CAT        -6.6440    1.6170    1.5850 c2        1 X92      0.342000
     42 OAF        -5.5120    1.0980    1.7800 o         1 X92     -0.553000
     43 OAC        -7.3250    2.2360    2.4410 o         1 X92     -0.553000
     44 HBA        -5.8330   -0.5720   -1.8940 h1        1 X92      0.090500
     45 HAZ        -6.5140    2.2370   -0.4680 h1        1 X92      0.089000
     46 HAO1       -7.0390   -4.3110   -0.7010 ha        1 X92      0.001000
     47 HAO2       -6.6170   -4.8390   -0.7550 ha        1 X92      0.001000
     48 HAY        -6.3080    1.1660   -2.2090 h1        1 X92      0.090500
     49 HAL1       -8.0790   -1.3530   -2.6720 hc        1 X92      0.139000
     50 HAL2       -7.1210   -0.4520   -3.9200 hc        1 X92      0.139000
     51 HAN1      -11.7970   -3.4320   -0.6700 ha        1 X92      0.001000
     52 HAN2      -12.3760   -3.7820   -0.6580 ha        1 X92      0.001000
     53 HAQ1       -9.2510    1.8360    0.9230 hc        1 X92      0.138000
     54 HAQ2       -8.4760    3.3470    0.3090 hc        1 X92      0.138000
     55 H2         -4.8620   -2.2630   -0.4870 hn        1 X92      0.150500
@<TRIPOS>BOND
     1    1    6 1   
     2    1   16 1   
     3    1   17 1   
     4    2    3 1   
     5    3    4 1   
     6    3   15 1   
     7    4    5 1   
     8    5    6 1   
     9    5   13 1   
    10    5   14 1   
    11    6    7 1   
    12    7    8 1   
    13    7   18 1   
    14    7   19 1   
    15    8    9 1   
    16    8   20 1   
    17    8   21 1   
    18    9   22 1   
    19    9   23 1   
    20    9   29 1   
    21   10   11 1   
    22   10   12 1   
    23   23   28 1   
    24   23   55 1   
    25   24   25 1   
    26   24   26 1   
    27   25   30 1   
    28   26   27 1   
    29   26   33 1   
    30   31   32 1   
    31   33   34 1   
    32   33   40 1   
    33   34   35 1   
    34   34   44 1   
    35   34   48 1   
    36   35   36 1   
    37   35   49 1   
    38   35   50 1   
    39   36   37 1   
    40   37   38 1   
    41   38   39 1   
    42   39   40 1   
    43   39   53 1   
    44   39   54 1   
    45   40   41 1   
    46   40   45 1   
    47   41   42 1   
    48   41   43 1   
    49   46   47 1   
    50   51   52 1   
@<TRIPOS>SUBSTRUCTURE
     1 X92         1 TEMP              0 ****  ****    0 ROOT
