@<TRIPOS>MOLECULE
X92
   55    51     1     0     0
SMALL
bcc


@<TRIPOS>ATOM
      1 CAK         0.1300    0.3690    1.6070 c3        1 X92     -0.176000
      2 CAI         0.0260   -0.1050    0.2140 c1        1 X92     -0.020000
      3 CAG        -1.2370   -0.3490   -0.3620 c2        1 X92     -0.559000
      4 CAH        -1.4670   -0.7360   -1.6030 c1        1 X92      0.320000
      5 CAJ         1.2670   -1.5890    2.5940 c2        1 X92     -0.240000
      6 CAV         0.1970   -0.7870    2.5550 c2        1 X92     -0.066000
      7 CAM        -0.9690   -0.9900    3.4690 c3        1 X92     -0.096000
      8 CAP        -2.2630   -0.7840    2.7760 c2        1 X92     -0.193000
      9 CAX        -3.0460   -1.7580    2.3090 c2        1 X92     -0.168000
     10 CAS        -4.2820   -1.4520    1.5220 c2        1 X92      0.345000
     11 OAE        -5.3280   -2.1470    1.6830 o         1 X92     -0.589000
     12 OAB        -4.2590   -0.4980    0.6740 o         1 X92     -0.589000
     13 HAJ         1.3360   -2.4420    3.2790 ha        1 X92      0.109500
     14 HAH         2.1280   -1.4430    1.9300 ha        1 X92      0.109500
     15 HAG        -2.1990   -0.2520    0.2480 ha        1 X92      0.262000
     16 HAI         1.0840    0.9640    1.6890 hc        1 X92      0.088500
     17 HAK        -0.7140    1.0590    1.8920 hc        1 X92      0.088500
     18 HAM1       -0.9230   -2.0210    3.9160 hc        1 X92      0.079500
     19 HAM2       -5.7890    3.8940   -0.7000 ha        1 X92      0.116000
     20 HAP1       -0.8800   -0.2570    4.3190 hc        1 X92      0.079500
     21 HAP2       -2.5570    0.2700    2.6220 ha        1 X92      0.130000
     22 HAX        -4.6970    1.5870   -0.5210 hn        1 X92      0.215500
     23 N          -5.1480    1.2880   -1.3640 n3        1 X92     -0.312000
     24 CA         -6.2150    2.0790   -1.7670 c2        1 X92      0.010000
     25 CB         -6.4160    3.3720   -1.4290 c2        1 X92     -0.335000
     26 C          -7.1420    1.4640   -2.7920 c2        1 X92      0.343000
     27 O          -6.9340    1.5620   -4.0170 o         1 X92     -0.365000
     28 H          -5.3200    0.3010   -1.3520 hn        1 X92      0.215500
     29 HA         -2.8300   -2.8260    2.4550 ha        1 X92      0.117000
     30 HB1C       -7.2160    3.9620   -1.8850 ha        1 X92      0.116000
     31 HB2C       -3.2880    1.5710    1.0830 ha        1 X92      0.001500
     32 HB3C       -2.9970    2.1850    1.0960 ha        1 X92      0.001500
     33 NBB        -8.2520    0.7660   -2.3650 n         1 X92     -0.374000
     34 CBA        -8.9540   -2.9470   -3.2960 c3        1 X92     -0.221500
     35 CAO        -8.4090   -3.4430   -1.9880 c3        1 X92     -0.221500
     36 CAL       -13.0210   -0.3620   -0.6890 c1        1 X92      0.241000
     37 CAN       -12.2620   -0.5330   -1.7550 c2        1 X92     -0.509000
     38 CAY       -10.9010   -0.1650   -1.9370 c1        1 X92      0.005000
     39 CAQ        -9.9360   -0.2640   -0.8600 c3        1 X92     -0.245000
     40 CAZ        -8.7480    0.7140   -1.0200 c3        1 X92      0.069000
     41 CAT        -7.7340    0.2860    0.0480 c2        1 X92      0.279000
     42 OAF        -7.6230    0.8310    1.1500 o         1 X92     -0.362000
     43 OAC        -7.0030   -0.7970   -0.2570 oh        1 X92     -0.329000
     44 HBA        -8.8380    0.3520   -3.0610 hn        1 X92      0.252000
     45 HAZ        -9.0950    1.7500   -0.7140 h1        1 X92      0.107000
     46 HAO1       -8.1220   -2.7230   -4.0070 hc        1 X92      0.074000
     47 HAO2       -7.7490   -2.6720   -1.5120 hc        1 X92      0.074000
     48 HAY        -9.5450   -2.0080   -3.1490 hc        1 X92      0.074000
     49 HAL1       -9.6210   -3.7100   -3.7660 hc        1 X92      0.074000
     50 HAL2       -7.8040   -4.3690   -2.1390 hc        1 X92      0.074000
     51 HAN1       -9.2380   -3.6830   -1.2780 hc        1 X92      0.074000
     52 HAN2      -12.7350   -0.9060   -2.6950 ha        1 X92      0.213000
     53 HAQ1       -9.5270   -1.3260   -0.9200 hc        1 X92      0.141000
     54 HAQ2      -10.3490   -0.1310    0.1770 hc        1 X92      0.141000
     55 H2         -6.3420   -1.0040    0.4580 ho        1 X92      0.328000
@<TRIPOS>BOND
     1    1    2 1   
     2    1    6 1   
     3    1   16 1   
     4    1   17 1   
     5    2    3 1   
     6    3    4 1   
     7    3   15 1   
     8    5    6 1   
     9    5   13 1   
    10    5   14 1   
    11    6    7 1   
    12    7    8 1   
    13    7   18 1   
    14    7   20 1   
    15    8    9 1   
    16    8   21 1   
    17    9   10 1   
    18    9   29 1   
    19   10   11 1   
    20   10   12 1   
    21   19   25 1   
    22   22   23 1   
    23   23   24 1   
    24   23   28 1   
    25   24   25 1   
    26   24   26 1   
    27   25   30 1   
    28   26   27 1   
    29   26   33 1   
    30   31   32 1   
    31   33   40 1   
    32   33   44 1   
    33   34   35 1   
    34   34   46 1   
    35   34   48 1   
    36   34   49 1   
    37   35   47 1   
    38   35   50 1   
    39   35   51 1   
    40   36   37 1   
    41   37   38 1   
    42   37   52 1   
    43   38   39 1   
    44   39   40 1   
    45   39   53 1   
    46   39   54 1   
    47   40   41 1   
    48   40   45 1   
    49   41   42 1   
    50   41   43 1   
    51   43   55 1   
@<TRIPOS>SUBSTRUCTURE
     1 X92         1 TEMP              0 ****  ****    0 ROOT
