@<TRIPOS>MOLECULE
X92
   54    56     1     0     0
SMALL
bcc


@<TRIPOS>ATOM
      1 CAK        -2.1130   -2.1380    0.1900 ca        1 X92     -0.131000
      2 CAI        -2.4930   -3.4410    0.5010 ca        1 X92     -0.143500
      3 CAG        -3.6360   -3.6790    1.2660 ca        1 X92     -0.164000
      4 CAH        -4.4010   -2.6050    1.7160 ca        1 X92     -0.143500
      5 CAJ        -4.0250   -1.2980    1.4070 ca        1 X92     -0.131000
      6 CAV        -2.8780   -1.0520    0.6440 ca        1 X92     -0.040300
      7 CAM        -2.4530    0.3360    0.3150 c3        1 X92     -0.049100
      8 CAP        -2.6110    0.6460   -1.1620 c3        1 X92     -0.093400
      9 CAX        -2.0390    2.0260   -1.5340 c3        1 X92      0.053500
     10 CAS        -3.0110    2.6170   -2.6220 c         1 X92      0.928600
     11 OAE        -3.8080    3.5180   -2.2310 o         1 X92     -0.850800
     12 OAB        -2.9910    2.1440   -3.7910 o         1 X92     -0.850800
     13 HAJ        -4.6350   -0.4530    1.7590 ha        1 X92      0.152500
     14 HAH        -5.3040   -2.7870    2.3150 ha        1 X92      0.109500
     15 HAG        -3.9320   -4.7080    1.5090 ha        1 X92      0.102000
     16 HAI        -1.8890   -4.2860    0.1400 ha        1 X92      0.109500
     17 HAK        -1.2110   -1.9370   -0.4190 ha        1 X92      0.152500
     18 HAM1       -3.0420    1.0760    0.9190 hc        1 X92      0.047700
     19 HAM2       -1.3690    0.4540    0.5960 hc        1 X92      0.047700
     20 HAP1       -2.1090   -0.1540   -1.7680 hc        1 X92      0.053200
     21 HAP2       -3.7010    0.6320   -1.4230 hc        1 X92      0.053200
     22 HAX        -2.1140    2.6990   -0.6330 h1        1 X92      0.043700
     23 N          -0.6700    2.0600   -2.0120 n3        1 X92     -0.795200
     24 CA          0.4260    1.8870   -1.0770 c3        1 X92      0.143500
     25 CB          0.2990    2.7570    0.1680 c3        1 X92     -0.106100
     26 C           0.7790    0.4100   -0.7580 c         1 X92      0.631100
     27 O           0.2980   -0.5030   -1.4810 o         1 X92     -0.688100
     28 H          -0.5710    1.4310   -2.7880 hn        1 X92      0.384800
     29 HA          1.3480    2.2420   -1.6440 h1        1 X92      0.080700
     30 HB1C       -0.2600    2.2320    0.9770 hc        1 X92      0.048700
     31 HB2C        1.3230    3.0330    0.5310 hc        1 X92      0.048700
     32 HB3C       -0.2400    3.7070   -0.0710 hc        1 X92      0.048700
     33 NBB         1.6090    0.0180    0.2730 n         1 X92     -0.437800
     34 CBA         1.9930   -1.3870    0.3710 c3        1 X92      0.117700
     35 CAO         2.9820   -1.8860   -0.7000 c3        1 X92     -0.109400
     36 CAL         3.8830   -2.8870    0.0020 c3        1 X92     -0.068400
     37 CAN         3.9120   -2.4990    1.4760 c3        1 X92     -0.065400
     38 CAY         2.7370   -1.5630    1.7280 c3        1 X92     -0.076700
     39 CAQ         3.1260   -0.1480    2.1490 c3        1 X92     -0.066400
     40 CAZ         2.4320    0.8260    1.1620 c3        1 X92     -0.020300
     41 CAT         3.5400    1.7030    0.4910 c         1 X92      0.904600
     42 OAF         3.6670    2.8730    0.9530 o         1 X92     -0.834800
     43 OAC         4.2660    1.2050   -0.4110 o         1 X92     -0.834800
     44 HBA         1.0580   -2.0120    0.3360 h1        1 X92      0.048700
     45 HAZ         1.7530    1.5040    1.7530 h1        1 X92      0.048700
     46 HAO1        2.4310   -2.3420   -1.5560 hc        1 X92      0.075700
     47 HAO2        3.5920   -1.0230   -1.0850 hc        1 X92      0.075700
     48 HAY         2.0450   -2.0110    2.4850 hc        1 X92      0.031700
     49 HAL1        3.4830   -3.9260   -0.1150 hc        1 X92      0.018200
     50 HAL2        4.9120   -2.8730   -0.4340 hc        1 X92      0.018200
     51 HAN1        3.8350   -3.4090    2.1240 hc        1 X92      0.024200
     52 HAN2        4.8800   -1.9960    1.7220 hc        1 X92      0.024200
     53 HAQ1        2.7910    0.0600    3.1940 hc        1 X92      0.037700
     54 HAQ2        4.2330    0.0050    2.1030 hc        1 X92      0.037700
@<TRIPOS>BOND
     1    1    2 ar  
     2    1    6 ar  
     3    1   17 1   
     4    2    3 ar  
     5    2   16 1   
     6    3    4 ar  
     7    3   15 1   
     8    4    5 ar  
     9    4   14 1   
    10    5    6 ar  
    11    5   13 1   
    12    6    7 1   
    13    7    8 1   
    14    7   18 1   
    15    7   19 1   
    16    8    9 1   
    17    8   20 1   
    18    8   21 1   
    19    9   10 1   
    20    9   22 1   
    21    9   23 1   
    22   10   11 1   
    23   10   12 1   
    24   23   24 1   
    25   23   28 1   
    26   24   25 1   
    27   24   26 1   
    28   24   29 1   
    29   25   30 1   
    30   25   31 1   
    31   25   32 1   
    32   26   27 2   
    33   26   33 1   
    34   33   34 1   
    35   33   40 1   
    36   34   35 1   
    37   34   38 1   
    38   34   44 1   
    39   35   36 1   
    40   35   46 1   
    41   35   47 1   
    42   36   37 1   
    43   36   49 1   
    44   36   50 1   
    45   37   38 1   
    46   37   51 1   
    47   37   52 1   
    48   38   39 1   
    49   38   48 1   
    50   39   40 1   
    51   39   53 1   
    52   39   54 1   
    53   40   41 1   
    54   40   45 1   
    55   41   42 1   
    56   41   43 1   
@<TRIPOS>SUBSTRUCTURE
     1 X92         1 TEMP              0 ****  ****    0 ROOT
