@<TRIPOS>MOLECULE
X93
   58    60     1     0     0
SMALL
bcc


@<TRIPOS>ATOM
      1 CAJ        -0.2980   -0.5620   -0.0380 ca        1 X93     -0.125500
      2 CAH         0.9220    0.1020    0.0760 ca        1 X93     -0.143000
      3 CAG         0.9710    1.3880    0.6110 ca        1 X93     -0.148000
      4 CAI        -0.2050    2.0100    1.0320 ca        1 X93     -0.143000
      5 CAK        -1.4280    1.3510    0.9210 ca        1 X93     -0.125500
      6 CAW        -1.4800    0.0570    0.3840 ca        1 X93     -0.064300
      7 CAN        -2.7930   -0.6350    0.2590 c3        1 X93     -0.075100
      8 CAQ        -2.9510   -1.7330    1.2950 c3        1 X93     -0.078400
      9 CAY        -4.4090   -1.9800    1.6700 c3        1 X93     -0.032500
     10 CAT        -4.5140   -3.4100    2.3460 c         1 X93      0.917600
     11 OAE        -4.5610   -4.3780    1.5570 o         1 X93     -0.794800
     12 OAB        -4.5460   -3.4360    3.6050 o         1 X93     -0.794800
     13 N          -4.9280   -0.9250    2.5990 n4        1 X93     -0.755000
     14 CA         -6.3760   -0.6200    2.3950 c3        1 X93      0.069500
     15 CB         -7.2750   -1.8280    2.6340 c3        1 X93     -0.115100
     16 C          -6.7920    0.4810    3.4120 c         1 X93      0.650100
     17 O          -6.7540    0.1860    4.6250 o         1 X93     -0.620100
     18 NBC        -7.3050    1.6670    2.9330 n         1 X93     -0.412800
     19 CBB        -7.7100    2.7680    3.8090 c3        1 X93      0.096700
     20 CAP        -7.4870    2.7200    5.3130 c3        1 X93     -0.077400
     21 CAM        -8.1030    3.9710    5.9210 c3        1 X93     -0.075400
     22 CAL        -7.6090    5.2620    5.2950 c3        1 X93     -0.077400
     23 CAO        -7.7050    5.2600    3.7760 c3        1 X93     -0.062400
     24 CAZ        -7.0010    4.0350    3.2510 c3        1 X93     -0.094700
     25 CAR        -6.9820    3.7820    1.7520 c3        1 X93     -0.064400
     26 CBA        -6.8990    2.2370    1.6350 c3        1 X93     -0.037300
     27 CAU        -5.4740    1.8470    1.1560 c         1 X93      0.886600
     28 OAF        -5.3500    1.5050   -0.0480 o         1 X93     -0.825800
     29 OAC        -4.5130    1.8510    1.9870 o         1 X93     -0.825800
     30 HAJ        -0.3380   -1.5770   -0.4590 ha        1 X93      0.157500
     31 HAH         1.8470   -0.3910   -0.2560 ha        1 X93      0.117500
     32 HAG         1.9330    1.9110    0.7010 ha        1 X93      0.112000
     33 HAI        -0.1710    3.0240    1.4540 ha        1 X93      0.117500
     34 HAK        -2.3690    1.8370    1.2500 ha        1 X93      0.157500
     35 HAN1       -3.6210    0.1300    0.3490 hc        1 X93      0.078200
     36 HAN2       -2.8830   -1.0820   -0.7670 hc        1 X93      0.078200
     37 HAQ1       -2.5600   -2.7030    0.8840 hc        1 X93      0.066200
     38 HAQ2       -2.3480   -1.5000    2.2120 hc        1 X93      0.066200
     39 HAY        -5.0400   -1.9790    0.7390 hx        1 X93      0.090700
     40 H          -4.3900   -0.0440    2.4760 hn        1 X93      0.476300
     41 HA         -6.4940   -0.2700    1.3250 hx        1 X93      0.122700
     42 HB1C       -7.1980   -2.1710    3.6960 hc        1 X93      0.069700
     43 HB2C       -8.3290   -1.5350    2.4170 hc        1 X93      0.069700
     44 HB3C       -6.9790   -2.6770    1.9680 hc        1 X93      0.069700
     45 HBB        -8.8260    2.8730    3.6350 h1        1 X93      0.042700
     46 HBA        -7.6380    1.8720    0.8670 h1        1 X93      0.062700
     47 HAP1       -7.9680    1.8090    5.7550 hc        1 X93      0.065700
     48 HAP2       -6.3930    2.6640    5.5430 hc        1 X93      0.065700
     49 HAZ        -5.9350    4.0460    3.6170 hc        1 X93      0.078700
     50 HAM1       -9.2190    3.9170    5.8120 hc        1 X93      0.032700
     51 HAM2       -7.8760    3.9880    7.0190 hc        1 X93      0.032700
     52 HAL1       -6.5380    5.4250    5.5890 hc        1 X93      0.033700
     53 HAL2       -8.2040    6.1200    5.7030 hc        1 X93      0.033700
     54 HAO1       -7.2280    6.1870    3.3650 hc        1 X93      0.036200
     55 HAO2       -8.7790    5.2630    3.4580 hc        1 X93      0.036200
     56 HAR1       -7.9120    4.1600    1.2640 hc        1 X93      0.050700
     57 HAR2       -6.0990    4.2550    1.2590 hc        1 X93      0.050700
     58 H2         -4.8030   -1.2880    3.5620 hn        1 X93      0.476300
@<TRIPOS>BOND
     1    1    2 ar  
     2    1    6 ar  
     3    1   30 1   
     4    2    3 ar  
     5    2   31 1   
     6    3    4 ar  
     7    3   32 1   
     8    4    5 ar  
     9    4   33 1   
    10    5    6 ar  
    11    5   34 1   
    12    6    7 1   
    13    7    8 1   
    14    7   35 1   
    15    7   36 1   
    16    8    9 1   
    17    8   37 1   
    18    8   38 1   
    19    9   10 1   
    20    9   13 1   
    21    9   39 1   
    22   10   11 1   
    23   10   12 1   
    24   13   14 1   
    25   13   40 1   
    26   13   58 1   
    27   14   15 1   
    28   14   16 1   
    29   14   41 1   
    30   15   42 1   
    31   15   43 1   
    32   15   44 1   
    33   16   17 2   
    34   16   18 1   
    35   18   19 1   
    36   18   26 1   
    37   19   20 1   
    38   19   24 1   
    39   19   45 1   
    40   20   21 1   
    41   20   47 1   
    42   20   48 1   
    43   21   22 1   
    44   21   50 1   
    45   21   51 1   
    46   22   23 1   
    47   22   52 1   
    48   22   53 1   
    49   23   24 1   
    50   23   54 1   
    51   23   55 1   
    52   24   25 1   
    53   24   49 1   
    54   25   26 1   
    55   25   56 1   
    56   25   57 1   
    57   26   27 1   
    58   26   46 1   
    59   27   28 1   
    60   27   29 1   
@<TRIPOS>SUBSTRUCTURE
     1 X93         1 TEMP              0 ****  ****    0 ROOT
