@<TRIPOS>MOLECULE
X93
   58    60     1     0     0
SMALL
bcc


@<TRIPOS>ATOM
      1 CAJ        -0.3060   -0.5850   -0.0410 ca        1 X93     -0.125500
      2 CAH         0.9120    0.0870    0.0520 ca        1 X93     -0.143000
      3 CAG         0.9580    1.3840    0.5630 ca        1 X93     -0.148000
      4 CAI        -0.2190    2.0070    0.9810 ca        1 X93     -0.143000
      5 CAK        -1.4390    1.3400    0.8910 ca        1 X93     -0.125500
      6 CAW        -1.4880    0.0360    0.3780 ca        1 X93     -0.064300
      7 CAN        -2.7980   -0.6640    0.2750 c3        1 X93     -0.075100
      8 CAQ        -2.9430   -1.7440    1.3330 c3        1 X93     -0.078400
      9 CAY        -4.3970   -1.9910    1.7230 c3        1 X93     -0.032500
     10 CAT        -4.4900   -3.4080    2.4260 c         1 X93      0.917600
     11 OAE        -4.5370   -4.3920    1.6550 o         1 X93     -0.794800
     12 OAB        -4.5140   -3.4110    3.6860 o         1 X93     -0.794800
     13 N          -4.9150   -0.9210    2.6350 n4        1 X93     -0.755000
     14 CA         -6.3670   -0.6280    2.4350 c3        1 X93      0.069500
     15 CB         -7.2580   -1.8350    2.7020 c3        1 X93     -0.115100
     16 C          -6.7810    0.4900    3.4330 c         1 X93      0.650100
     17 O          -6.7340    0.2190    4.6520 o         1 X93     -0.620100
     18 NBC        -7.3040    1.6640    2.9360 n         1 X93     -0.412800
     19 CBB        -7.7090    2.7800    3.7930 c3        1 X93      0.096700
     20 CAP        -7.4770    2.7610    5.2970 c3        1 X93     -0.077400
     21 CAM        -8.0950    4.0200    5.8860 c3        1 X93     -0.075400
     22 CAL        -7.6110    5.3010    5.2320 c3        1 X93     -0.077400
     23 CAO        -7.7160    5.2710    3.7150 c3        1 X93     -0.062400
     24 CAZ        -7.0090    4.0390    3.2080 c3        1 X93     -0.094700
     25 CAR        -6.9990    3.7590    1.7140 c3        1 X93     -0.064400
     26 CBA        -6.9080    2.2120    1.6250 c3        1 X93     -0.037300
     27 CAU        -5.4850    1.8210    1.1440 c         1 X93      0.886600
     28 OAF        -5.3670    1.4570   -0.0540 o         1 X93     -0.825800
     29 OAC        -4.5190    1.8450    1.9680 o         1 X93     -0.825800
     30 HAJ        -0.3420   -1.6080   -0.4420 ha        1 X93      0.157500
     31 HAH         1.8370   -0.4070   -0.2770 ha        1 X93      0.117500
     32 HAG         1.9180    1.9130    0.6360 ha        1 X93      0.112000
     33 HAI        -0.1860    3.0300    1.3830 ha        1 X93      0.117500
     34 HAK        -2.3800    1.8270    1.2170 ha        1 X93      0.157500
     35 HAN1       -3.6290    0.0980    0.3560 hc        1 X93      0.078200
     36 HAN2       -2.8920   -1.1310   -0.7420 hc        1 X93      0.078200
     37 HAQ1       -2.5490   -2.7200    0.9380 hc        1 X93      0.066200
     38 HAQ2       -2.3350   -1.4900    2.2410 hc        1 X93      0.066200
     39 HAY        -5.0340   -2.0110    0.7950 hx        1 X93      0.090700
     40 H          -4.7830   -1.2660    3.6040 hn        1 X93      0.476300
     41 HA         -6.4930   -0.2980    1.3590 hx        1 X93      0.122700
     42 HB1C       -6.9620   -2.6950    2.0500 hc        1 X93      0.069700
     43 HB2C       -8.3150   -1.5510    2.4870 hc        1 X93      0.069700
     44 HB3C       -7.1720   -2.1580    3.7700 hc        1 X93      0.069700
     45 HBB        -8.8260    2.8760    3.6250 h1        1 X93      0.042700
     46 HBA        -7.6510    1.8300    0.8690 h1        1 X93      0.062700
     47 HAP1       -6.3800    2.7140    5.5210 hc        1 X93      0.065700
     48 HAP2       -7.9500    1.8550    5.7580 hc        1 X93      0.065700
     49 HAZ        -5.9410    4.0630    3.5670 hc        1 X93      0.078700
     50 HAM1       -7.8610    4.0580    6.9820 hc        1 X93      0.032700
     51 HAM2       -9.2110    3.9580    5.7840 hc        1 X93      0.032700
     52 HAL1       -6.5390    5.4750    5.5170 hc        1 X93      0.033700
     53 HAL2       -8.2080    6.1640    5.6280 hc        1 X93      0.033700
     54 HAO1       -7.2460    6.1920    3.2840 hc        1 X93      0.036200
     55 HAO2       -8.7930    5.2620    3.4030 hc        1 X93      0.036200
     56 HAR1       -7.9340    4.1230    1.2240 hc        1 X93      0.050700
     57 HAR2       -6.1220    4.2270    1.2060 hc        1 X93      0.050700
     58 H2         -4.3830   -0.0400    2.4920 hn        1 X93      0.476300
@<TRIPOS>BOND
     1    1    2 ar  
     2    1    6 ar  
     3    1   30 1   
     4    2    3 ar  
     5    2   31 1   
     6    3    4 ar  
     7    3   32 1   
     8    4    5 ar  
     9    4   33 1   
    10    5    6 ar  
    11    5   34 1   
    12    6    7 1   
    13    7    8 1   
    14    7   35 1   
    15    7   36 1   
    16    8    9 1   
    17    8   37 1   
    18    8   38 1   
    19    9   10 1   
    20    9   13 1   
    21    9   39 1   
    22   10   11 1   
    23   10   12 1   
    24   13   14 1   
    25   13   40 1   
    26   13   58 1   
    27   14   15 1   
    28   14   16 1   
    29   14   41 1   
    30   15   42 1   
    31   15   43 1   
    32   15   44 1   
    33   16   17 2   
    34   16   18 1   
    35   18   19 1   
    36   18   26 1   
    37   19   20 1   
    38   19   24 1   
    39   19   45 1   
    40   20   21 1   
    41   20   47 1   
    42   20   48 1   
    43   21   22 1   
    44   21   50 1   
    45   21   51 1   
    46   22   23 1   
    47   22   52 1   
    48   22   53 1   
    49   23   24 1   
    50   23   54 1   
    51   23   55 1   
    52   24   25 1   
    53   24   49 1   
    54   25   26 1   
    55   25   56 1   
    56   25   57 1   
    57   26   27 1   
    58   26   46 1   
    59   27   28 1   
    60   27   29 1   
@<TRIPOS>SUBSTRUCTURE
     1 X93         1 TEMP              0 ****  ****    0 ROOT
