@<TRIPOS>MOLECULE
X93
   57    56     1     0     0
SMALL
bcc


@<TRIPOS>ATOM
      1 CAJ         5.8350    0.9420    0.6520 c1        1 X93     -0.089500
      2 CAH         6.8700    1.4280    1.4460 c1        1 X93     -0.088750
      3 CAG         7.3770    0.6560    2.4680 c1        1 X93     -0.088750
      4 CAI         6.8520   -0.6200    2.7090 c1        1 X93     -0.088750
      5 CAK         5.8290   -1.1010    1.9240 c1        1 X93     -0.088750
      6 CAW         5.3150   -0.3140    0.8860 c1        1 X93     -0.003100
      7 CAN         4.2980   -0.8990   -0.0740 c3        1 X93     -0.081300
      8 CAQ         2.8550   -0.5840    0.4320 c3        1 X93     -0.108400
      9 CAY         1.8640   -0.9410   -0.6460 c3        1 X93      0.062500
     10 CAT         2.3170   -2.1760   -1.3420 c         1 X93      0.917600
     11 OAE         2.9290   -2.0910   -2.4260 o         1 X93     -0.857300
     12 OAB         2.1280   -3.3000   -0.8150 o         1 X93     -0.857300
     13 N           0.5320   -1.1730   -0.0470 n3        1 X93     -0.806200
     14 CA         -0.4640   -0.4290   -0.7720 c3        1 X93      0.124500
     15 CB         -0.3090   -0.6990   -2.2770 c3        1 X93     -0.078100
     16 C          -1.8280   -0.8590   -0.3300 c         1 X93      0.647100
     17 O          -2.0800   -2.0410   -0.2060 o         1 X93     -0.660100
     18 NBC        -2.8550    0.1600    0.0210 n         1 X93     -0.437800
     19 CBB        -3.4820    0.0440    0.5010 c3        1 X93      0.108700
     20 CAP        -4.0140   -1.0010    0.3190 c3        1 X93     -0.081400
     21 CAM        -4.8710   -1.0470   -1.0660 c3        1 X93     -0.071400
     22 CAL        -5.8080    0.0800   -1.1820 c3        1 X93     -0.072400
     23 CAO        -5.2380    1.1780   -0.9970 c3        1 X93     -0.066400
     24 CAZ        -4.3860    1.2000    0.3860 c3        1 X93     -0.072700
     25 CAR        -3.6790    2.1770    0.3550 c3        1 X93     -0.079400
     26 CBA        -2.6720    1.7980   -0.0890 c3        1 X93     -0.031300
     27 CAU        -1.3600    2.3730    0.6710 c         1 X93      0.903600
     28 OAF        -1.0720    1.9550    1.8320 o         1 X93     -0.825800
     29 OAC        -0.7400    3.3630    0.1890 o         1 X93     -0.825800
     30 HAJ         5.4830    1.4820   -0.0600 ha        1 X93      0.064500
     31 HAH         7.2180    2.3690    1.3030 ha        1 X93      0.071250
     32 HAG         8.0880    1.0020    3.0280 ha        1 X93      0.071250
     33 HAI         7.1980   -1.1610    3.4550 ha        1 X93      0.071250
     34 HAK         5.5100   -2.0650    2.0380 ha        1 X93      0.071250
     35 HAN1        4.4260   -0.5010   -0.9740 hc        1 X93      0.061700
     36 HAN2        4.4200   -1.8710   -0.1270 hc        1 X93      0.061700
     37 HAQ1        2.7820    0.3570    0.6390 hc        1 X93      0.060200
     38 HAQ2        2.6680   -1.1150    1.2400 hc        1 X93      0.060200
     39 HAY         1.8080   -0.1840   -1.3130 h1        1 X93      0.048700
     40 H           0.5370   -0.8980    0.8610 hn        1 X93      0.384800
     41 HA         -0.3490    0.5360   -0.5960 h1        1 X93      0.110700
     42 HB1C        0.4900   -0.1890   -2.6300 hc        1 X93      0.027367
     43 HB2C       -1.1240   -0.4060   -2.7510 hc        1 X93      0.027367
     44 HB3C       -0.1770   -1.6450   -2.4220 hc        1 X93      0.027367
     45 HBB        -3.1360    0.0360    1.4440 h1        1 X93      0.048700
     46 HBA        -2.5300    2.0970   -0.9980 h1        1 X93      0.039700
     47 HAP1       -3.3320   -1.6960    0.2880 hc        1 X93      0.051700
     48 HAP2       -4.6180   -1.1850    1.0710 hc        1 X93      0.051700
     49 HAZ        -4.9830    1.2380    1.1520 hc        1 X93      0.032700
     50 HAM1       -4.2600   -1.0250   -1.8130 hc        1 X93      0.032700
     51 HAM2       -5.3900   -1.9030   -1.0970 hc        1 X93      0.032700
     52 HAL1       -6.5240   -0.0260   -0.5110 hc        1 X93      0.016200
     53 HAL2       -6.2160    0.0740   -2.0990 hc        1 X93      0.016200
     54 HAO1       -5.9050    1.8760   -0.9660 hc        1 X93      0.031700
     55 HAO2       -4.6280    1.3530   -1.7520 hc        1 X93      0.031700
     56 HAR1       -4.0590    2.8420   -0.2060 hc        1 X93      0.046200
     57 HAR2       -3.5410    2.5330    1.2730 hc        1 X93      0.046200
@<TRIPOS>BOND
     1    1    6 3   
     2    1   30 1   
     3    2    3 3   
     4    2   31 1   
     5    3   32 1   
     6    4    5 3   
     7    4   33 1   
     8    5   34 1   
     9    6    7 1   
    10    7    8 1   
    11    7   35 1   
    12    7   36 1   
    13    8    9 1   
    14    8   37 1   
    15    8   38 1   
    16    9   10 1   
    17    9   13 1   
    18    9   39 1   
    19   10   11 1   
    20   10   12 1   
    21   13   14 1   
    22   13   40 1   
    23   14   15 1   
    24   14   16 1   
    25   14   41 1   
    26   15   42 1   
    27   15   43 1   
    28   15   44 1   
    29   16   17 2   
    30   16   18 1   
    31   18   19 1   
    32   18   26 1   
    33   19   20 1   
    34   19   24 1   
    35   19   45 1   
    36   20   21 1   
    37   20   47 1   
    38   20   48 1   
    39   21   22 1   
    40   21   50 1   
    41   21   51 1   
    42   22   23 1   
    43   22   52 1   
    44   22   53 1   
    45   23   24 1   
    46   23   54 1   
    47   23   55 1   
    48   24   25 1   
    49   24   49 1   
    50   25   26 1   
    51   25   56 1   
    52   25   57 1   
    53   26   27 1   
    54   26   46 1   
    55   27   28 1   
    56   27   29 1   
@<TRIPOS>SUBSTRUCTURE
     1 X93         1 TEMP              0 ****  ****    0 ROOT
