@<TRIPOS>MOLECULE
X93
   58    60     1     0     0
SMALL
bcc


@<TRIPOS>ATOM
      1 CAY         1.6770   -0.5800    0.5000 c3        1 X93     -0.032500
      2 CAQ         0.2260   -0.1630    0.2810 c3        1 X93     -0.078400
      3 CAN         0.0910    0.9900   -0.6980 c3        1 X93     -0.075100
      4 CAW        -1.2150    0.9580   -1.4110 ca        1 X93     -0.064300
      5 CAJ        -2.3990    1.3240   -0.7610 ca        1 X93     -0.125500
      6 CAK        -1.2590    0.5660   -2.7560 ca        1 X93     -0.125500
      7 CAH        -3.6130    1.2990   -1.4450 ca        1 X93     -0.143000
      8 CAI        -2.4760    0.5430   -3.4350 ca        1 X93     -0.143000
      9 CAG        -3.6540    0.9080   -2.7830 ca        1 X93     -0.148000
     10 CAT         1.7590   -1.4100    1.8470 c         1 X93      0.917600
     11 OAB         1.8040   -0.7320    2.8980 o         1 X93     -0.794800
     12 OAE         1.7780   -2.6640    1.7360 o         1 X93     -0.794800
     13 N           2.1980   -1.3930   -0.6460 ny        1 X93     -0.755000
     14 CA          3.6520   -1.1740   -0.9120 c3        1 X93      0.069500
     15 C           4.0680   -2.0680   -2.1150 c         1 X93      0.650100
     16 O           4.0150   -3.3060   -1.9550 o         1 X93     -0.620100
     17 CB          4.5350   -1.5530    0.2700 c3        1 X93     -0.115100
     18 NBC         4.5990   -1.4690   -3.2360 n         1 X93     -0.412800
     19 CBB         5.0080   -2.2230   -4.4220 c3        1 X93      0.096700
     20 CAP         4.7700   -3.7210   -4.5410 c3        1 X93     -0.077400
     21 CAM         5.3930   -4.1950   -5.8450 c3        1 X93     -0.075400
     22 CAL         4.9190   -3.4260   -7.0640 c3        1 X93     -0.077400
     23 CAO         5.0290   -1.9180   -6.8960 c3        1 X93     -0.062400
     24 CAZ         4.3170   -1.5230   -5.6270 c3        1 X93     -0.094700
     25 CAR         4.3110   -0.0590   -5.2120 c3        1 X93     -0.064400
     26 CBA         4.2120   -0.1110   -3.6640 c3        1 X93     -0.037300
     27 CAU         2.7890    0.3380   -3.2380 c         1 X93      0.886600
     28 OAF         2.6740    1.4990   -2.7670 o         1 X93     -0.825800
     29 OAC         1.8190   -0.4760   -3.3420 o         1 X93     -0.825800
     30 HAY         2.3180    0.3390    0.6080 hx        1 X93      0.090700
     31 HAQ1       -0.1720    0.1430    1.2870 hc        1 X93      0.066200
     32 HAQ2       -0.3840   -1.0410   -0.0570 hc        1 X93      0.066200
     33 HAN1        0.9260    0.9750   -1.4600 hc        1 X93      0.078200
     34 HAN2        0.1880    1.9600   -0.1390 hc        1 X93      0.078200
     35 HAJ        -2.3660    1.6310    0.2940 ha        1 X93      0.157500
     36 HAK        -0.3170    0.2810   -3.2660 ha        1 X93      0.157500
     37 HAH        -4.5390    1.5870   -0.9280 ha        1 X93      0.117500
     38 HAI        -2.5050    0.2350   -4.4900 ha        1 X93      0.117500
     39 HAG        -4.6110    0.8880   -3.3220 ha        1 X93      0.112000
     40 H           2.0590   -2.3890   -0.3920 hn        1 X93      0.476300
     41 HA          3.7840   -0.0730   -1.1420 hx        1 X93      0.122700
     42 HB1C        5.5950   -1.3180    0.0130 hc        1 X93      0.069700
     43 HB2C        4.2370   -0.9810    1.1840 hc        1 X93      0.069700
     44 HB3C        4.4430   -2.6460    0.4940 hc        1 X93      0.069700
     45 HBB         6.1260   -2.0510   -4.4970 h1        1 X93      0.042700
     46 HBA         4.9560    0.6040   -3.2110 h1        1 X93      0.062700
     47 HAP1        5.2360   -4.2650   -3.6790 hc        1 X93      0.065700
     48 HAP2        3.6720   -3.9440   -4.5210 hc        1 X93      0.065700
     49 HAZ         3.2480   -1.8730   -5.6880 hc        1 X93      0.078700
     50 HAM1        6.5090   -4.1040   -5.7690 hc        1 X93      0.032700
     51 HAM2        5.1550   -5.2820   -5.9840 hc        1 X93      0.032700
     52 HAL1        5.5190   -3.7440   -7.9560 hc        1 X93      0.033700
     53 HAL2        3.8470   -3.6890   -7.2690 hc        1 X93      0.033700
     54 HAO1        6.1070   -1.6130   -6.8530 hc        1 X93      0.036200
     55 HAO2        4.5660   -1.4030   -7.7760 hc        1 X93      0.036200
     56 HAR1        3.4380    0.4920   -5.6360 hc        1 X93      0.050700
     57 HAR2        5.2500    0.4570   -5.5260 hc        1 X93      0.050700
     58 H2          1.6710   -1.1680   -1.5130 hn        1 X93      0.476300
@<TRIPOS>BOND
     1    1    2 1   
     2    1   10 1   
     3    1   13 1   
     4    1   30 1   
     5    2    3 1   
     6    2   31 1   
     7    2   32 1   
     8    3    4 1   
     9    3   33 1   
    10    3   34 1   
    11    4    5 ar  
    12    4    6 ar  
    13    5    7 ar  
    14    5   35 1   
    15    6    8 ar  
    16    6   36 1   
    17    7    9 ar  
    18    7   37 1   
    19    8    9 ar  
    20    8   38 1   
    21    9   39 1   
    22   10   11 1   
    23   10   12 1   
    24   13   14 1   
    25   13   40 1   
    26   13   58 1   
    27   14   15 1   
    28   14   17 1   
    29   14   41 1   
    30   15   16 2   
    31   15   18 1   
    32   17   42 1   
    33   17   43 1   
    34   17   44 1   
    35   18   19 1   
    36   18   26 1   
    37   19   20 1   
    38   19   24 1   
    39   19   45 1   
    40   20   21 1   
    41   20   47 1   
    42   20   48 1   
    43   21   22 1   
    44   21   50 1   
    45   21   51 1   
    46   22   23 1   
    47   22   52 1   
    48   22   53 1   
    49   23   24 1   
    50   23   54 1   
    51   23   55 1   
    52   24   25 1   
    53   24   49 1   
    54   25   26 1   
    55   25   56 1   
    56   25   57 1   
    57   26   27 1   
    58   26   46 1   
    59   27   28 1   
    60   27   29 1   
@<TRIPOS>SUBSTRUCTURE
     1 X93         1 TEMP              0 ****  ****    0 ROOT
