@<TRIPOS>MOLECULE
X93
   57    59     1     0     0
SMALL
bcc


@<TRIPOS>ATOM
      1 CAJ        -4.5300   -1.6710   -1.7890 ca        1 X93     -0.138000
      2 CAH        -5.7000   -2.3240   -2.1670 ca        1 X93     -0.141500
      3 CAG        -6.8070   -2.3290   -1.3170 ca        1 X93     -0.170000
      4 CAI        -6.7330   -1.6750   -0.0890 ca        1 X93     -0.141500
      5 CAK        -5.5620   -1.0200    0.2920 ca        1 X93     -0.138000
      6 CAW        -4.4450   -1.0100   -0.5520 ca        1 X93     -0.031300
      7 CAN        -3.1670   -0.3450   -0.1830 c3        1 X93     -0.057100
      8 CAQ        -3.2790    0.6650    0.9380 c3        1 X93     -0.052400
      9 CAY        -2.0060    1.5140    1.0750 c3        1 X93      0.048500
     10 CAT        -2.3100    2.6040    2.1550 c         1 X93      0.887600
     11 OAE        -2.5800    3.7690    1.7440 o         1 X93     -0.851300
     12 OAB        -2.2810    2.2750    3.3750 o         1 X93     -0.851300
     13 N          -0.8430    0.6810    1.3730 n3        1 X93     -0.804200
     14 CA          0.3800    1.1250    0.7190 c3        1 X93      0.116500
     15 CB          0.8460    2.5390    1.0810 c3        1 X93     -0.133100
     16 C           1.5490    0.1830    1.0870 c         1 X93      0.662100
     17 O           1.7160   -0.2170    2.2630 o         1 X93     -0.666100
     18 NBC         2.4260   -0.2390    0.1010 n         1 X93     -0.422800
     19 CBB         3.6710   -0.9000    0.4840 c3        1 X93      0.109700
     20 CAP         3.6160   -2.3040    1.0770 c3        1 X93     -0.080400
     21 CAM         5.0390   -2.7140    1.4270 c3        1 X93     -0.070400
     22 CAL         6.0160   -2.5880    0.2700 c3        1 X93     -0.072400
     23 CAO         5.9570   -1.2350   -0.4270 c3        1 X93     -0.057400
     24 CAZ         4.5270   -0.9600   -0.8100 c3        1 X93     -0.094700
     25 CAR         4.1420    0.3270   -1.5240 c3        1 X93     -0.068400
     26 CBA         2.6310    0.4570   -1.1790 c3        1 X93     -0.031300
     27 CAU         1.7870   -0.1390   -2.3580 c         1 X93      0.920600
     28 OAF         2.2360   -1.1470   -2.9710 o         1 X93     -0.834300
     29 OAC         0.7310    0.4780   -2.6600 o         1 X93     -0.834300
     30 HAJ        -3.6560   -1.6670   -2.4590 ha        1 X93      0.145500
     31 HAH        -5.7510   -2.8370   -3.1370 ha        1 X93      0.108500
     32 HAG        -7.7300   -2.8430   -1.6160 ha        1 X93      0.102000
     33 HAI        -7.6020   -1.6730    0.5850 ha        1 X93      0.108500
     34 HAK        -5.5140   -0.5050    1.2640 ha        1 X93      0.145500
     35 HAN1       -2.4290   -1.1430    0.1110 hc        1 X93      0.075700
     36 HAN2       -2.7390    0.1610   -1.0920 hc        1 X93      0.075700
     37 HAQ1       -4.1260    1.3720    0.7380 hc        1 X93      0.036200
     38 HAQ2       -3.4840    0.1490    1.9110 hc        1 X93      0.036200
     39 HAY        -1.8450    2.0480    0.0930 h1        1 X93      0.051700
     40 H          -0.7100    0.6440    2.3710 hn        1 X93      0.378800
     41 HA          0.1940    1.0700   -0.4010 h1        1 X93      0.119700
     42 HB1C        1.6720    2.8600    0.4040 hc        1 X93      0.041367
     43 HB2C       -0.0090    3.2550    0.9790 hc        1 X93      0.041367
     44 HB3C        1.2080    2.5740    2.1360 hc        1 X93      0.041367
     45 HBB         4.1910   -0.2450    1.2510 h1        1 X93      0.019700
     46 HBA         2.3520    1.5410   -1.0710 h1        1 X93      0.044700
     47 HAP1        2.9770   -2.3040    1.9980 hc        1 X93      0.061700
     48 HAP2        3.1700   -3.0210    0.3420 hc        1 X93      0.061700
     49 HAZ         4.1490   -1.8070   -1.4570 hc        1 X93      0.098700
     50 HAM1        5.4000   -2.0750    2.2770 hc        1 X93      0.021200
     51 HAM2        5.0380   -3.7760    1.7860 hc        1 X93      0.021200
     52 HAL1        7.0560   -2.7680    0.6460 hc        1 X93      0.019700
     53 HAL2        5.7880   -3.3880   -0.4850 hc        1 X93      0.019700
     54 HAO1        6.3470   -0.4350    0.2550 hc        1 X93      0.024200
     55 HAO2        6.6100   -1.2520   -1.3370 hc        1 X93      0.024200
     56 HAR1        4.7230    1.2000   -1.1420 hc        1 X93      0.033700
     57 HAR2        4.2760    0.2460   -2.6280 hc        1 X93      0.033700
@<TRIPOS>BOND
     1    1    2 ar  
     2    1    6 ar  
     3    1   30 1   
     4    2    3 ar  
     5    2   31 1   
     6    3    4 ar  
     7    3   32 1   
     8    4    5 ar  
     9    4   33 1   
    10    5    6 ar  
    11    5   34 1   
    12    6    7 1   
    13    7    8 1   
    14    7   35 1   
    15    7   36 1   
    16    8    9 1   
    17    8   37 1   
    18    8   38 1   
    19    9   10 1   
    20    9   13 1   
    21    9   39 1   
    22   10   11 1   
    23   10   12 1   
    24   13   14 1   
    25   13   40 1   
    26   14   15 1   
    27   14   16 1   
    28   14   41 1   
    29   15   42 1   
    30   15   43 1   
    31   15   44 1   
    32   16   17 2   
    33   16   18 1   
    34   18   19 1   
    35   18   26 1   
    36   19   20 1   
    37   19   24 1   
    38   19   45 1   
    39   20   21 1   
    40   20   47 1   
    41   20   48 1   
    42   21   22 1   
    43   21   50 1   
    44   21   51 1   
    45   22   23 1   
    46   22   52 1   
    47   22   53 1   
    48   23   24 1   
    49   23   54 1   
    50   23   55 1   
    51   24   25 1   
    52   24   49 1   
    53   25   26 1   
    54   25   56 1   
    55   25   57 1   
    56   26   27 1   
    57   26   46 1   
    58   27   28 1   
    59   27   29 1   
@<TRIPOS>SUBSTRUCTURE
     1 X93         1 TEMP              0 ****  ****    0 ROOT
