@<TRIPOS>MOLECULE
X94
   51    52     1     0     0
SMALL
bcc


@<TRIPOS>ATOM
      1 CAA         0.5130    1.5510    0.4020 c3        1 X94     -0.083100
      2 CAH         1.9550    1.1510    0.5810 c3        1 X94     -0.113400
      3 CAK         2.0910    0.0530    1.6130 c3        1 X94     -0.081400
      4 CAU         3.5350   -0.3860    1.8280 c3        1 X94     -0.031500
      5 CAP         3.6090   -1.1700    3.2040 c         1 X94      0.917600
      6 OAF         3.7930   -0.4630    4.2190 o         1 X94     -0.793800
      7 OAC         3.4810   -2.4200    3.1410 o         1 X94     -0.793800
      8 N           4.0370   -1.2530    0.7150 n4        1 X94     -0.742000
      9 CA          5.4920   -1.0600    0.4270 c3        1 X94      0.084500
     10 CB          6.3820   -1.3010    1.6380 c3        1 X94     -0.119100
     11 C           5.9040   -2.0810   -0.6690 c         1 X94      0.648100
     12 O           5.8590   -3.2970   -0.3650 o         1 X94     -0.648100
     13 NAX         6.3140   -1.6390   -1.8900 n         1 X94     -0.423800
     14 CAW         6.8410   -2.5180   -2.9380 c3        1 X94      0.124700
     15 CAL         5.9580   -1.5760   -5.1920 c3        1 X94     -0.083400
     16 CAI         5.3610   -2.9330   -5.4800 c3        1 X94     -0.072400
     17 CAJ         4.8860   -3.5690   -4.1910 c3        1 X94     -0.076400
     18 CAM         6.0520   -3.7860   -3.2570 c3        1 X94     -0.087400
     19 CAT         7.0880   -1.6090   -4.1780 c3        1 X94     -0.062700
     20 CAN         7.2470   -0.2090   -3.5730 c3        1 X94     -0.083400
     21 CAV         6.3890   -0.2340   -2.2920 c3        1 X94     -0.031300
     22 CAQ         4.9940    0.4390   -2.5220 c         1 X94      0.921600
     23 OAD         4.8780    1.2420   -3.4790 o         1 X94     -0.834800
     24 OAG         4.0640    0.1700   -1.7030 o         1 X94     -0.834800
     25 HAA1       -0.0950    0.6850    0.0450 hc        1 X94      0.025033
     26 HAA2        0.0770    1.9110    1.3650 hc        1 X94      0.025033
     27 HAA3        0.4320    2.3710   -0.3520 hc        1 X94      0.025033
     28 HAH1        2.5510    2.0430    0.9100 hc        1 X94      0.067700
     29 HAH2        2.3810    0.8260   -0.4090 hc        1 X94      0.067700
     30 HAK1        1.4510   -0.8240    1.3330 hc        1 X94      0.060700
     31 HAK2        1.7240    0.4240    2.6090 hc        1 X94      0.060700
     32 HAU         4.1930    0.5250    1.8950 hx        1 X94      0.085700
     33 H           3.8810   -2.2350    1.0040 hn        1 X94      0.472800
     34 HA          5.5950    0.0070    0.0660 hx        1 X94      0.120700
     35 HB1C        6.3230   -2.3710    1.9610 hc        1 X94      0.069033
     36 HB2C        6.0730   -0.6560    2.4980 hc        1 X94      0.069033
     37 HB3C        7.4350   -1.0620    1.3570 hc        1 X94      0.069033
     38 HAW         7.8550   -2.8690   -2.5660 h1        1 X94      0.030700
     39 HAV         6.9090    0.3570   -1.4850 h1        1 X94      0.039700
     40 HAM1        6.7750   -4.4990   -3.7410 hc        1 X94      0.055700
     41 HAM2        5.6920   -4.2690   -2.3100 hc        1 X94      0.055700
     42 HAT         8.0310   -1.9500   -4.6770 hc        1 X94      0.039700
     43 HAJ1        4.3950   -4.5530   -4.4080 hc        1 X94      0.045200
     44 HAJ2        4.1230   -2.9080   -3.7030 hc        1 X94      0.045200
     45 HAI1        6.1190   -3.5950   -5.9740 hc        1 X94      0.026700
     46 HAI2        4.5010   -2.8190   -6.1890 hc        1 X94      0.026700
     47 HAL1        6.3480   -1.1270   -6.1430 hc        1 X94      0.061200
     48 HAL2        5.1480   -0.8920   -4.8080 hc        1 X94      0.061200
     49 HAN1        6.8800    0.5950   -4.2600 hc        1 X94      0.060700
     50 HAN2        8.3170   -0.0100   -3.3230 hc        1 X94      0.060700
     51 H2          3.5260   -1.0420   -0.1590 hn        1 X94      0.472800
@<TRIPOS>BOND
     1    1    2 1   
     2    1   25 1   
     3    1   26 1   
     4    1   27 1   
     5    2    3 1   
     6    2   28 1   
     7    2   29 1   
     8    3    4 1   
     9    3   30 1   
    10    3   31 1   
    11    4    5 1   
    12    4    8 1   
    13    4   32 1   
    14    5    6 1   
    15    5    7 1   
    16    8    9 1   
    17    8   33 1   
    18    8   51 1   
    19    9   10 1   
    20    9   11 1   
    21    9   34 1   
    22   10   35 1   
    23   10   36 1   
    24   10   37 1   
    25   11   12 2   
    26   11   13 1   
    27   13   14 1   
    28   13   21 1   
    29   14   18 1   
    30   14   19 1   
    31   14   38 1   
    32   15   16 1   
    33   15   19 1   
    34   15   47 1   
    35   15   48 1   
    36   16   17 1   
    37   16   45 1   
    38   16   46 1   
    39   17   18 1   
    40   17   43 1   
    41   17   44 1   
    42   18   40 1   
    43   18   41 1   
    44   19   20 1   
    45   19   42 1   
    46   20   21 1   
    47   20   49 1   
    48   20   50 1   
    49   21   22 1   
    50   21   39 1   
    51   22   23 1   
    52   22   24 1   
@<TRIPOS>SUBSTRUCTURE
     1 X94         1 TEMP              0 ****  ****    0 ROOT
