@<TRIPOS>MOLECULE
X94
   50    51     1     0     0
SMALL
bcc


@<TRIPOS>ATOM
      1 CAA        -4.3750    3.3000    1.3320 c3        1 X94     -0.082100
      2 CAH        -3.5030    2.1060    1.0360 c3        1 X94     -0.086400
      3 CAK        -4.1280    1.2050   -0.0060 c3        1 X94     -0.050400
      4 CAU        -3.3120   -0.0740   -0.2460 c3        1 X94      0.049500
      5 CAP        -4.2160   -1.0190   -1.1030 c         1 X94      0.886600
      6 OAF        -4.9380   -1.8530   -0.4820 o         1 X94     -0.854800
      7 OAC        -4.2030   -0.9060   -2.3620 o         1 X94     -0.854800
      8 N          -2.0130    0.2300   -0.8400 n3        1 X94     -0.800200
      9 CA         -0.9410   -0.6570   -0.4030 c3        1 X94      0.114500
     10 CB         -1.1500   -2.1420   -0.7220 c3        1 X94     -0.130100
     11 C           0.3840   -0.2560   -1.0910 c         1 X94      0.657100
     12 O           0.4140    0.0310   -2.3110 o         1 X94     -0.664100
     13 NAX         1.5650   -0.1900   -0.3540 n         1 X94     -0.419800
     14 CAW         2.8230   -0.0510   -1.0980 c3        1 X94      0.109700
     15 CAL         4.6860    0.5690    0.5960 c3        1 X94     -0.098400
     16 CAI         4.9690    1.7940   -0.2390 c3        1 X94     -0.063400
     17 CAJ         3.6710    2.3330   -0.8000 c3        1 X94     -0.075400
     18 CAM         3.0520    1.3210   -1.7340 c3        1 X94     -0.067400
     19 CAT         3.9640   -0.5300   -0.1610 c3        1 X94     -0.053700
     20 CAN         3.2480   -1.4500    0.8360 c3        1 X94     -0.081400
     21 CAV         1.7830   -0.9650    0.8700 c3        1 X94     -0.032300
     22 CAQ         1.4870   -0.1850    2.1970 c         1 X94      0.921600
     23 OAD         0.3270   -0.3050    2.6700 o         1 X94     -0.833800
     24 OAG         2.4230    0.4480    2.7630 o         1 X94     -0.833800
     25 HAA1       -4.5410    3.9060    0.4090 hc        1 X94      0.008700
     26 HAA2       -5.3730    2.9750    1.7170 hc        1 X94      0.008700
     27 HAA3       -3.8980    3.9540    2.1010 hc        1 X94      0.008700
     28 HAH1       -2.4980    2.4530    0.6790 hc        1 X94      0.052700
     29 HAH2       -3.3300    1.5220    1.9790 hc        1 X94      0.052700
     30 HAK1       -5.1490    0.8860    0.3320 hc        1 X94      0.030700
     31 HAK2       -4.2500    1.7630   -0.9710 hc        1 X94      0.030700
     32 HAU        -3.1580   -0.5730    0.7550 h1        1 X94      0.052700
     33 H          -2.0980    0.1910   -1.8440 hn        1 X94      0.375800
     34 HA         -0.8350   -0.5270    0.7210 h1        1 X94      0.126700
     35 HB1C       -0.3720   -2.7630   -0.2190 hc        1 X94      0.040367
     36 HB2C       -2.1600   -2.4630   -0.3630 hc        1 X94      0.040367
     37 HB3C       -1.0980   -2.3170   -1.8230 hc        1 X94      0.040367
     38 HAW         2.7820   -0.7790   -1.9720 h1        1 X94      0.019700
     39 HAV         1.0940   -1.8590    0.8750 h1        1 X94      0.042700
     40 HAM1        3.7370    1.1700   -2.6120 hc        1 X94      0.042200
     41 HAM2        2.0780    1.7120   -2.1310 hc        1 X94      0.042200
     42 HAT         4.7050   -1.1030   -0.7780 hc        1 X94      0.013700
     43 HAJ1        2.9610    2.5530    0.0410 hc        1 X94      0.041700
     44 HAJ2        3.8590    3.2900   -1.3540 hc        1 X94      0.041700
     45 HAI1        5.4640    2.5740    0.3980 hc        1 X94      0.008700
     46 HAI2        5.6750    1.5480   -1.0750 hc        1 X94      0.008700
     47 HAL1        5.6490    0.1550    0.9970 hc        1 X94      0.068200
     48 HAL2        4.0450    0.8690    1.4800 hc        1 X94      0.068200
     49 HAN1        3.3010   -2.5120    0.4910 hc        1 X94      0.037700
     50 HAN2        3.6950   -1.3810    1.8570 hc        1 X94      0.037700
@<TRIPOS>BOND
     1    1    2 1   
     2    1   25 1   
     3    1   26 1   
     4    1   27 1   
     5    2    3 1   
     6    2   28 1   
     7    2   29 1   
     8    3    4 1   
     9    3   30 1   
    10    3   31 1   
    11    4    5 1   
    12    4    8 1   
    13    4   32 1   
    14    5    6 1   
    15    5    7 1   
    16    8    9 1   
    17    8   33 1   
    18    9   10 1   
    19    9   11 1   
    20    9   34 1   
    21   10   35 1   
    22   10   36 1   
    23   10   37 1   
    24   11   12 2   
    25   11   13 1   
    26   13   14 1   
    27   13   21 1   
    28   14   18 1   
    29   14   19 1   
    30   14   38 1   
    31   15   16 1   
    32   15   19 1   
    33   15   47 1   
    34   15   48 1   
    35   16   17 1   
    36   16   45 1   
    37   16   46 1   
    38   17   18 1   
    39   17   43 1   
    40   17   44 1   
    41   18   40 1   
    42   18   41 1   
    43   19   20 1   
    44   19   42 1   
    45   20   21 1   
    46   20   49 1   
    47   20   50 1   
    48   21   22 1   
    49   21   39 1   
    50   22   23 1   
    51   22   24 1   
@<TRIPOS>SUBSTRUCTURE
     1 X94         1 TEMP              0 ****  ****    0 ROOT
