@<TRIPOS>MOLECULE
X94
   50    51     1     0     0
SMALL
bcc


@<TRIPOS>ATOM
      1 CAA        -5.9310    2.3250    0.4260 c3        1 X94     -0.082100
      2 CAH        -5.2690    1.1210   -0.2340 c3        1 X94     -0.084400
      3 CAK        -3.7680    1.4350   -0.4870 c3        1 X94     -0.098400
      4 CAU        -3.1010    0.2350   -1.1370 c3        1 X94      0.061500
      5 CAP        -3.7430   -0.0330   -2.4930 c         1 X94      0.921600
      6 OAF        -4.5630   -0.9830   -2.6260 o         1 X94     -0.856300
      7 OAC        -3.4980    0.7330   -3.4720 o         1 X94     -0.856300
      8 N          -1.6950    0.4990   -1.3150 n3        1 X94     -0.808200
      9 CA         -0.9290   -0.5770   -0.7440 c3        1 X94      0.127500
     10 CB         -1.3630   -1.8780   -1.3520 c3        1 X94     -0.080100
     11 C           0.5430   -0.3550   -1.0230 c         1 X94      0.615100
     12 O           0.8980    0.0300   -2.1110 o         1 X94     -0.665100
     13 NAX         1.5600   -0.7330    0.0010 n         1 X94     -0.421800
     14 CAW         3.0580   -1.0720   -0.2690 c3        1 X94      0.103700
     15 CAL         3.9720   -0.1120    1.7800 c3        1 X94     -0.095400
     16 CAI         4.7970    0.8820    1.0150 c3        1 X94     -0.063400
     17 CAJ         4.1940    1.2200   -0.2860 c3        1 X94     -0.076400
     18 CAM         3.9000    0.0400   -1.0800 c3        1 X94     -0.068400
     19 CAT         3.5970   -1.3970    0.9230 c3        1 X94     -0.054700
     20 CAN         2.4540   -2.0340    1.7360 c3        1 X94     -0.081400
     21 CAV         1.2610   -1.2480    1.4530 c3        1 X94     -0.028300
     22 CAQ         0.9810   -0.1540    2.4590 c         1 X94      0.921600
     23 OAD         0.8950    1.0470    2.0780 o         1 X94     -0.832800
     24 OAG         0.8090   -0.4460    3.6850 o         1 X94     -0.832800
     25 HAA1       -6.8990    2.2020    0.4330 hc        1 X94      0.011700
     26 HAA2       -5.6050    2.4120    1.3460 hc        1 X94      0.011700
     27 HAA3       -5.7080    3.1330   -0.0760 hc        1 X94      0.011700
     28 HAH1       -5.7220    0.9260   -1.1050 hc        1 X94      0.054200
     29 HAH2       -5.3470    0.3270    0.3680 hc        1 X94      0.054200
     30 HAK1       -3.6910    2.2280   -1.0920 hc        1 X94      0.036200
     31 HAK2       -3.3230    1.6330    0.3730 hc        1 X94      0.036200
     32 HAU        -3.2130   -0.5360   -0.5740 h1        1 X94      0.052700
     33 H          -1.4760    1.2860   -0.8980 hn        1 X94      0.383800
     34 HA         -1.0750   -0.6030    0.2140 h1        1 X94      0.129700
     35 HB1C       -0.6560   -2.5460   -1.2320 hc        1 X94      0.027700
     36 HB2C       -1.5340   -1.7500   -2.3140 hc        1 X94      0.027700
     37 HB3C       -2.1770   -2.1850   -0.9140 hc        1 X94      0.027700
     38 HAW         3.0710   -1.8990   -0.8250 h1        1 X94      0.017700
     39 HAV         0.4550   -1.7720    1.4980 h1        1 X94      0.030700
     40 HAM1        4.7520   -0.3620   -1.3800 hc        1 X94      0.042700
     41 HAM2        3.3900    0.3090   -1.8600 hc        1 X94      0.042700
     42 HAT         4.3710   -2.0170    0.8270 hc        1 X94      0.014700
     43 HAJ1        3.3620    1.7160   -0.1330 hc        1 X94      0.045200
     44 HAJ2        4.8190    1.7920   -0.7870 hc        1 X94      0.045200
     45 HAI1        5.6710    0.5130    0.8680 hc        1 X94      0.009700
     46 HAI2        4.8830    1.6970    1.5440 hc        1 X94      0.009700
     47 HAL1        3.1280    0.3330    2.0810 hc        1 X94      0.068200
     48 HAL2        4.4840   -0.4020    2.5830 hc        1 X94      0.068200
     49 HAN1        2.6600   -2.0010    2.6830 hc        1 X94      0.037200
     50 HAN2        2.3180   -2.9740    1.4480 hc        1 X94      0.037200
@<TRIPOS>BOND
     1    1    2 1   
     2    1   25 1   
     3    1   26 1   
     4    1   27 1   
     5    2    3 1   
     6    2   28 1   
     7    2   29 1   
     8    3    4 1   
     9    3   30 1   
    10    3   31 1   
    11    4    5 1   
    12    4    8 1   
    13    4   32 1   
    14    5    6 1   
    15    5    7 1   
    16    8    9 1   
    17    8   33 1   
    18    9   10 1   
    19    9   11 1   
    20    9   34 1   
    21   10   35 1   
    22   10   36 1   
    23   10   37 1   
    24   11   12 2   
    25   11   13 1   
    26   13   14 1   
    27   13   21 1   
    28   14   18 1   
    29   14   19 1   
    30   14   38 1   
    31   15   16 1   
    32   15   19 1   
    33   15   47 1   
    34   15   48 1   
    35   16   17 1   
    36   16   45 1   
    37   16   46 1   
    38   17   18 1   
    39   17   43 1   
    40   17   44 1   
    41   18   40 1   
    42   18   41 1   
    43   19   20 1   
    44   19   42 1   
    45   20   21 1   
    46   20   49 1   
    47   20   50 1   
    48   21   22 1   
    49   21   39 1   
    50   22   23 1   
    51   22   24 1   
@<TRIPOS>SUBSTRUCTURE
     1 X94         1 TEMP              0 ****  ****    0 ROOT
