@<TRIPOS>MOLECULE
X94
   51    52     1     0     0
SMALL
bcc


@<TRIPOS>ATOM
      1 CAA         0.4990    1.5230    0.4140 c3        1 X94     -0.083100
      2 CAH         1.9430    1.1310    0.5900 c3        1 X94     -0.113400
      3 CAK         2.0870    0.0320    1.6200 c3        1 X94     -0.081400
      4 CAU         3.5340   -0.3990    1.8320 c3        1 X94     -0.031500
      5 CAP         3.6150   -1.1860    3.2060 c         1 X94      0.917600
      6 OAF         3.7950   -0.4800    4.2230 o         1 X94     -0.793800
      7 OAC         3.4950   -2.4370    3.1410 o         1 X94     -0.793800
      8 N           4.0410   -1.2600    0.7160 n4        1 X94     -0.742000
      9 CA          5.4930   -1.0580    0.4260 c3        1 X94      0.084500
     10 CB          6.3870   -1.2960    1.6350 c3        1 X94     -0.119100
     11 C           5.9110   -2.0730   -0.6730 c         1 X94      0.648100
     12 O           5.8730   -3.2900   -0.3720 o         1 X94     -0.648100
     13 NAX         6.3160   -1.6260   -1.8930 n         1 X94     -0.423800
     14 CAW         6.8470   -2.4980   -2.9450 c3        1 X94      0.124700
     15 CAL         5.9520   -1.5560   -5.1940 c3        1 X94     -0.083400
     16 CAI         5.3630   -2.9160   -5.4840 c3        1 X94     -0.072400
     17 CAJ         4.8950   -3.5580   -4.1960 c3        1 X94     -0.076400
     18 CAM         6.0650   -3.7710   -3.2660 c3        1 X94     -0.088400
     19 CAT         7.0850   -1.5850   -4.1830 c3        1 X94     -0.062700
     20 CAN         7.2360   -0.1850   -3.5750 c3        1 X94     -0.083400
     21 CAV         6.3820   -0.2180   -2.2920 c3        1 X94     -0.031300
     22 CAQ         4.9820    0.4460   -2.5170 c         1 X94      0.921600
     23 OAD         4.8600    1.2540   -3.4700 o         1 X94     -0.834800
     24 OAG         4.0540    0.1660   -1.7000 o         1 X94     -0.834800
     25 HAA1        0.4120    2.3430   -0.3380 hc        1 X94      0.025033
     26 HAA2        0.0620    1.8780    1.3790 hc        1 X94      0.025033
     27 HAA3       -0.1040    0.6530    0.0560 hc        1 X94      0.025033
     28 HAH1        2.3700    0.8110   -0.4010 hc        1 X94      0.067700
     29 HAH2        2.5350    2.0260    0.9210 hc        1 X94      0.067700
     30 HAK1        1.4520   -0.8490    1.3390 hc        1 X94      0.060700
     31 HAK2        1.7200    0.3980    2.6180 hc        1 X94      0.060700
     32 HAU         4.1870    0.5150    1.9010 hx        1 X94      0.085700
     33 H           3.8910   -2.2440    1.0040 hn        1 X94      0.472800
     34 HA          5.5890    0.0110    0.0680 hx        1 X94      0.120700
     35 HB1C        7.4380   -1.0490    1.3530 hc        1 X94      0.069033
     36 HB2C        6.3360   -2.3670    1.9550 hc        1 X94      0.069033
     37 HB3C        6.0750   -0.6560    2.4980 hc        1 X94      0.069033
     38 HAW         7.8640   -2.8440   -2.5760 h1        1 X94      0.030700
     39 HAV         6.8990    0.3730   -1.4840 h1        1 X94      0.039700
     40 HAM1        5.7110   -4.2580   -2.3190 hc        1 X94      0.056200
     41 HAM2        6.7910   -4.4770   -3.7530 hc        1 X94      0.056200
     42 HAT         8.0280   -1.9180   -4.6850 hc        1 X94      0.039700
     43 HAJ1        4.1290   -2.9030   -3.7040 hc        1 X94      0.045200
     44 HAJ2        4.4100   -4.5450   -4.4140 hc        1 X94      0.045200
     45 HAI1        6.1240   -3.5720   -5.9820 hc        1 X94      0.026700
     46 HAI2        4.5000   -2.8050   -6.1900 hc        1 X94      0.026700
     47 HAL1        5.1390   -0.8780   -4.8060 hc        1 X94      0.061200
     48 HAL2        6.3370   -1.1020   -6.1450 hc        1 X94      0.061200
     49 HAN1        8.3060    0.0200   -3.3260 hc        1 X94      0.060700
     50 HAN2        6.8630    0.6180   -4.2590 hc        1 X94      0.060700
     51 H2          3.5260   -1.0510   -0.1560 hn        1 X94      0.472800
@<TRIPOS>BOND
     1    1    2 1   
     2    1   25 1   
     3    1   26 1   
     4    1   27 1   
     5    2    3 1   
     6    2   28 1   
     7    2   29 1   
     8    3    4 1   
     9    3   30 1   
    10    3   31 1   
    11    4    5 1   
    12    4    8 1   
    13    4   32 1   
    14    5    6 1   
    15    5    7 1   
    16    8    9 1   
    17    8   33 1   
    18    8   51 1   
    19    9   10 1   
    20    9   11 1   
    21    9   34 1   
    22   10   35 1   
    23   10   36 1   
    24   10   37 1   
    25   11   12 2   
    26   11   13 1   
    27   13   14 1   
    28   13   21 1   
    29   14   18 1   
    30   14   19 1   
    31   14   38 1   
    32   15   16 1   
    33   15   19 1   
    34   15   47 1   
    35   15   48 1   
    36   16   17 1   
    37   16   45 1   
    38   16   46 1   
    39   17   18 1   
    40   17   43 1   
    41   17   44 1   
    42   18   40 1   
    43   18   41 1   
    44   19   20 1   
    45   19   42 1   
    46   20   21 1   
    47   20   49 1   
    48   20   50 1   
    49   21   22 1   
    50   21   39 1   
    51   22   23 1   
    52   22   24 1   
@<TRIPOS>SUBSTRUCTURE
     1 X94         1 TEMP              0 ****  ****    0 ROOT
