@<TRIPOS>MOLECULE
X94
   51    52     1     0     0
SMALL
bcc


@<TRIPOS>ATOM
      1 CAA         0.5120    1.5370    0.4190 c3        1 X94     -0.083100
      2 CAH         1.9550    1.1390    0.5940 c3        1 X94     -0.113400
      3 CAK         2.0950    0.0390    1.6230 c3        1 X94     -0.081400
      4 CAU         3.5410   -0.3980    1.8330 c3        1 X94     -0.031500
      5 CAP         3.6190   -1.1860    3.2070 c         1 X94      0.917600
      6 OAF         3.8040   -0.4810    4.2240 o         1 X94     -0.793800
      7 OAC         3.4940   -2.4360    3.1410 o         1 X94     -0.793800
      8 N           4.0420   -1.2610    0.7160 ny        1 X94     -0.742000
      9 CA          5.4950   -1.0640    0.4250 c3        1 X94      0.084500
     10 CB          6.3900   -1.3070    1.6330 c3        1 X94     -0.119100
     11 C           5.9080   -2.0810   -0.6750 c         1 X94      0.648100
     12 O           5.8650   -3.2980   -0.3750 o         1 X94     -0.648100
     13 NAX         6.3140   -1.6340   -1.8950 n         1 X94     -0.423800
     14 CAW         6.8410   -2.5080   -2.9480 c3        1 X94      0.124700
     15 CAL         5.9490   -1.5610   -5.1960 c3        1 X94     -0.083400
     16 CAI         5.3540   -2.9180   -5.4860 c3        1 X94     -0.072400
     17 CAJ         4.8840   -3.5590   -4.1990 c3        1 X94     -0.076400
     18 CAM         6.0540   -3.7770   -3.2690 c3        1 X94     -0.088400
     19 CAT         7.0820   -1.5950   -4.1850 c3        1 X94     -0.062700
     20 CAN         7.2390   -0.1960   -3.5760 c3        1 X94     -0.083400
     21 CAV         6.3860   -0.2270   -2.2930 c3        1 X94     -0.031300
     22 CAQ         4.9880    0.4430   -2.5170 c         1 X94      0.921600
     23 OAD         4.8690    1.2520   -3.4690 o         1 X94     -0.834800
     24 OAG         4.0600    0.1670   -1.6990 o         1 X94     -0.834800
     25 HAA1        0.4280    2.3590   -0.3330 hc        1 X94      0.025033
     26 HAA2       -0.0950    0.6700    0.0610 hc        1 X94      0.025033
     27 HAA3        0.0780    1.8930    1.3840 hc        1 X94      0.025033
     28 HAH1        2.5500    2.0320    0.9240 hc        1 X94      0.067700
     29 HAH2        2.3790    0.8180   -0.3980 hc        1 X94      0.067700
     30 HAK1        1.4560   -0.8390    1.3410 hc        1 X94      0.060700
     31 HAK2        1.7300    0.4060    2.6210 hc        1 X94      0.060700
     32 HAU         4.1970    0.5130    1.9010 hx        1 X94      0.085700
     33 H           3.8890   -2.2440    1.0030 hn        1 X94      0.472800
     34 HA          5.5950    0.0040    0.0670 hx        1 X94      0.120700
     35 HB1C        6.0810   -0.6660    2.4970 hc        1 X94      0.069033
     36 HB2C        6.3340   -2.3780    1.9520 hc        1 X94      0.069033
     37 HB3C        7.4410   -1.0640    1.3500 hc        1 X94      0.069033
     38 HAW         7.8570   -2.8570   -2.5800 h1        1 X94      0.030700
     39 HAV         6.9060    0.3620   -1.4860 h1        1 X94      0.039700
     40 HAM1        6.7770   -4.4860   -3.7570 hc        1 X94      0.056200
     41 HAM2        5.6980   -4.2640   -2.3220 hc        1 X94      0.056200
     42 HAT         8.0240   -1.9310   -4.6880 hc        1 X94      0.039700
     43 HAJ1        4.3950   -4.5440   -4.4170 hc        1 X94      0.045200
     44 HAJ2        4.1210   -2.9020   -3.7060 hc        1 X94      0.045200
     45 HAI1        4.4910   -2.8030   -6.1920 hc        1 X94      0.026700
     46 HAI2        6.1120   -3.5770   -5.9850 hc        1 X94      0.026700
     47 HAL1        6.3350   -1.1070   -6.1470 hc        1 X94      0.061200
     48 HAL2        5.1380   -0.8800   -4.8070 hc        1 X94      0.061200
     49 HAN1        8.3100    0.0040   -3.3280 hc        1 X94      0.060700
     50 HAN2        6.8690    0.6090   -4.2600 hc        1 X94      0.060700
     51 H2          3.5280   -1.0490   -0.1560 hn        1 X94      0.472800
@<TRIPOS>BOND
     1    1    2 1   
     2    1   25 1   
     3    1   26 1   
     4    1   27 1   
     5    2    3 1   
     6    2   28 1   
     7    2   29 1   
     8    3    4 1   
     9    3   30 1   
    10    3   31 1   
    11    4    5 1   
    12    4    8 1   
    13    4   32 1   
    14    5    6 1   
    15    5    7 1   
    16    8    9 1   
    17    8   33 1   
    18    8   51 1   
    19    9   10 1   
    20    9   11 1   
    21    9   34 1   
    22   10   35 1   
    23   10   36 1   
    24   10   37 1   
    25   11   12 2   
    26   11   13 1   
    27   13   14 1   
    28   13   21 1   
    29   14   18 1   
    30   14   19 1   
    31   14   38 1   
    32   15   16 1   
    33   15   19 1   
    34   15   47 1   
    35   15   48 1   
    36   16   17 1   
    37   16   45 1   
    38   16   46 1   
    39   17   18 1   
    40   17   43 1   
    41   17   44 1   
    42   18   40 1   
    43   18   41 1   
    44   19   20 1   
    45   19   42 1   
    46   20   21 1   
    47   20   49 1   
    48   20   50 1   
    49   21   22 1   
    50   21   39 1   
    51   22   23 1   
    52   22   24 1   
@<TRIPOS>SUBSTRUCTURE
     1 X94         1 TEMP              0 ****  ****    0 ROOT
