@<TRIPOS>MOLECULE
X95
   71    64     1     0     0
SMALL
bcc


@<TRIPOS>ATOM
      1 C          -1.0430    1.7620    0.2130 c2        1 X95      0.330000
      2 OXT        -2.0660    1.9410   -0.6860 os        1 X95     -0.256000
      3 CA          0.3560    1.8590   -0.2230 c2        1 X95     -0.217000
      4 CB          1.3220    2.3960    0.5280 c2        1 X95     -0.097000
      5 CAG         7.0960    0.7750    4.1310 c1        1 X95     -0.228000
      6 CAH         6.5170   -0.0920    3.5420 c1        1 X95     -0.228000
      7 CAI         5.4890    1.4350   -0.7400 c2        1 X95     -0.108000
      8 CAL         3.3960    1.1720    2.0790 c2        1 X95     -0.171000
      9 CAT         2.7250    2.4820    0.0490 c3        1 X95     -0.116000
     10 CBD         3.7090    1.8190    0.9520 c2        1 X95     -0.105000
     11 CAM         5.1010    1.8850    0.4630 c2        1 X95     -0.133000
     12 O          -1.4500    1.4710    1.3390 o         1 X95     -0.288000
     13 NAA        -4.2810    2.9660   -5.3500 n3        1 X95     -0.412000
     14 N           6.0590    2.4860    1.3970 n4        1 X95     -0.064000
     15 CAQ        -3.0030    3.4990   -2.1820 c3        1 X95     -0.221000
     16 CAR        -1.7930    2.6140   -1.9290 c3        1 X95      0.047000
     17 CAU        -0.2790    1.3600   -3.4250 c1        1 X95     -0.037000
     18 CBC         2.2520    0.9510   -4.0240 c2        1 X95      0.446000
     19 CBI         0.8680    1.1830   -3.7250 c1        1 X95     -0.247000
     20 OAC         4.9830   -1.2350   -2.1840 o         1 X95     -0.224000
     21 OAF         4.1220   -1.5920   -4.3740 o         1 X95     -0.224000
     22 CAJ         9.4660    1.2190   -2.0660 c2        1 X95     -0.076000
     23 CAK         9.5670    1.9450   -3.3620 c3        1 X95     -0.040000
     24 CAN         9.2630    1.7760   -0.8680 c2        1 X95     -0.219000
     25 CAO         8.6740    1.3980   -4.3400 c1        1 X95     -0.141000
     26 CAP         5.7610    0.7150   -6.1220 c1        1 X95      0.223000
     27 CAW         7.5770   -0.6200   -7.0350 c2        1 X95     -0.443000
     28 NAX         2.6190    0.8780   -5.3360 n         1 X95     -0.400000
     29 CBB         4.5350   -1.4070   -3.2750 c1        1 X95      0.446000
     30 CBE         7.0550    0.3660   -6.1010 c2        1 X95     -0.179000
     31 CBF         9.1560    3.2220   -0.6360 c2        1 X95      0.042000
     32 CBG         7.9330    0.9360   -5.1600 c1        1 X95     -0.098000
     33 CBJ         8.8410   -0.9470   -7.2340 c1        1 X95      0.271000
     34 NXZ         8.2710    3.7430    0.1350 n2        1 X95     -0.349000
     35 HA          6.3160    1.7940    2.1140 hn        1 X95      0.261000
     36 HB1C        2.8190    2.0210   -0.9800 hc        1 X95      0.120500
     37 HB2C        0.5690    1.4120   -1.2110 ha        1 X95      0.163000
     38 HAT1        2.3590    1.0840    2.4380 ha        1 X95      0.138000
     39 HAT2        1.1120    2.8250    1.5220 ha        1 X95      0.143000
     40 HAG         4.7560    0.9700   -1.4310 ha        1 X95      0.176000
     41 HAH         4.1470    0.6700    2.7070 ha        1 X95      0.138000
     42 HAI         7.6180    1.5140    4.6910 ha        1 X95      0.234500
     43 HAL         6.0150   -0.8880    3.0470 ha        1 X95      0.234500
     44 HAM         6.5260    1.4830   -1.1080 ha        1 X95      0.176000
     45 H           2.9980    3.5710   -0.0510 hc        1 X95      0.120500
     46 HBI         6.9270    2.8140    0.8910 hn        1 X95      0.261000
     47 HAA1       -2.8360    4.0990   -3.1070 hc        1 X95      0.098000
     48 HAA2       -5.0170    0.7400   -3.2120 ha        1 X95      0.005750
     49 HAQ1       -4.2950    2.7450   -6.3240 hn        1 X95      0.137000
     50 HAQ2       -4.5310    3.9250   -5.2320 hn        1 X95      0.137000
     51 HAR1       -3.9180    2.8720   -2.3150 hc        1 X95      0.098000
     52 HAR2       -3.1630    4.1830   -1.3150 hc        1 X95      0.098000
     53 HAS1       -0.8670    3.2440   -1.8370 h1        1 X95      0.093000
     54 HAS2       -4.3430    0.8040   -3.2370 ha        1 X95      0.005750
     55 HAU1       -2.2280    1.9200   -3.9530 hc        1 X95      0.151000
     56 HAU2       -2.1020    0.6010   -2.7120 hc        1 X95      0.151000
     57 HAJ         9.2140    1.1430    0.0360 ha        1 X95      0.147000
     58 HAK        10.6300    1.8520   -3.7380 hc        1 X95      0.124000
     59 HAN         9.5740    0.1200   -2.1460 ha        1 X95      0.154000
     60 HAO         9.3540    3.0440   -3.2380 hc        1 X95      0.124000
     61 HAP         8.3070    4.7340    0.2410 hn        1 X95      0.177000
     62 HXZ         9.9270    3.8250   -1.1720 h4        1 X95      0.128000
     63 HAW1        4.5700   -0.8500   -7.3320 ha        1 X95      0.005750
     64 HAW2        4.4950   -1.1780   -6.7400 ha        1 X95      0.005750
     65 HBJ         6.8170   -1.1510   -7.6540 ha        1 X95      0.202000
     66 HAX         3.5630    0.6650   -5.5750 hn        1 X95      0.247000
     67 CAS        -1.6430    1.5750   -3.0500 c3        1 X95     -0.121000
     68 OAD         3.1130    0.8200   -3.1130 o         1 X95     -0.461000
     69 HAA3       -4.9520    2.3960   -4.8780 hn        1 X95      0.137000
     70 H2          5.6200    3.2850    1.8580 hn        1 X95      0.261000
     71 HAX2        1.9440    0.9440   -6.0560 hn        1 X95      0.247000
@<TRIPOS>BOND
     1    1    2 1   
     2    1    3 1   
     3    1   12 1   
     4    2   16 1   
     5    3    4 1   
     6    3   37 1   
     7    4    9 1   
     8    4   39 1   
     9    5    6 1   
    10    5   42 1   
    11    6   43 1   
    12    7   11 1   
    13    7   40 1   
    14    7   44 1   
    15    8   10 1   
    16    8   38 1   
    17    8   41 1   
    18    9   10 1   
    19    9   36 1   
    20    9   45 1   
    21   10   11 1   
    22   11   14 1   
    23   13   49 1   
    24   13   50 1   
    25   13   69 1   
    26   14   35 1   
    27   14   46 1   
    28   14   70 1   
    29   15   16 1   
    30   15   47 1   
    31   15   51 1   
    32   15   52 1   
    33   16   53 1   
    34   16   67 1   
    35   17   19 1   
    36   17   67 1   
    37   18   19 1   
    38   18   28 1   
    39   18   68 1   
    40   20   29 1   
    41   21   29 1   
    42   22   23 1   
    43   22   24 1   
    44   22   59 1   
    45   23   25 1   
    46   23   58 1   
    47   23   60 1   
    48   24   31 1   
    49   24   57 1   
    50   25   32 1   
    51   26   30 1   
    52   27   30 1   
    53   27   33 1   
    54   27   65 1   
    55   28   66 1   
    56   28   71 1   
    57   30   32 1   
    58   31   34 1   
    59   31   62 1   
    60   34   61 1   
    61   48   54 1   
    62   55   67 1   
    63   56   67 1   
    64   63   64 1   
@<TRIPOS>SUBSTRUCTURE
     1 X95         1 TEMP              0 ****  ****    0 ROOT
