@<TRIPOS>MOLECULE
X95
   71    70     1     0     0
SMALL
bcc


@<TRIPOS>ATOM
      1 C          -0.4640    1.9890    0.3880 c2        1 X95      0.301000
      2 OXT        -0.0830    3.1800   -0.1740 os        1 X95     -0.296000
      3 CA          0.6360    0.9320    0.3410 c3        1 X95      0.006000
      4 CB          0.0180   -0.4060    0.7750 c3        1 X95     -0.158000
      5 CAG         3.9880   -2.1130    3.6770 c2        1 X95     -0.120000
      6 CAH         4.3320   -2.2260    2.3920 c2        1 X95     -0.208000
      7 CAI         2.6050   -1.8220    4.1220 c3        1 X95     -0.125000
      8 CAL         3.3530   -2.1030    1.2730 c3        1 X95      0.118000
      9 CAT         0.9660   -1.5750    0.6130 c3        1 X95     -0.122000
     10 CBD         1.9660   -1.7280    1.7070 c2        1 X95     -0.148000
     11 CAM         1.6450   -1.6420    3.0080 c2        1 X95     -0.107000
     12 O          -1.6100    1.8890    0.8180 o         1 X95     -0.331000
     13 NAA        -1.6160    5.4210   -3.4450 n3        1 X95     -0.410000
     14 N           1.7530    1.3480    1.1590 n3        1 X95     -0.358000
     15 CAQ        -1.0330    4.2460   -0.1060 c3        1 X95     -0.067000
     16 CAR         1.9900    5.7890   -3.1460 c3        1 X95     -0.204000
     17 CAU         2.5630    3.4140   -2.9390 c1        1 X95      0.024000
     18 CBC         4.5030    1.6570   -2.6930 c2        1 X95      0.476000
     19 CBI         3.4430    2.6070   -2.8260 c1        1 X95     -0.310000
     20 OAC         3.7980   -1.0510    0.3590 os        1 X95     -0.293000
     21 OAF         5.3330   -2.4840   -0.4390 o         1 X95     -0.325000
     22 CAJ         7.1700    3.5800   -9.3160 c1        1 X95      0.081000
     23 CAK         8.4890    4.1830   -9.1050 c3        1 X95     -0.168000
     24 CAN         6.7880    2.3830   -8.5080 c3        1 X95     -0.276000
     25 CAO         9.1060    3.6380   -7.9330 c1        1 X95     -0.097000
     26 CAP         7.7770    1.8240   -5.4690 c2        1 X95     -0.144000
     27 CAW         6.6130   -0.2820   -1.7350 c2        1 X95     -0.176000
     28 NAX         4.4070    0.7880   -1.6260 n         1 X95     -0.288000
     29 CBB         4.8450   -1.3530   -0.4590 c2        1 X95      0.333000
     30 CBE         9.0450    2.1230   -5.8520 c2        1 X95      0.050000
     31 CBF         6.1800    2.6830   -7.1870 c2        1 X95      0.111000
     32 CBG         9.2440    2.9720   -6.9420 c1        1 X95     -0.186000
     33 CBJ         5.3290   -0.2290   -1.3230 c2        1 X95     -0.008000
     34 NXZ         6.5820    2.3970   -5.9750 n3        1 X95     -0.050000
     35 HA          2.2320    2.1190    0.7430 hn        1 X95      0.171000
     36 HB1C        0.3540   -2.5200    0.5690 hc        1 X95      0.092500
     37 HB2C        0.9230    0.8420   -0.7560 h1        1 X95      0.063000
     38 HAT1       -0.8870   -0.5780    0.1320 hc        1 X95      0.111500
     39 HAT2       -0.3430   -0.3220    1.8330 hc        1 X95      0.111500
     40 HAG         2.6080   -0.8880    4.7550 hc        1 X95      0.118000
     41 HAH         3.3210   -3.0700    0.6880 h1        1 X95      0.126000
     42 HAI         4.7310   -2.2400    4.4820 ha        1 X95      0.138000
     43 HAL         5.3650   -2.4440    2.0760 ha        1 X95      0.146000
     44 HAM         2.2450   -2.6610    4.7820 hc        1 X95      0.118000
     45 H           1.5000   -1.4850   -0.3720 hc        1 X95      0.092500
     46 HBI         2.3770    0.5860    1.3390 hn        1 X95      0.171000
     47 HAA1        1.1100    6.4720   -3.2400 hc        1 X95      0.085333
     48 HAA2       -1.9640    3.9580   -0.6520 h1        1 X95      0.092000
     49 HAQ1       -1.7050    6.4000   -3.6230 hn        1 X95      0.136667
     50 HAQ2       -1.9950    5.2220   -2.5410 hn        1 X95      0.136667
     51 HAR1       -1.2710    4.4740    0.9610 h1        1 X95      0.092000
     52 HAR2       -0.5130    5.1020   -0.6020 h1        1 X95      0.092000
     53 HAS1        2.5630    6.0700   -2.2300 hc        1 X95      0.085333
     54 HAS2        2.6480    5.9320   -4.0360 hc        1 X95      0.085333
     55 HAU1        0.8090    4.2510   -2.1660 hc        1 X95      0.138500
     56 HAU2        0.8800    4.1180   -3.9710 hc        1 X95      0.138500
     57 HAJ         5.9760    1.8550   -9.1040 hc        1 X95      0.160500
     58 HAK         8.3760    5.3100   -9.0470 hc        1 X95      0.201500
     59 HAN         7.6520    1.6580   -8.4270 hc        1 X95      0.160500
     60 HAO         9.0970    4.0040  -10.0490 hc        1 X95      0.201500
     61 HAP         5.9210    2.5860   -5.2070 hn        1 X95      0.321000
     62 HXZ         5.1790    3.1840   -7.2580 h4        1 X95      0.198000
     63 HAW1        7.0770    0.4930   -2.3580 ha        1 X95      0.148000
     64 HAW2        9.9090    1.6810   -5.3210 ha        1 X95      0.201000
     65 HBJ         7.2480   -1.1350   -1.4530 ha        1 X95      0.148000
     66 HAX         3.6080    0.8500   -1.0280 hn        1 X95      0.263000
     67 CAS         1.4960    4.3620   -3.0590 c3        1 X95     -0.096000
     68 OAD         5.4640    1.6200   -3.5050 o         1 X95     -0.469000
     69 HAA3       -2.1420    4.9210   -4.1310 hn        1 X95      0.136667
     70 H2          0.6090   -1.4320    3.3220 ha        1 X95      0.140000
     71 HAX2        7.5600    1.1490   -4.6090 h4        1 X95      0.220000
@<TRIPOS>BOND
     1    1    2 1   
     2    1    3 1   
     3    1   12 1   
     4    2   15 1   
     5    3    4 1   
     6    3   14 1   
     7    3   37 1   
     8    4    9 1   
     9    4   38 1   
    10    4   39 1   
    11    5    6 1   
    12    5    7 1   
    13    5   42 1   
    14    6    8 1   
    15    6   43 1   
    16    7   11 1   
    17    7   40 1   
    18    7   44 1   
    19    8   10 1   
    20    8   20 1   
    21    8   41 1   
    22    9   10 1   
    23    9   36 1   
    24    9   45 1   
    25   10   11 1   
    26   11   70 1   
    27   13   49 1   
    28   13   50 1   
    29   13   69 1   
    30   14   35 1   
    31   14   46 1   
    32   15   48 1   
    33   15   51 1   
    34   15   52 1   
    35   16   47 1   
    36   16   53 1   
    37   16   54 1   
    38   16   67 1   
    39   17   19 1   
    40   17   67 1   
    41   18   19 1   
    42   18   28 1   
    43   18   68 1   
    44   20   29 1   
    45   21   29 1   
    46   22   23 1   
    47   22   24 1   
    48   23   25 1   
    49   23   58 1   
    50   23   60 1   
    51   24   31 1   
    52   24   57 1   
    53   24   59 1   
    54   25   32 1   
    55   26   30 1   
    56   26   34 1   
    57   26   71 1   
    58   27   33 1   
    59   27   63 1   
    60   27   65 1   
    61   28   33 1   
    62   28   66 1   
    63   29   33 1   
    64   30   32 1   
    65   30   64 1   
    66   31   34 1   
    67   31   62 1   
    68   34   61 1   
    69   55   67 1   
    70   56   67 1   
@<TRIPOS>SUBSTRUCTURE
     1 X95         1 TEMP              0 ****  ****    0 ROOT
