@<TRIPOS>MOLECULE
X95
   71    66     1     0     0
SMALL
bcc


@<TRIPOS>ATOM
      1 C           0.3170    1.3610   -0.0980 c2        1 X95      0.344000
      2 OXT         0.6810    2.0280    0.9230 o         1 X95     -0.603000
      3 CA          0.7340   -0.0690   -0.2310 c2        1 X95     -0.127000
      4 CB          0.3140   -1.0360    0.6080 c2        1 X95     -0.221000
      5 CAG         3.6380   -3.9590    3.1140 c2        1 X95     -0.016000
      6 CAH         4.2130   -3.3630    2.0350 c2        1 X95     -0.239000
      7 CAI         2.4800   -3.3510    3.8000 c3        1 X95     -0.234000
      8 CAL         3.7160   -2.1260    1.5360 c2        1 X95      0.149000
      9 CAT         2.1840   -0.2370    1.7080 c2        1 X95      0.206000
     10 CBD         2.6230   -1.5060    2.1570 c2        1 X95     -0.311000
     11 CAM         1.9680   -2.0920    3.2750 c1        1 X95     -0.061000
     12 O          -0.3610    1.9150   -1.0160 o         1 X95     -0.603000
     13 NAA        -1.7020    6.3970   -1.9090 n9        1 X95     -0.435000
     14 N           0.8090    4.9260    2.1120 n9        1 X95     -0.435000
     15 CAQ        -1.4360    4.0960    0.1480 c3        1 X95      0.045000
     16 CAR         0.7010    4.4530   -0.9690 c3        1 X95      0.065000
     17 CAU         2.2060    3.7470   -2.7360 c1        1 X95      0.033000
     18 CBC         4.6220    2.9480   -3.3420 c2        1 X95      0.393000
     19 CBI         3.3100    3.3740   -3.0130 c1        1 X95     -0.246000
     20 OAC         5.0880    0.3390    0.4780 o         1 X95     -0.552000
     21 OAF         3.7090   -0.1290   -1.2060 o         1 X95     -0.552000
     22 CAJ         9.1640    2.2130   -9.2170 c2        1 X95     -0.129000
     23 CAK         8.8930    0.7550   -9.0890 c3        1 X95     -0.043000
     24 CAN         8.3900    3.1090   -9.8340 c2        1 X95     -0.137000
     25 CAO         8.4050    0.4100   -7.7850 c1        1 X95     -0.012000
     26 CAP         6.6620    0.4080   -4.6870 c1        1 X95      0.100000
     27 CAW         6.5610    2.1060   -1.1850 c2        1 X95     -0.139000
     28 NAX         4.9580    1.5490   -2.9730 ny        1 X95     -0.138000
     29 CBB         4.7070    0.4790   -0.7110 c2        1 X95      0.362000
     30 CBE         7.4940   -0.2490   -5.4510 c2        1 X95     -0.180000
     31 CBF         7.1090    2.8590  -10.5080 c2        1 X95     -0.037000
     32 CBG         7.9830    0.1130   -6.7040 c1        1 X95     -0.187000
     33 CBJ         5.4800    1.4420   -1.6130 c2        1 X95     -0.193000
     34 NXZ         6.1560    2.1720   -9.9960 n2        1 X95     -0.234000
     35 HA          0.8760    3.9290    2.0230 hn        1 X95      0.144667
     36 HB1C        2.7650    0.2920    0.9190 ha        1 X95      0.188000
     37 HB2C        1.4150   -0.2760   -1.0780 ha        1 X95      0.178000
     38 HAT1       -0.4130   -0.8490    1.4130 ha        1 X95      0.133000
     39 HAT2        0.5810   -2.0920    0.4590 ha        1 X95      0.133000
     40 HAG         2.7340   -3.1730    4.8920 hc        1 X95      0.187000
     41 HAH         4.2120   -1.6410    0.6620 ha        1 X95      0.216000
     42 HAI         4.0220   -4.9140    3.5110 ha        1 X95      0.151000
     43 HAL         5.0810   -3.8160    1.5270 ha        1 X95      0.163000
     44 HAM         1.6160   -4.0850    3.8190 hc        1 X95      0.187000
     45 H           1.4620    0.3550    2.3030 ha        1 X95      0.188000
     46 HBI         0.2670    5.1400    2.9230 hn        1 X95      0.144667
     47 HAA1       -0.5210    4.1660   -0.7630 DU        1 X95      0.063000
     48 HAA2       -1.3440    6.6190   -2.8160 hn        1 X95      0.144667
     49 HAQ1       -1.4790    5.1280    0.5440 hc        1 X95      0.149333
     50 HAQ2       -1.6840    7.2250   -1.3490 hn        1 X95      0.144667
     51 HAR1       -2.2690    3.7750   -0.5080 hc        1 X95      0.149333
     52 HAR2       -1.0450    3.3120    0.8370 hc        1 X95      0.149333
     53 HAS1        0.7490    5.5270   -0.6900 hc        1 X95      0.165000
     54 HAS2        1.2320    3.7520   -0.2760 hc        1 X95      0.165000
     55 HAU1        0.5670    5.0270   -3.0660 hc        1 X95      0.167500
     56 HAU2        0.1770    3.2730   -2.7020 hc        1 X95      0.167500
     57 HAJ         8.7100    4.1650   -9.8970 ha        1 X95      0.143000
     58 HAK         9.8490    0.1860   -9.2850 hc        1 X95      0.126500
     59 HAN        10.1200    2.5380   -8.7670 ha        1 X95      0.134000
     60 HAO         8.1410    0.4130   -9.8580 hc        1 X95      0.126500
     61 HAP         5.3320    2.1040  -10.5570 hn        1 X95      0.146000
     62 HXZ         7.0560    3.3620  -11.5030 h4        1 X95      0.103000
     63 HAW1        7.1380    2.8170   -1.7920 ha        1 X95      0.154500
     64 HAW2        7.8620   -1.2350   -5.0560 ha        1 X95      0.232000
     65 HBJ         6.9070    1.9430   -0.1490 ha        1 X95      0.154500
     66 HAX         5.7180    1.1180   -3.7050 hn        1 X95      0.304500
     67 CAS         0.8630    4.1430   -2.4330 c3        1 X95     -0.123000
     68 OAD         5.4840    3.6200   -3.9080 o         1 X95     -0.210000
     69 HAA3       -2.6530    6.1020   -2.0080 hn        1 X95      0.144667
     70 H2          1.7270    5.2990    2.2400 hn        1 X95      0.144667
     71 HAX2        4.1040    0.9650   -3.0020 hn        1 X95      0.304500
@<TRIPOS>BOND
     1    1    2 1   
     2    1    3 1   
     3    1   12 1   
     4    3    4 1   
     5    3   37 1   
     6    4   38 1   
     7    4   39 1   
     8    5    6 1   
     9    5    7 1   
    10    5   42 1   
    11    6    8 1   
    12    6   43 1   
    13    7   11 1   
    14    7   40 1   
    15    7   44 1   
    16    8   10 1   
    17    8   41 1   
    18    9   10 1   
    19    9   36 1   
    20    9   45 1   
    21   10   11 1   
    22   13   48 1   
    23   13   50 1   
    24   13   69 1   
    25   14   35 1   
    26   14   46 1   
    27   14   70 1   
    28   15   47 1   
    29   15   49 1   
    30   15   51 1   
    31   15   52 1   
    32   16   47 1   
    33   16   53 1   
    34   16   54 1   
    35   16   67 1   
    36   17   19 1   
    37   17   67 1   
    38   18   19 1   
    39   18   28 1   
    40   18   68 1   
    41   20   29 1   
    42   21   29 1   
    43   22   23 1   
    44   22   24 1   
    45   22   59 1   
    46   23   25 1   
    47   23   58 1   
    48   23   60 1   
    49   24   31 1   
    50   24   57 1   
    51   25   32 1   
    52   26   30 1   
    53   27   33 1   
    54   27   63 1   
    55   27   65 1   
    56   28   33 1   
    57   28   66 1   
    58   28   71 1   
    59   29   33 1   
    60   30   32 1   
    61   30   64 1   
    62   31   34 1   
    63   31   62 1   
    64   34   61 1   
    65   55   67 1   
    66   56   67 1   
@<TRIPOS>SUBSTRUCTURE
     1 X95         1 TEMP              0 ****  ****    0 ROOT
