@<TRIPOS>MOLECULE
X95
   68    70     1     0     0
SMALL
bcc


@<TRIPOS>ATOM
      1 C           2.8500   -2.6420    1.7800 c         1 X95      0.890600
      2 OXT         3.1780   -3.7230    1.2100 o         1 X95     -0.844300
      3 CA          2.7480   -1.3700    0.8710 c3        1 X95      0.050500
      4 CB          4.1290   -0.7000    0.9210 c3        1 X95     -0.051400
      5 CAG         8.1670    2.2140    0.0060 ca        1 X95     -0.160000
      6 CAH         7.8240    1.3810   -1.0570 ca        1 X95     -0.138000
      7 CAI         7.2450    2.4460    1.0270 ca        1 X95     -0.138000
      8 CAL         6.5660    0.7830   -1.1030 ca        1 X95     -0.130500
      9 CAT         4.2830    0.3860   -0.1260 c3        1 X95     -0.051100
     10 CBD         5.6330    1.0110   -0.0830 ca        1 X95     -0.037300
     11 CAM         5.9870    1.8500    0.9840 ca        1 X95     -0.130500
     12 O           2.6040   -2.5320    3.0120 o         1 X95     -0.844300
     13 NAA        -1.4210   -6.3420   -0.9980 n3        1 X95     -0.913800
     14 N           1.6920   -0.4390    1.2460 n3        1 X95     -0.818200
     15 CAQ        -0.4340   -5.3100   -0.7560 c3        1 X95      0.142800
     16 CAR        -0.9970   -4.0520   -0.0980 c3        1 X95     -0.072400
     17 CAU        -0.4340   -1.7520    0.6840 c3        1 X95     -0.107400
     18 CBC        -0.4320    0.7070    0.7910 c         1 X95      0.656100
     19 CBI         0.4700   -0.5220    0.4720 c3        1 X95      0.135500
     20 OAC        -1.7170    4.7620   -1.0520 o         1 X95     -0.837800
     21 OAF        -0.8440    3.1460   -2.3290 o         1 X95     -0.837800
     22 CAJ        -7.8840   -0.1460    1.0680 ca        1 X95     -0.138000
     23 CAK        -7.5930    0.4250   -0.1800 ca        1 X95     -0.179000
     24 CAN        -6.9650   -0.1220    2.1090 ca        1 X95     -0.156000
     25 CAO        -6.3690    1.0370   -0.4260 ca        1 X95     -0.083000
     26 CAP        -3.6270    1.3440    1.9800 cc        1 X95     -0.099100
     27 CAW        -3.3550    2.3040   -0.3930 c3        1 X95     -0.015200
     28 NAX        -1.0770    1.2870   -0.2770 n         1 X95     -0.525900
     29 CBB        -1.4190    3.5590   -1.2840 c         1 X95      0.907600
     30 CBE        -4.0650    1.6080    0.6870 cd        1 X95     -0.111400
     31 CBF        -5.7260    0.4900    1.8770 ca        1 X95     -0.060200
     32 CBG        -5.4160    1.0770    0.5880 ca        1 X95     -0.081800
     33 CBJ        -1.8440    2.5100   -0.1880 c3        1 X95     -0.041300
     34 NXZ        -4.6410    0.7200    2.7320 na        1 X95     -0.196400
     35 HA          2.5800   -1.7290   -0.1870 h1        1 X95      0.037700
     36 HB1C        4.3050   -0.2710    1.9420 hc        1 X95      0.043700
     37 HB2C        4.8930   -1.5030    0.7510 hc        1 X95      0.043700
     38 HAT1        4.0950   -0.0510   -1.1430 hc        1 X95      0.058700
     39 HAT2        3.5060    1.1800    0.0430 hc        1 X95      0.058700
     40 HAG         9.1580    2.6850    0.0410 ha        1 X95      0.107000
     41 HAH         8.5480    1.1940   -1.8630 ha        1 X95      0.111500
     42 HAI         7.5100    3.1020    1.8680 ha        1 X95      0.111500
     43 HAL         6.3000    0.1250   -1.9430 ha        1 X95      0.137500
     44 HAM         5.2560    2.0290    1.7880 ha        1 X95      0.137500
     45 H           1.4960   -0.5270    2.2290 hn        1 X95      0.393800
     46 HBI         0.7680   -0.4920   -0.6180 h1        1 X95      0.052700
     47 HAA1       -2.2630   -5.9450   -1.3690 hn        1 X95      0.329300
     48 HAA2       -1.0640   -7.0020   -1.6600 hn        1 X95      0.329300
     49 HAQ1        0.3540   -5.7480   -0.0790 h1        1 X95      0.037200
     50 HAQ2        0.0870   -5.0000   -1.7110 h1        1 X95      0.037200
     51 HAR1       -1.9020   -3.6900   -0.6540 hc        1 X95      0.034200
     52 HAR2       -1.3200   -4.2880    0.9500 hc        1 X95      0.034200
     53 HAS1        1.0000   -3.3580    0.4010 hc        1 X95      0.066700
     54 HAS2        0.3120   -2.6750   -1.1300 hc        1 X95      0.066700
     55 HAU1       -1.4720   -1.4970    0.3390 hc        1 X95      0.048200
     56 HAU2       -0.4930   -1.9900    1.7790 hc        1 X95      0.048200
     57 HAJ        -8.8600   -0.6260    1.2230 ha        1 X95      0.105000
     58 HAK        -8.3500    0.3840   -0.9760 ha        1 X95      0.108000
     59 HAN        -7.2000   -0.5720    3.0820 ha        1 X95      0.115000
     60 HAO        -6.1440    1.4830   -1.4050 ha        1 X95      0.134000
     61 HAP        -2.6480    1.5610    2.4310 h4        1 X95      0.218000
     62 HXZ        -4.4570    0.1700    3.5290 hn        1 X95      0.280700
     63 HAW1       -3.5300    1.7570   -1.3590 hc        1 X95      0.056200
     64 HAW2       -3.7960    3.3350   -0.5080 hc        1 X95      0.056200
     65 HBJ        -1.6760    2.9780    0.8240 h1        1 X95      0.066700
     66 HAX        -0.6990    1.1290   -1.1890 hn        1 X95      0.320500
     67 CAS         0.0570   -2.9640   -0.0760 c3        1 X95     -0.099400
     68 OAD        -0.6360    1.0580    1.9760 o         1 X95     -0.669100
@<TRIPOS>BOND
     1    1    2 1   
     2    1    3 1   
     3    1   12 1   
     4    3    4 1   
     5    3   14 1   
     6    3   35 1   
     7    4    9 1   
     8    4   36 1   
     9    4   37 1   
    10    5    6 ar  
    11    5    7 ar  
    12    5   40 1   
    13    6    8 ar  
    14    6   41 1   
    15    7   11 ar  
    16    7   42 1   
    17    8   10 ar  
    18    8   43 1   
    19    9   10 1   
    20    9   38 1   
    21    9   39 1   
    22   10   11 ar  
    23   11   44 1   
    24   13   15 1   
    25   13   47 1   
    26   13   48 1   
    27   14   19 1   
    28   14   45 1   
    29   15   16 1   
    30   15   49 1   
    31   15   50 1   
    32   16   51 1   
    33   16   52 1   
    34   16   67 1   
    35   17   19 1   
    36   17   55 1   
    37   17   56 1   
    38   17   67 1   
    39   18   19 1   
    40   18   28 1   
    41   18   68 2   
    42   19   46 1   
    43   20   29 1   
    44   21   29 1   
    45   22   23 ar  
    46   22   24 ar  
    47   22   57 1   
    48   23   25 ar  
    49   23   58 1   
    50   24   31 ar  
    51   24   59 1   
    52   25   32 ar  
    53   25   60 1   
    54   26   30 2   
    55   26   34 1   
    56   26   61 1   
    57   27   30 1   
    58   27   33 1   
    59   27   63 1   
    60   27   64 1   
    61   28   33 1   
    62   28   66 1   
    63   29   33 1   
    64   30   32 1   
    65   31   32 ar  
    66   31   34 1   
    67   33   65 1   
    68   34   62 1   
    69   53   67 1   
    70   54   67 1   
@<TRIPOS>SUBSTRUCTURE
     1 X95         1 TEMP              0 ****  ****    0 ROOT
