@<TRIPOS>MOLECULE
X96
   38    39     1     0     0
SMALL
bcc


@<TRIPOS>ATOM
      1 C1         -0.0640    0.0660   -0.0250 ca        1 X96     -0.264200
      2 N1         -0.8130    0.1430   -1.2940 no        1 X96      0.326200
      3 O1         -0.2160    0.3790   -2.3120 o         1 X96     -0.221000
      4 C2          1.3170    0.3030   -0.0120 ca        1 X96      0.011000
      5 N2          4.2440   -0.0190    0.1370 n         1 X96     -0.664000
      6 O2         -2.0030   -0.0370   -1.2850 o         1 X96     -0.221000
      7 C3          2.0350    0.2290    1.1770 ca        1 X96     -0.248600
      8 N3          2.0670   -0.1800    3.5810 nh        1 X96     -0.746600
      9 O3          4.0640    1.1850    2.0490 o         1 X96     -0.636100
     10 C4          1.3690   -0.0730    2.4090 ca        1 X96      0.286600
     11 N4          4.4030   -0.3690   10.6590 n3        1 X96     -0.916800
     12 C5         -0.0390   -0.3100    2.3590 ca        1 X96     -0.241000
     13 C6         -0.7380   -0.2430    1.1730 ca        1 X96      0.003000
     14 C7          3.4990    0.5050    1.1610 c         1 X96      0.684700
     15 C8          1.4070   -0.3410    4.8530 c3        1 X96      0.256100
     16 C9          2.3510   -0.2580    6.0160 ca        1 X96     -0.114300
     17 C10         3.1530    0.8730    6.2000 ca        1 X96     -0.117500
     18 C11         4.0000    0.9580    7.3030 ca        1 X96     -0.116500
     19 C12         4.0560   -0.0860    8.2320 ca        1 X96     -0.080300
     20 C13         3.2540   -1.2170    8.0460 ca        1 X96     -0.116500
     21 C14         2.4080   -1.3040    6.9420 ca        1 X96     -0.117500
     22 C15         5.0000   -0.0010    9.3960 c3        1 X96      0.201100
     23 H2          1.8260    0.5660   -0.9580 ha        1 X96      0.167000
     24 HN2         3.8320   -0.5700   -0.5700 hn        1 X96      0.318500
     25 HN2A        5.2150    0.1700    0.0970 hn        1 X96      0.318500
     26 HN3         3.0180    0.1330    3.5990 hn        1 X96      0.469800
     27 HN4         5.0320   -0.1650   11.4100 hn        1 X96      0.353800
     28 HN4A        3.5410    0.1160   10.8080 hn        1 X96      0.353800
     29 H5         -0.5870   -0.5500    3.2830 ha        1 X96      0.150000
     30 H6         -1.8280   -0.4270    1.1580 ha        1 X96      0.170000
     31 H8          0.6150    0.4570    4.9810 h1        1 X96      0.053200
     32 H8A         0.8840   -1.3430    4.8580 h1        1 X96      0.053200
     33 H10         3.1170    1.7030    5.4760 ha        1 X96      0.139000
     34 H11         4.6280    1.8520    7.4380 ha        1 X96      0.145000
     35 H13         3.2950   -2.0430    8.7730 ha        1 X96      0.145000
     36 H14         1.7850   -2.2000    6.8010 ha        1 X96      0.139000
     37 H15         5.8520   -0.7200    9.2070 h1        1 X96      0.036700
     38 H15A        5.4480    1.0390    9.4190 h1        1 X96      0.036700
@<TRIPOS>BOND
     1    1    2 1   
     2    1    4 ar  
     3    1   13 ar  
     4    2    3 1   
     5    2    6 1   
     6    4    7 ar  
     7    4   23 1   
     8    5   14 1   
     9    5   24 1   
    10    5   25 1   
    11    7   10 ar  
    12    7   14 1   
    13    8   10 1   
    14    8   15 1   
    15    8   26 1   
    16    9   14 2   
    17   10   12 ar  
    18   11   22 1   
    19   11   27 1   
    20   11   28 1   
    21   12   13 ar  
    22   12   29 1   
    23   13   30 1   
    24   15   16 1   
    25   15   31 1   
    26   15   32 1   
    27   16   17 ar  
    28   16   21 ar  
    29   17   18 ar  
    30   17   33 1   
    31   18   19 ar  
    32   18   34 1   
    33   19   20 ar  
    34   19   22 1   
    35   20   21 ar  
    36   20   35 1   
    37   21   36 1   
    38   22   37 1   
    39   22   38 1   
@<TRIPOS>SUBSTRUCTURE
     1 X96         1 TEMP              0 ****  ****    0 ROOT
