@<TRIPOS>MOLECULE
X96
   40    41     1     0     0
SMALL
bcc


@<TRIPOS>ATOM
      1 C1         -0.0430   -0.0330   -0.0080 ca        1 X96     -0.219200
      2 N1         -0.8250   -0.0440   -1.2800 no        1 X96      0.326200
      3 O1         -0.2110   -0.1340   -2.3080 o         1 X96     -0.170500
      4 C2          1.3330   -0.1350   -0.0460 ca        1 X96     -0.002000
      5 N2          4.1940   -0.2330   -0.3030 n4        1 X96     -0.755400
      6 O2         -2.0150    0.0380   -1.2180 o         1 X96     -0.170500
      7 C3          2.1070   -0.1270    1.1400 ca        1 X96     -0.308600
      8 N3          2.1080   -0.0290    3.5970 nh        1 X96     -0.734600
      9 O3          4.3840   -0.3000    1.9700 o         1 X96     -0.491100
     10 C4          1.4380   -0.0230    2.4130 ca        1 X96      0.327600
     11 N4          4.1630   -0.3140   10.7710 n4        1 X96     -0.842600
     12 C5          0.0020    0.0860    2.3990 ca        1 X96     -0.225000
     13 C6         -0.7210    0.0820    1.2360 ca        1 X96      0.042000
     14 C7          3.5440   -0.2240    1.0730 c         1 X96      0.588700
     15 C8          1.4340    0.1150    4.8700 c3        1 X96      0.241100
     16 C9          2.3710    0.0910    6.0450 ca        1 X96     -0.079300
     17 C10         2.4830    1.2190    6.8660 ca        1 X96     -0.102000
     18 C11         3.2930    1.1810    8.0000 ca        1 X96     -0.091500
     19 C12         3.9970    0.0140    8.3200 ca        1 X96     -0.172300
     20 C13         3.8940   -1.1110    7.4940 ca        1 X96     -0.091500
     21 C14         3.0840   -1.0710    6.3600 ca        1 X96     -0.102000
     22 C15         4.9040   -0.0070    9.5040 c3        1 X96      0.165100
     23 H2          1.8040   -0.2290   -1.0420 ha        1 X96      0.157000
     24 HN2         3.8950   -1.0590   -0.8310 hn        1 X96      0.473800
     25 HN2A        5.2170   -0.2580   -0.1940 hn        1 X96      0.473800
     26 HN3         3.1030   -0.1000    3.6160 hn        1 X96      0.470800
     27 HN4         3.4270    0.3830   10.9260 hn        1 X96      0.464467
     28 HN4A        3.7250   -1.2390   10.7100 hn        1 X96      0.464467
     29 H5         -0.5460    0.1730    3.3530 ha        1 X96      0.173000
     30 H6         -1.8270    0.1650    1.2500 ha        1 X96      0.206000
     31 H8          0.8540    1.0860    4.8710 h1        1 X96      0.082200
     32 H8A         0.6940   -0.7330    4.9920 h1        1 X96      0.082200
     33 H10         1.9330    2.1430    6.6220 ha        1 X96      0.164500
     34 H11         3.3850    2.0810    8.6290 ha        1 X96      0.154000
     35 H13         4.4580   -2.0300    7.7250 ha        1 X96      0.154000
     36 H14         3.0010   -1.9640    5.7190 ha        1 X96      0.164500
     37 H15         5.4020    0.9990    9.6390 hx        1 X96      0.121200
     38 H15A        5.7070   -0.7930    9.3810 hx        1 X96      0.121200
     39 H23         3.9320    0.6100   -0.8250 hn        1 X96      0.473800
     40 H43         4.8100   -0.3020   11.5680 hn        1 X96      0.464467
@<TRIPOS>BOND
     1    1    2 1   
     2    1    4 ar  
     3    1   13 ar  
     4    2    3 1   
     5    2    6 1   
     6    4    7 ar  
     7    4   23 1   
     8    5   14 1   
     9    5   24 1   
    10    5   25 1   
    11    5   39 1   
    12    7   10 ar  
    13    7   14 1   
    14    8   10 1   
    15    8   15 1   
    16    8   26 1   
    17    9   14 2   
    18   10   12 ar  
    19   11   22 1   
    20   11   27 1   
    21   11   28 1   
    22   11   40 1   
    23   12   13 ar  
    24   12   29 1   
    25   13   30 1   
    26   15   16 1   
    27   15   31 1   
    28   15   32 1   
    29   16   17 ar  
    30   16   21 ar  
    31   17   18 ar  
    32   17   33 1   
    33   18   19 ar  
    34   18   34 1   
    35   19   20 ar  
    36   19   22 1   
    37   20   21 ar  
    38   20   35 1   
    39   21   36 1   
    40   22   37 1   
    41   22   38 1   
@<TRIPOS>SUBSTRUCTURE
     1 X96         1 TEMP              0 ****  ****    0 ROOT
