@<TRIPOS>MOLECULE
X96
   38    39     1     0     0
SMALL
bcc


@<TRIPOS>ATOM
      1 C1         -4.0080   -0.6210    0.0400 ca        1 X96     -0.264200
      2 N1         -5.4680   -0.8280    0.0920 no        1 X96      0.326200
      3 O1         -6.1830    0.1110    0.3330 o         1 X96     -0.221000
      4 C2         -3.4700    0.6470    0.3040 ca        1 X96      0.011000
      5 N2         -2.2070    3.2980    0.0410 n         1 X96     -0.664000
      6 O2         -5.9120   -1.9270   -0.1110 o         1 X96     -0.221000
      7 C3         -2.0960    0.8550    0.2530 ca        1 X96     -0.248600
      8 N3          0.1420   -0.0300   -0.1370 nh        1 X96     -0.746600
      9 O3         -0.5280    2.3810    1.2540 o         1 X96     -0.636100
     10 C4         -1.2080   -0.2270   -0.0530 ca        1 X96      0.286600
     11 N4          7.5780   -0.5820   -0.2270 n3        1 X96     -0.916800
     12 C5         -1.7910   -1.5050   -0.3180 ca        1 X96     -0.241000
     13 C6         -3.1550   -1.6980   -0.2730 ca        1 X96      0.003000
     14 C7         -1.5540    2.2090    0.5570 c         1 X96      0.684700
     15 C8          1.0670   -1.1250   -0.3020 c3        1 X96      0.256100
     16 C9          2.5020   -0.7000   -0.1910 ca        1 X96     -0.114300
     17 C10         2.9620   -0.0460    0.9570 ca        1 X96     -0.117500
     18 C11         4.3040    0.3120    1.0660 ca        1 X96     -0.116500
     19 C12         5.1990    0.0230    0.0310 ca        1 X96     -0.080300
     20 C13         4.7360   -0.6290   -1.1170 ca        1 X96     -0.116500
     21 C14         3.3940   -0.9860   -1.2280 ca        1 X96     -0.117500
     22 C15         6.6340    0.4480    0.1430 c3        1 X96      0.201100
     23 H2         -4.1530    1.4750    0.5700 ha        1 X96      0.167000
     24 HN2        -3.0100    3.1960   -0.5240 hn        1 X96      0.318500
     25 HN2A       -1.8750    4.2070    0.2480 hn        1 X96      0.318500
     26 HN3         0.5190    0.8370    0.1940 hn        1 X96      0.469800
     27 HN4         8.5090   -0.2910   -0.0050 hn        1 X96      0.353800
     28 HN4A        7.3780   -1.4420    0.2420 hn        1 X96      0.353800
     29 H5         -1.1440   -2.3610   -0.5610 ha        1 X96      0.150000
     30 H6         -3.5830   -2.6950   -0.4790 ha        1 X96      0.170000
     31 H8          0.8700   -1.9170    0.4820 h1        1 X96      0.053200
     32 H8A         0.8860   -1.5950   -1.3140 h1        1 X96      0.053200
     33 H10         2.2680    0.1850    1.7800 ha        1 X96      0.139000
     34 H11         4.6560    0.8270    1.9730 ha        1 X96      0.145000
     35 H13         5.4360   -0.8570   -1.9370 ha        1 X96      0.145000
     36 H14         3.0380   -1.4940   -2.1380 ha        1 X96      0.139000
     37 H15         6.8120    0.8380    1.1920 h1        1 X96      0.036700
     38 H15A        6.7970    1.3180   -0.5610 h1        1 X96      0.036700
@<TRIPOS>BOND
     1    1    2 1   
     2    1    4 ar  
     3    1   13 ar  
     4    2    3 1   
     5    2    6 1   
     6    4    7 ar  
     7    4   23 1   
     8    5   14 1   
     9    5   24 1   
    10    5   25 1   
    11    7   10 ar  
    12    7   14 1   
    13    8   10 1   
    14    8   15 1   
    15    8   26 1   
    16    9   14 2   
    17   10   12 ar  
    18   11   22 1   
    19   11   27 1   
    20   11   28 1   
    21   12   13 ar  
    22   12   29 1   
    23   13   30 1   
    24   15   16 1   
    25   15   31 1   
    26   15   32 1   
    27   16   17 ar  
    28   16   21 ar  
    29   17   18 ar  
    30   17   33 1   
    31   18   19 ar  
    32   18   34 1   
    33   19   20 ar  
    34   19   22 1   
    35   20   21 ar  
    36   20   35 1   
    37   21   36 1   
    38   22   37 1   
    39   22   38 1   
@<TRIPOS>SUBSTRUCTURE
     1 X96         1 TEMP              0 ****  ****    0 ROOT
