@<TRIPOS>MOLECULE
X96
   38    35     1     0     0
SMALL
bcc


@<TRIPOS>ATOM
      1 C1         -2.0510   -0.3530   -4.4810 c1        1 X96     -0.218000
      2 N1         -2.6780   -0.4180   -5.7650 n2        1 X96      0.472400
      3 O1         -3.4940   -1.2620   -5.9880 o         1 X96     -0.316700
      4 C2         -1.2020    0.6950   -4.1800 c1        1 X96      0.010000
      5 N2          0.4960    2.9930   -3.5780 n         1 X96     -0.425000
      6 O2         -2.4110    0.5530   -6.7120 o         1 X96     -0.316700
      7 C3         -0.6450    0.7870   -2.9380 c1        1 X96     -0.226000
      8 N3         -0.3960    0.1320   -0.6590 n3        1 X96     -0.303000
      9 O3          0.8240    2.0000   -1.5480 o         1 X96     -0.392000
     10 C4         -0.9320   -0.1780   -1.9670 c2        1 X96      0.205000
     11 N4          1.8380   -0.4960    6.3480 n3        1 X96     -0.349000
     12 C5         -1.7700   -1.2150   -2.2630 c2        1 X96     -0.241000
     13 C6         -2.3360   -1.3090   -3.5230 c2        1 X96      0.003000
     14 C7          0.2450    1.9730   -2.5930 c2        1 X96      0.356000
     15 C8         -0.9080   -0.5210    0.4880 c3        1 X96      0.012000
     16 C9          0.1330   -0.4810    1.6020 c2        1 X96     -0.108000
     17 C10         0.4380    0.7540    2.2370 c2        1 X96     -0.114000
     18 C11         1.2590    0.7750    3.3840 c1        1 X96     -0.127000
     19 C12         1.7800   -0.4370    3.9050 c1        1 X96     -0.071000
     20 C13         1.4780   -1.6640    3.2750 c1        1 X96     -0.108000
     21 C14         0.6530   -1.6860    2.1220 c1        1 X96     -0.114000
     22 C15         2.6720   -0.4160    5.1820 c3        1 X96     -0.043000
     23 H2         -1.0060    1.3520   -4.8370 ha        1 X96      0.167000
     24 HN2         0.2880    2.8430   -4.4510 hn        1 X96      0.231000
     25 HN2A        0.9220    3.7660   -3.3370 hn        1 X96      0.231000
     26 HN3         0.2180    0.8100   -0.5640 hn        1 X96      0.267000
     27 HN4         1.9210    0.2950    6.8480 hn        1 X96      0.149500
     28 HN4A        2.0920   -1.1950    6.8490 hn        1 X96      0.149500
     29 H5         -1.9710   -1.8920   -1.5820 ha        1 X96      0.150000
     30 H6         -2.9480   -2.0660   -3.7410 ha        1 X96      0.169000
     31 H8         -1.7220   -0.0660    0.7870 h1        1 X96      0.092000
     32 H8A        -1.1110   -1.4280    0.2740 h1        1 X96      0.092000
     33 H10         0.0890    1.5670    1.8870 ha        1 X96      0.138000
     34 H11         1.4730    1.6410    3.8290 ha        1 X96      0.135000
     35 H13         1.8430   -2.5120    3.6400 ha        1 X96      0.154000
     36 H14         0.4410   -2.5570    1.6750 ha        1 X96      0.136000
     37 H15         3.1840    0.4080    5.2060 h1        1 X96      0.076000
     38 H15A        3.2930   -1.1900    5.1650 h1        1 X96      0.076000
@<TRIPOS>BOND
     1    1    4 1   
     2    1   13 1   
     3    2    3 2   
     4    2    6 2   
     5    4   23 1   
     6    5   14 1   
     7    5   24 1   
     8    5   25 1   
     9    7   10 1   
    10    7   14 1   
    11    8   10 1   
    12    8   15 1   
    13    8   26 1   
    14    9   14 1   
    15   10   12 1   
    16   11   22 1   
    17   11   27 1   
    18   11   28 1   
    19   12   13 1   
    20   12   29 1   
    21   13   30 1   
    22   15   16 1   
    23   15   31 1   
    24   15   32 1   
    25   16   17 1   
    26   16   21 1   
    27   17   18 1   
    28   17   33 1   
    29   18   34 1   
    30   19   20 1   
    31   19   22 1   
    32   20   35 1   
    33   21   36 1   
    34   22   37 1   
    35   22   38 1   
@<TRIPOS>SUBSTRUCTURE
     1 X96         1 TEMP              0 ****  ****    0 ROOT
