@<TRIPOS>MOLECULE
X96
   40    41     1     0     0
SMALL
bcc


@<TRIPOS>ATOM
      1 C1         -0.0440   -0.0350   -0.0070 ca        1 X96     -0.219200
      2 N1         -0.8270   -0.0460   -1.2800 no        1 X96      0.326200
      3 O1         -0.2130   -0.1330   -2.3080 o         1 X96     -0.170500
      4 C2          1.3320   -0.1330   -0.0460 ca        1 X96     -0.002000
      5 N2          4.1930   -0.2230   -0.3040 nz        1 X96     -0.755400
      6 O2         -2.0170    0.0330   -1.2170 o         1 X96     -0.170500
      7 C3          2.1070   -0.1240    1.1400 ca        1 X96     -0.308600
      8 N3          2.1070   -0.0290    3.5970 nu        1 X96     -0.734600
      9 O3          4.3840   -0.2920    1.9690 o         1 X96     -0.491100
     10 C4          1.4370   -0.0240    2.4140 ca        1 X96      0.327600
     11 N4          4.1650   -0.3110   10.7710 nz        1 X96     -0.842600
     12 C5          0.0010    0.0810    2.4000 ca        1 X96     -0.225000
     13 C6         -0.7220    0.0770    1.2370 ca        1 X96      0.042000
     14 C7          3.5440   -0.2170    1.0720 c         1 X96      0.588700
     15 C8          1.4340    0.1110    4.8710 c3        1 X96      0.241100
     16 C9          2.3710    0.0880    6.0450 ca        1 X96     -0.079300
     17 C10         2.4880    1.2180    6.8620 ca        1 X96     -0.102000
     18 C11         3.2980    1.1800    7.9970 ca        1 X96     -0.091500
     19 C12         3.9990    0.0120    8.3200 ca        1 X96     -0.172300
     20 C13         3.8910   -1.1150    7.4970 ca        1 X96     -0.091500
     21 C14         3.0800   -1.0760    6.3630 ca        1 X96     -0.102000
     22 C15         4.9060   -0.0090    9.5030 c3        1 X96      0.165100
     23 H2          1.8030   -0.2240   -1.0420 ha        1 X96      0.157000
     24 HN2         3.9290    0.6190   -0.8250 hn        1 X96      0.473800
     25 HN2A        5.2160   -0.2460   -0.1950 hn        1 X96      0.473800
     26 HN3         3.1030   -0.0970    3.6160 hn        1 X96      0.470800
     27 HN4         3.4300    0.3880   10.9250 hn        1 X96      0.464467
     28 HN4A        3.7240   -1.2360   10.7120 hn        1 X96      0.464467
     29 H5         -0.5470    0.1660    3.3540 ha        1 X96      0.173000
     30 H6         -1.8280    0.1570    1.2510 ha        1 X96      0.206000
     31 H8          0.8520    1.0810    4.8730 h1        1 X96      0.082200
     32 H8A         0.6950   -0.7390    4.9920 h1        1 X96      0.082200
     33 H10         1.9400    2.1440    6.6160 ha        1 X96      0.164500
     34 H11         3.3940    2.0820    8.6230 ha        1 X96      0.154000
     35 H13         4.4520   -2.0350    7.7300 ha        1 X96      0.154000
     36 H14         2.9940   -1.9700    5.7240 ha        1 X96      0.164500
     37 H15         5.7060   -0.7970    9.3820 hx        1 X96      0.121200
     38 H15A        5.4060    0.9960    9.6360 hx        1 X96      0.121200
     39 H23         3.8960   -1.0500   -0.8330 hn        1 X96      0.473800
     40 H43         4.8120   -0.2990   11.5670 hn        1 X96      0.464467
@<TRIPOS>BOND
     1    1    2 1   
     2    1    4 ar  
     3    1   13 ar  
     4    2    3 1   
     5    2    6 1   
     6    4    7 ar  
     7    4   23 1   
     8    5   14 1   
     9    5   24 1   
    10    5   25 1   
    11    5   39 1   
    12    7   10 ar  
    13    7   14 1   
    14    8   10 1   
    15    8   15 1   
    16    8   26 1   
    17    9   14 2   
    18   10   12 ar  
    19   11   22 1   
    20   11   27 1   
    21   11   28 1   
    22   11   40 1   
    23   12   13 ar  
    24   12   29 1   
    25   13   30 1   
    26   15   16 1   
    27   15   31 1   
    28   15   32 1   
    29   16   17 ar  
    30   16   21 ar  
    31   17   18 ar  
    32   17   33 1   
    33   18   19 ar  
    34   18   34 1   
    35   19   20 ar  
    36   19   22 1   
    37   20   21 ar  
    38   20   35 1   
    39   21   36 1   
    40   22   37 1   
    41   22   38 1   
@<TRIPOS>SUBSTRUCTURE
     1 X96         1 TEMP              0 ****  ****    0 ROOT
