@<TRIPOS>MOLECULE
X97
   68    72     1     0     0
SMALL
bcc


@<TRIPOS>ATOM
      1 C          -0.3600    0.0290   -0.3440 c         1 X97      0.669100
      2 O           0.8550   -0.2040   -0.5120 o         1 X97     -0.617100
      3 C1         -0.9890    0.0530    1.0360 c3        1 X97     -0.140400
      4 C2          0.0770    0.0580    2.1110 c3        1 X97     -0.102400
      5 C3         -0.5910    0.0390    3.4870 c3        1 X97      0.109000
      6 N4          0.3150    0.0260    4.6000 n         1 X97     -0.507400
      7 C5          0.9050    1.2050    5.1500 c         1 X97      0.785500
      8 N6          1.9760    0.8460    6.0130 ns        1 X97     -0.516900
      9 C7          2.0070   -0.6270    6.1820 c3        1 X97      0.123000
     10 C8          0.9300   -1.1190    5.1410 c         1 X97      0.703500
     11 O9          0.5470    2.3650    4.8930 o         1 X97     -0.602500
     12 O10         0.6440   -2.2810    4.8490 o         1 X97     -0.578500
     13 C11         3.3430   -1.2410    5.8140 ca        1 X97     -0.104800
     14 C12         3.4320   -2.6400    5.7640 ca        1 X97     -0.106750
     15 C13         4.6400   -3.2560    5.4510 ca        1 X97     -0.132000
     16 C14         5.7720   -2.4850    5.1860 ca        1 X97     -0.116500
     17 C15         5.6870   -1.0950    5.2330 ca        1 X97     -0.132000
     18 C16         4.4780   -0.4710    5.5450 ca        1 X97     -0.106750
     19 C17         1.6460   -1.0290    7.5980 ca        1 X97     -0.104800
     20 C18         2.4390   -0.5410    8.6460 ca        1 X97     -0.106750
     21 C19         2.1410   -0.8720    9.9660 ca        1 X97     -0.132000
     22 C20         1.0520   -1.6960   10.2520 ca        1 X97     -0.116500
     23 C21         0.2680   -2.1910    9.2110 ca        1 X97     -0.132000
     24 C22         0.5620   -1.8610    7.8880 ca        1 X97     -0.106750
     25 N          -1.1750    0.3020   -1.4290 n         1 X97     -0.464800
     26 CA         -0.7090    0.2060   -2.8040 c3        1 X97      0.045700
     27 C4         -0.1230    1.5500   -3.3000 c         1 X97      0.649100
     28 O1         -0.8520    2.5580   -3.3970 o         1 X97     -0.607100
     29 CB         -1.9420   -0.1410   -3.6740 c3        1 X97     -0.082400
     30 CG         -3.1600    0.0020   -2.7670 c3        1 X97     -0.087400
     31 CD         -2.6240    0.3130   -1.3600 c3        1 X97      0.094000
     32 N1          1.1850    1.5900   -3.7430 n         1 X97     -0.455800
     33 CD1         1.7840    2.8580   -4.1340 c3        1 X97      0.076500
     34 CA1         2.2010    0.6240   -3.3650 c3        1 X97      0.076500
     35 CB1         3.5730    1.3060   -3.5030 c3        1 X97     -0.089900
     36 CG1         3.3050    2.7330   -3.9700 c3        1 X97     -0.089900
     37 H1         -1.6450    0.9580    1.1410 hc        1 X97      0.067700
     38 H1A        -1.6380   -0.8580    1.1430 hc        1 X97      0.067700
     39 H2          0.7450   -0.8340    1.9830 hc        1 X97      0.074200
     40 H2A         0.7180    0.9710    2.0000 hc        1 X97      0.074200
     41 H3         -1.2350   -0.8830    3.5710 h1        1 X97      0.068700
     42 H3A        -1.2410    0.9560    3.5930 h1        1 X97      0.068700
     43 HN6         2.0970    1.3970    6.8330 hn        1 X97      0.321500
     44 H12         2.5340   -3.2490    5.9600 ha        1 X97      0.147500
     45 H13         4.6980   -4.3540    5.4110 ha        1 X97      0.136500
     46 H14         6.7260   -2.9730    4.9380 ha        1 X97      0.135000
     47 H15         6.5750   -0.4820    5.0200 ha        1 X97      0.136500
     48 H16         4.4420    0.6290    5.5680 ha        1 X97      0.147500
     49 H18         3.3140    0.0900    8.4260 ha        1 X97      0.147500
     50 H19         2.7680   -0.4840   10.7830 ha        1 X97      0.136500
     51 H20         0.8160   -1.9570   11.2940 ha        1 X97      0.135000
     52 H21        -0.5880   -2.8480    9.4300 ha        1 X97      0.136500
     53 H22        -0.0630   -2.2740    7.0800 ha        1 X97      0.147500
     54 HA          0.0660   -0.6110   -2.8740 h1        1 X97      0.081700
     55 HB2        -2.0130    0.5510   -4.5490 hc        1 X97      0.063700
     56 HB3        -1.8470   -1.1860   -4.0570 hc        1 X97      0.063700
     57 HG2        -3.7640   -0.9380   -2.7560 hc        1 X97      0.057200
     58 HG3        -3.8180    0.8350   -3.1170 hc        1 X97      0.057200
     59 HD2        -2.9700    1.3290   -1.0200 h1        1 X97      0.047200
     60 HD3        -2.9890   -0.4500   -0.6180 h1        1 X97      0.047200
     61 HD          1.3710    3.6970   -3.5080 h1        1 X97      0.058950
     62 HDA         1.5110    3.0650   -5.2060 h1        1 X97      0.058950
     63 HA1         2.0480    0.2620   -2.3090 h1        1 X97      0.058950
     64 HAA         2.1340   -0.2620   -4.0560 h1        1 X97      0.058950
     65 HB          4.1070    1.2980   -2.5220 hc        1 X97      0.051450
     66 HBA         4.2050    0.7550   -4.2420 hc        1 X97      0.051450
     67 HG          3.8180    2.9420   -4.9400 hc        1 X97      0.051450
     68 HGA         3.6750    3.4740   -3.2200 hc        1 X97      0.051450
@<TRIPOS>BOND
     1    1    2 2   
     2    1    3 1   
     3    1   25 1   
     4    3    4 1   
     5    3   37 1   
     6    3   38 1   
     7    4    5 1   
     8    4   39 1   
     9    4   40 1   
    10    5    6 1   
    11    5   41 1   
    12    5   42 1   
    13    6    7 1   
    14    6   10 1   
    15    7    8 1   
    16    7   11 2   
    17    8    9 1   
    18    8   43 1   
    19    9   10 1   
    20    9   13 1   
    21    9   19 1   
    22   10   12 2   
    23   13   14 ar  
    24   13   18 ar  
    25   14   15 ar  
    26   14   44 1   
    27   15   16 ar  
    28   15   45 1   
    29   16   17 ar  
    30   16   46 1   
    31   17   18 ar  
    32   17   47 1   
    33   18   48 1   
    34   19   20 ar  
    35   19   24 ar  
    36   20   21 ar  
    37   20   49 1   
    38   21   22 ar  
    39   21   50 1   
    40   22   23 ar  
    41   22   51 1   
    42   23   24 ar  
    43   23   52 1   
    44   24   53 1   
    45   25   26 1   
    46   25   31 1   
    47   26   27 1   
    48   26   29 1   
    49   26   54 1   
    50   27   28 2   
    51   27   32 1   
    52   29   30 1   
    53   29   55 1   
    54   29   56 1   
    55   30   31 1   
    56   30   57 1   
    57   30   58 1   
    58   31   59 1   
    59   31   60 1   
    60   32   33 1   
    61   32   34 1   
    62   33   36 1   
    63   33   61 1   
    64   33   62 1   
    65   34   35 1   
    66   34   63 1   
    67   34   64 1   
    68   35   36 1   
    69   35   65 1   
    70   35   66 1   
    71   36   67 1   
    72   36   68 1   
@<TRIPOS>SUBSTRUCTURE
     1 X97         1 TEMP              0 ****  ****    0 ROOT
