@<TRIPOS>MOLECULE
X97
   68    72     1     0     0
SMALL
bcc


@<TRIPOS>ATOM
      1 C          -3.0590    1.2160    0.4880 c         1 X97      0.669100
      2 O          -3.0330   -0.0110    0.7140 o         1 X97     -0.617100
      3 C1         -1.7970    2.0070    0.2010 c3        1 X97     -0.140400
      4 C2         -0.6290    1.0790   -0.0520 c3        1 X97     -0.102400
      5 C3          0.6330    1.9080   -0.2950 c3        1 X97      0.109000
      6 N4          1.8250    1.1420   -0.5320 n         1 X97     -0.507400
      7 C5          2.1880    0.6260   -1.8130 c         1 X97      0.785500
      8 N6          3.2270   -0.3340   -1.6650 n         1 X97     -0.516900
      9 C7          3.6950   -0.3480   -0.2570 c3        1 X97      0.123000
     10 C8          2.6550    0.5940    0.4630 c         1 X97      0.703500
     11 O9          1.6600    0.9530   -2.8870 o         1 X97     -0.602500
     12 O10         2.5750    0.8410    1.6680 o         1 X97     -0.578500
     13 C11         3.6190   -1.7190    0.3820 ca        1 X97     -0.104800
     14 C12         3.8660   -1.8170    1.7600 ca        1 X97     -0.106750
     15 C13         3.8300   -3.0560    2.3940 ca        1 X97     -0.132000
     16 C14         3.5490   -4.2100    1.6610 ca        1 X97     -0.116500
     17 C15         3.3020   -4.1170    0.2940 ca        1 X97     -0.132000
     18 C16         3.3360   -2.8770   -0.3480 ca        1 X97     -0.106750
     19 C17         5.1100    0.1810   -0.1390 ca        1 X97     -0.104800
     20 C18         6.1230   -0.4780   -0.8500 ca        1 X97     -0.106750
     21 C19         7.4380   -0.0230   -0.7850 ca        1 X97     -0.132000
     22 C20         7.7550    1.0910   -0.0060 ca        1 X97     -0.116500
     23 C21         6.7520    1.7420    0.7090 ca        1 X97     -0.132000
     24 C22         5.4330    1.2910    0.6450 ca        1 X97     -0.106750
     25 N          -4.2650    1.8950    0.4660 n         1 X97     -0.464800
     26 CA         -5.5270    1.2660    0.8270 c3        1 X97      0.045700
     27 C4         -6.2170    0.6320   -0.4040 c         1 X97      0.649100
     28 O1         -6.6050    1.3480   -1.3500 o         1 X97     -0.607100
     29 CB         -6.4450    2.3830    1.3800 c3        1 X97     -0.082400
     30 CG         -5.7360    3.7030    1.0910 c3        1 X97     -0.087400
     31 CD         -4.3700    3.3420    0.4840 c3        1 X97      0.094000
     32 N1         -6.5030   -0.7200   -0.3920 n         1 X97     -0.455800
     33 CD1        -7.0750   -1.3560   -1.5710 c3        1 X97      0.076500
     34 CA1        -5.8170   -1.6880    0.4460 c3        1 X97      0.076500
     35 CB1        -5.9320   -3.0640   -0.2340 c3        1 X97     -0.089900
     36 CG1        -6.7100   -2.8470   -1.5260 c3        1 X97     -0.089900
     37 H1         -1.9590    2.6730   -0.6880 hc        1 X97      0.067700
     38 H1A        -1.5820    2.6620    1.0890 hc        1 X97      0.067700
     39 H2         -0.4920    0.3980    0.8290 hc        1 X97      0.074200
     40 H2A        -0.8490    0.4300   -0.9400 hc        1 X97      0.074200
     41 H3          0.4730    2.5670   -1.1980 h1        1 X97      0.068700
     42 H3A         0.8280    2.5560    0.6070 h1        1 X97      0.068700
     43 HN6         3.9260   -0.3530   -2.3720 hn        1 X97      0.321500
     44 H12         4.0740   -0.9030    2.3410 ha        1 X97      0.147500
     45 H13         4.0210   -3.1210    3.4750 ha        1 X97      0.136500
     46 H14         3.5200   -5.1880    2.1630 ha        1 X97      0.135000
     47 H15         3.0750   -5.0220   -0.2880 ha        1 X97      0.136500
     48 H16         3.1300   -2.8360   -1.4280 ha        1 X97      0.147500
     49 H18         5.8840   -1.3720   -1.4470 ha        1 X97      0.147500
     50 H19         8.2270   -0.5470   -1.3450 ha        1 X97      0.136500
     51 H20         8.7930    1.4500    0.0450 ha        1 X97      0.135000
     52 H21         6.9970    2.6160    1.3310 ha        1 X97      0.136500
     53 H22         4.6580    1.8130    1.2290 ha        1 X97      0.147500
     54 HA         -5.3350    0.4840    1.6180 h1        1 X97      0.081700
     55 HB2        -7.4460    2.3510    0.8840 hc        1 X97      0.063700
     56 HB3        -6.5900    2.2380    2.4780 hc        1 X97      0.063700
     57 HG2        -6.3240    4.3180    0.3670 hc        1 X97      0.057200
     58 HG3        -5.6020    4.2990    2.0260 hc        1 X97      0.057200
     59 HD2        -3.5340    3.7900    1.0890 h1        1 X97      0.047200
     60 HD3        -4.2900    3.7310   -0.5690 h1        1 X97      0.047200
     61 HD         -8.1900   -1.2140   -1.5460 h1        1 X97      0.058950
     62 HDA        -6.6870   -0.8670   -2.5070 h1        1 X97      0.058950
     63 HA1        -4.7340   -1.4100    0.5890 h1        1 X97      0.058950
     64 HAA        -6.3140   -1.7090    1.4560 h1        1 X97      0.058950
     65 HB         -4.9140   -3.4750   -0.4420 hc        1 X97      0.051450
     66 HBA        -6.4620   -3.7820    0.4380 hc        1 X97      0.051450
     67 HG         -7.6360   -3.4720   -1.5480 hc        1 X97      0.051450
     68 HGA        -6.0910   -3.1200   -2.4160 hc        1 X97      0.051450
@<TRIPOS>BOND
     1    1    2 2   
     2    1    3 1   
     3    1   25 1   
     4    3    4 1   
     5    3   37 1   
     6    3   38 1   
     7    4    5 1   
     8    4   39 1   
     9    4   40 1   
    10    5    6 1   
    11    5   41 1   
    12    5   42 1   
    13    6    7 1   
    14    6   10 1   
    15    7    8 1   
    16    7   11 2   
    17    8    9 1   
    18    8   43 1   
    19    9   10 1   
    20    9   13 1   
    21    9   19 1   
    22   10   12 2   
    23   13   14 ar  
    24   13   18 ar  
    25   14   15 ar  
    26   14   44 1   
    27   15   16 ar  
    28   15   45 1   
    29   16   17 ar  
    30   16   46 1   
    31   17   18 ar  
    32   17   47 1   
    33   18   48 1   
    34   19   20 ar  
    35   19   24 ar  
    36   20   21 ar  
    37   20   49 1   
    38   21   22 ar  
    39   21   50 1   
    40   22   23 ar  
    41   22   51 1   
    42   23   24 ar  
    43   23   52 1   
    44   24   53 1   
    45   25   26 1   
    46   25   31 1   
    47   26   27 1   
    48   26   29 1   
    49   26   54 1   
    50   27   28 2   
    51   27   32 1   
    52   29   30 1   
    53   29   55 1   
    54   29   56 1   
    55   30   31 1   
    56   30   57 1   
    57   30   58 1   
    58   31   59 1   
    59   31   60 1   
    60   32   33 1   
    61   32   34 1   
    62   33   36 1   
    63   33   61 1   
    64   33   62 1   
    65   34   35 1   
    66   34   63 1   
    67   34   64 1   
    68   35   36 1   
    69   35   65 1   
    70   35   66 1   
    71   36   67 1   
    72   36   68 1   
@<TRIPOS>SUBSTRUCTURE
     1 X97         1 TEMP              0 ****  ****    0 ROOT
