@<TRIPOS>MOLECULE
X97
   68    72     1     0     0
SMALL
bcc


@<TRIPOS>ATOM
      1 C          -0.3550    0.0190   -0.3460 c         1 X97      0.669100
      2 O           0.8610   -0.2060   -0.5130 o         1 X97     -0.617100
      3 C1         -0.9860    0.0440    1.0340 c3        1 X97     -0.140400
      4 C2          0.0790    0.0580    2.1090 c3        1 X97     -0.102400
      5 C3         -0.5900    0.0410    3.4840 c3        1 X97      0.109000
      6 N4          0.3160    0.0330    4.5990 n         1 X97     -0.507400
      7 C5          0.9000    1.2160    5.1460 c         1 X97      0.785500
      8 N6          1.9720    0.8630    6.0110 n         1 X97     -0.516900
      9 C7          2.0090   -0.6100    6.1840 c3        1 X97      0.123000
     10 C8          0.9350   -1.1080    5.1410 c         1 X97      0.703500
     11 O9          0.5390    2.3740    4.8870 o         1 X97     -0.602500
     12 O10         0.6530   -2.2720    4.8520 o         1 X97     -0.578500
     13 C11         3.3470   -1.2200    5.8170 ca        1 X97     -0.104800
     14 C12         3.4410   -2.6190    5.7700 ca        1 X97     -0.106750
     15 C13         4.6520   -3.2310    5.4600 ca        1 X97     -0.132000
     16 C14         5.7820   -2.4560    5.1940 ca        1 X97     -0.116500
     17 C15         5.6910   -1.0670    5.2390 ca        1 X97     -0.132000
     18 C16         4.4800   -0.4460    5.5490 ca        1 X97     -0.106750
     19 C17         1.6480   -1.0110    7.5990 ca        1 X97     -0.104800
     20 C18         2.4380   -0.5180    8.6480 ca        1 X97     -0.106750
     21 C19         2.1400   -0.8480    9.9680 ca        1 X97     -0.132000
     22 C20         1.0530   -1.6750   10.2540 ca        1 X97     -0.116500
     23 C21         0.2720   -2.1750    9.2140 ca        1 X97     -0.132000
     24 C22         0.5660   -1.8460    7.8900 ca        1 X97     -0.106750
     25 N          -1.1710    0.2820   -1.4330 n         1 X97     -0.464800
     26 CA         -0.7030    0.1830   -2.8070 c3        1 X97      0.045700
     27 C4         -0.1270    1.5300   -3.3090 c         1 X97      0.649100
     28 O1         -0.8630    2.5320   -3.4100 o         1 X97     -0.607100
     29 CB         -1.9330   -0.1750   -3.6760 c3        1 X97     -0.082400
     30 CG         -3.1530   -0.0380   -2.7720 c3        1 X97     -0.087400
     31 CD         -2.6200    0.2830   -1.3650 c3        1 X97      0.094000
     32 N1          1.1810    1.5770   -3.7500 n         1 X97     -0.455800
     33 CD1         1.7710    2.8490   -4.1470 c3        1 X97      0.076500
     34 CA1         2.2040    0.6210   -3.3670 c3        1 X97      0.076500
     35 CB1         3.5710    1.3120   -3.5080 c3        1 X97     -0.089900
     36 CG1         3.2930    2.7350   -3.9800 c3        1 X97     -0.089900
     37 H1         -1.6450    0.9470    1.1340 hc        1 X97      0.067700
     38 H1A        -1.6300   -0.8700    1.1430 hc        1 X97      0.067700
     39 H2          0.7510   -0.8320    1.9840 hc        1 X97      0.074200
     40 H2A         0.7170    0.9740    1.9950 hc        1 X97      0.074200
     41 H3         -1.2310   -0.8830    3.5710 h1        1 X97      0.068700
     42 H3A        -1.2420    0.9560    3.5880 h1        1 X97      0.068700
     43 HN6         2.0900    1.4150    6.8300 hn        1 X97      0.321500
     44 H12         2.5450   -3.2310    5.9660 ha        1 X97      0.147500
     45 H13         4.7140   -4.3290    5.4210 ha        1 X97      0.136500
     46 H14         6.7380   -2.9410    4.9490 ha        1 X97      0.135000
     47 H15         6.5770   -0.4500    5.0260 ha        1 X97      0.136500
     48 H16         4.4390    0.6530    5.5700 ha        1 X97      0.147500
     49 H18         3.3110    0.1160    8.4270 ha        1 X97      0.147500
     50 H19         2.7650   -0.4570   10.7840 ha        1 X97      0.136500
     51 H20         0.8170   -1.9350   11.2960 ha        1 X97      0.135000
     52 H21        -0.5820   -2.8340    9.4320 ha        1 X97      0.136500
     53 H22        -0.0570   -2.2620    7.0820 ha        1 X97      0.147500
     54 HA          0.0780   -0.6280   -2.8730 h1        1 X97      0.081700
     55 HB2        -2.0080    0.5120   -4.5540 hc        1 X97      0.063700
     56 HB3        -1.8310   -1.2210   -4.0560 hc        1 X97      0.063700
     57 HG2        -3.8170    0.7890   -3.1250 hc        1 X97      0.057200
     58 HG3        -3.7500   -0.9820   -2.7570 hc        1 X97      0.057200
     59 HD2        -2.9740    1.2980   -1.0300 h1        1 X97      0.047200
     60 HD3        -2.9800   -0.4790   -0.6200 h1        1 X97      0.047200
     61 HD          1.4980    3.0490   -5.2190 h1        1 X97      0.058950
     62 HDA         1.3510    3.6870   -3.5240 h1        1 X97      0.058950
     63 HA1         2.0520    0.2620   -2.3100 h1        1 X97      0.058950
     64 HAA         2.1430   -0.2680   -4.0550 h1        1 X97      0.058950
     65 HB          4.1040    1.3120   -2.5260 hc        1 X97      0.051450
     66 HBA         4.2070    0.7630   -4.2440 hc        1 X97      0.051450
     67 HG          3.8050    2.9430   -4.9510 hc        1 X97      0.051450
     68 HGA         3.6570    3.4820   -3.2330 hc        1 X97      0.051450
@<TRIPOS>BOND
     1    1    2 2   
     2    1    3 1   
     3    1   25 1   
     4    3    4 1   
     5    3   37 1   
     6    3   38 1   
     7    4    5 1   
     8    4   39 1   
     9    4   40 1   
    10    5    6 1   
    11    5   41 1   
    12    5   42 1   
    13    6    7 1   
    14    6   10 1   
    15    7    8 1   
    16    7   11 2   
    17    8    9 1   
    18    8   43 1   
    19    9   10 1   
    20    9   13 1   
    21    9   19 1   
    22   10   12 2   
    23   13   14 ar  
    24   13   18 ar  
    25   14   15 ar  
    26   14   44 1   
    27   15   16 ar  
    28   15   45 1   
    29   16   17 ar  
    30   16   46 1   
    31   17   18 ar  
    32   17   47 1   
    33   18   48 1   
    34   19   20 ar  
    35   19   24 ar  
    36   20   21 ar  
    37   20   49 1   
    38   21   22 ar  
    39   21   50 1   
    40   22   23 ar  
    41   22   51 1   
    42   23   24 ar  
    43   23   52 1   
    44   24   53 1   
    45   25   26 1   
    46   25   31 1   
    47   26   27 1   
    48   26   29 1   
    49   26   54 1   
    50   27   28 2   
    51   27   32 1   
    52   29   30 1   
    53   29   55 1   
    54   29   56 1   
    55   30   31 1   
    56   30   57 1   
    57   30   58 1   
    58   31   59 1   
    59   31   60 1   
    60   32   33 1   
    61   32   34 1   
    62   33   36 1   
    63   33   61 1   
    64   33   62 1   
    65   34   35 1   
    66   34   63 1   
    67   34   64 1   
    68   35   36 1   
    69   35   65 1   
    70   35   66 1   
    71   36   67 1   
    72   36   68 1   
@<TRIPOS>SUBSTRUCTURE
     1 X97         1 TEMP              0 ****  ****    0 ROOT
