@<TRIPOS>MOLECULE
X97
   68    72     1     0     0
SMALL
bcc


@<TRIPOS>ATOM
      1 C          -0.3580    0.0130   -0.3450 c         1 X97      0.669100
      2 O           0.8580   -0.2110   -0.5110 o         1 X97     -0.617100
      3 C1         -0.9890    0.0380    1.0350 c3        1 X97     -0.140400
      4 C2          0.0750    0.0540    2.1100 c3        1 X97     -0.102400
      5 C3         -0.5940    0.0340    3.4860 c3        1 X97      0.109000
      6 N4          0.3110    0.0290    4.6000 n         1 X97     -0.507400
      7 C5          0.8890    1.2140    5.1510 c         1 X97      0.785500
      8 N6          1.9620    0.8650    6.0160 n         1 X97     -0.516900
      9 C7          2.0060   -0.6080    6.1860 c3        1 X97      0.123000
     10 C8          0.9360   -1.1100    5.1420 c         1 X97      0.703500
     11 O9          0.5210    2.3700    4.8930 o         1 X97     -0.602500
     12 O10         0.6600   -2.2750    4.8490 o         1 X97     -0.578500
     13 C11         3.3480   -1.2100    5.8200 ca        1 X97     -0.104800
     14 C12         3.4490   -2.6080    5.7690 ca        1 X97     -0.106750
     15 C13         4.6640   -3.2140    5.4590 ca        1 X97     -0.132000
     16 C14         5.7900   -2.4320    5.1980 ca        1 X97     -0.116500
     17 C15         5.6930   -1.0430    5.2460 ca        1 X97     -0.132000
     18 C16         4.4770   -0.4300    5.5560 ca        1 X97     -0.106750
     19 C17         1.6460   -1.0140    7.6000 ca        1 X97     -0.104800
     20 C18         2.4330   -0.5180    8.6500 ca        1 X97     -0.106750
     21 C19         2.1340   -0.8510    9.9700 ca        1 X97     -0.132000
     22 C20         1.0510   -1.6840   10.2530 ca        1 X97     -0.116500
     23 C21         0.2740   -2.1860    9.2120 ca        1 X97     -0.132000
     24 C22         0.5670   -1.8530    7.8880 ca        1 X97     -0.106750
     25 N          -1.1740    0.2770   -1.4310 n         1 X97     -0.464800
     26 CA         -0.7060    0.1780   -2.8060 c3        1 X97      0.045700
     27 C4         -0.1290    1.5240   -3.3070 c         1 X97      0.649100
     28 O1         -0.8640    2.5270   -3.4090 o         1 X97     -0.607100
     29 CB         -1.9350   -0.1800   -3.6750 c3        1 X97     -0.082400
     30 CG         -3.1560   -0.0430   -2.7710 c3        1 X97     -0.087400
     31 CD         -2.6230    0.2780   -1.3640 c3        1 X97      0.094000
     32 N1          1.1790    1.5710   -3.7490 n         1 X97     -0.455800
     33 CD1         1.7690    2.8420   -4.1450 c3        1 X97      0.076500
     34 CA1         2.2020    0.6140   -3.3660 c3        1 X97      0.076500
     35 CB1         3.5700    1.3050   -3.5060 c3        1 X97     -0.089900
     36 CG1         3.2920    2.7280   -3.9790 c3        1 X97     -0.089900
     37 H1         -1.6500    0.9400    1.1350 hc        1 X97      0.067700
     38 H1A        -1.6330   -0.8760    1.1440 hc        1 X97      0.067700
     39 H2          0.7110    0.9710    1.9970 hc        1 X97      0.074200
     40 H2A         0.7500   -0.8350    1.9850 hc        1 X97      0.074200
     41 H3         -1.2500    0.9470    3.5890 h1        1 X97      0.068700
     42 H3A        -1.2320   -0.8930    3.5720 h1        1 X97      0.068700
     43 HN6         2.0760    1.4160    6.8360 hn        1 X97      0.321500
     44 H12         2.5560   -3.2260    5.9630 ha        1 X97      0.147500
     45 H13         4.7320   -4.3110    5.4180 ha        1 X97      0.136500
     46 H14         6.7490   -2.9110    4.9530 ha        1 X97      0.135000
     47 H15         6.5750   -0.4210    5.0360 ha        1 X97      0.136500
     48 H16         4.4310    0.6690    5.5790 ha        1 X97      0.147500
     49 H18         3.3030    0.1200    8.4320 ha        1 X97      0.147500
     50 H19         2.7570   -0.4590   10.7870 ha        1 X97      0.136500
     51 H20         0.8160   -1.9470   11.2950 ha        1 X97      0.135000
     52 H21        -0.5770   -2.8500    9.4280 ha        1 X97      0.136500
     53 H22        -0.0530   -2.2720    7.0790 ha        1 X97      0.147500
     54 HA          0.0750   -0.6340   -2.8710 h1        1 X97      0.081700
     55 HB2        -1.8330   -1.2260   -4.0550 hc        1 X97      0.063700
     56 HB3        -2.0100    0.5070   -4.5530 hc        1 X97      0.063700
     57 HG2        -3.7520   -0.9870   -2.7560 hc        1 X97      0.057200
     58 HG3        -3.8200    0.7840   -3.1240 hc        1 X97      0.057200
     59 HD2        -2.9830   -0.4840   -0.6190 h1        1 X97      0.047200
     60 HD3        -2.9760    1.2930   -1.0290 h1        1 X97      0.047200
     61 HD          1.3510    3.6810   -3.5230 h1        1 X97      0.058950
     62 HDA         1.4960    3.0420   -5.2180 h1        1 X97      0.058950
     63 HA1         2.1410   -0.2750   -4.0530 h1        1 X97      0.058950
     64 HAA         2.0500    0.2560   -2.3080 h1        1 X97      0.058950
     65 HB          4.1020    1.3050   -2.5240 hc        1 X97      0.051450
     66 HBA         4.2050    0.7550   -4.2420 hc        1 X97      0.051450
     67 HG          3.8040    2.9360   -4.9500 hc        1 X97      0.051450
     68 HGA         3.6560    3.4740   -3.2320 hc        1 X97      0.051450
@<TRIPOS>BOND
     1    1    2 2   
     2    1    3 1   
     3    1   25 1   
     4    3    4 1   
     5    3   37 1   
     6    3   38 1   
     7    4    5 1   
     8    4   39 1   
     9    4   40 1   
    10    5    6 1   
    11    5   41 1   
    12    5   42 1   
    13    6    7 1   
    14    6   10 1   
    15    7    8 1   
    16    7   11 2   
    17    8    9 1   
    18    8   43 1   
    19    9   10 1   
    20    9   13 1   
    21    9   19 1   
    22   10   12 2   
    23   13   14 ar  
    24   13   18 ar  
    25   14   15 ar  
    26   14   44 1   
    27   15   16 ar  
    28   15   45 1   
    29   16   17 ar  
    30   16   46 1   
    31   17   18 ar  
    32   17   47 1   
    33   18   48 1   
    34   19   20 ar  
    35   19   24 ar  
    36   20   21 ar  
    37   20   49 1   
    38   21   22 ar  
    39   21   50 1   
    40   22   23 ar  
    41   22   51 1   
    42   23   24 ar  
    43   23   52 1   
    44   24   53 1   
    45   25   26 1   
    46   25   31 1   
    47   26   27 1   
    48   26   29 1   
    49   26   54 1   
    50   27   28 2   
    51   27   32 1   
    52   29   30 1   
    53   29   55 1   
    54   29   56 1   
    55   30   31 1   
    56   30   57 1   
    57   30   58 1   
    58   31   59 1   
    59   31   60 1   
    60   32   33 1   
    61   32   34 1   
    62   33   36 1   
    63   33   61 1   
    64   33   62 1   
    65   34   35 1   
    66   34   63 1   
    67   34   64 1   
    68   35   36 1   
    69   35   65 1   
    70   35   66 1   
    71   36   67 1   
    72   36   68 1   
@<TRIPOS>SUBSTRUCTURE
     1 X97         1 TEMP              0 ****  ****    0 ROOT
