@<TRIPOS>MOLECULE
X98
   61    65     1     0     0
SMALL
bcc


@<TRIPOS>ATOM
      1 C          -0.5670    0.0260   -0.5480 c         1 X98      0.674100
      2 O           0.6510   -0.1880   -0.7310 o         1 X98     -0.626100
      3 C1         -1.1840    0.0050    0.8360 c3        1 X98     -0.168400
      4 C2         -0.0980   -0.2770    1.8770 c3        1 X98      0.086000
      5 N3         -0.5550   -0.1720    3.2480 n         1 X98     -0.347000
      6 C4         -0.9510   -1.3400    3.9270 c         1 X98      0.571200
      7 C5         -1.3010   -1.1850    5.3830 cc        1 X98      0.434900
      8 N6         -1.3180   -0.0300    5.9930 nd        1 X98     -0.503100
      9 C7         -0.9940    1.1230    5.2710 ca        1 X98      0.051400
     10 C8         -1.0440    2.3760    5.9280 ca        1 X98     -0.051000
     11 C9         -0.7360    3.5400    5.2490 ca        1 X98     -0.166000
     12 C10        -0.3740    3.4910    3.8970 ca        1 X98     -0.079000
     13 C11        -0.3140    2.2850    3.2200 ca        1 X98     -0.179000
     14 C12        -0.6140    1.0720    3.8890 ca        1 X98      0.063600
     15 O13        -0.9850   -2.4210    3.3140 o         1 X98     -0.611500
     16 C14        -1.6200   -2.4230    6.1180 ca        1 X98     -0.132900
     17 C15        -1.1250   -2.6090    7.4170 ca        1 X98     -0.086000
     18 C16        -1.4350   -3.7720    8.1200 ca        1 X98     -0.141000
     19 C17        -2.2410   -4.7510    7.5390 ca        1 X98     -0.112000
     20 C18        -2.7370   -4.5660    6.2490 ca        1 X98     -0.141000
     21 C19        -2.4290   -3.4080    5.5370 ca        1 X98     -0.086000
     22 N          -1.3910    0.3180   -1.6140 n         1 X98     -0.466800
     23 CA         -0.9320    0.3300   -2.9940 c3        1 X98      0.050700
     24 C3         -0.2200    1.6570   -3.3530 c         1 X98      0.646100
     25 O1         -0.8330    2.7410   -3.2860 o         1 X98     -0.607100
     26 CB         -2.1890    0.1920   -3.8860 c3        1 X98     -0.080400
     27 CG         -3.3940    0.3080   -2.9560 c3        1 X98     -0.086400
     28 CD         -2.8360    0.4040   -1.5260 c3        1 X98      0.096000
     29 N1          1.0650    1.6090   -3.8600 n         1 X98     -0.453800
     30 CD1         1.7820    2.8450   -4.1440 c3        1 X98      0.076000
     31 CA1         1.9850    0.5090   -3.6300 c3        1 X98      0.076000
     32 CB1         3.4160    1.0550   -3.7740 c3        1 X98     -0.089900
     33 CG1         3.2860    2.5440   -4.0740 c3        1 X98     -0.089900
     34 H1         -1.9690   -0.7970    0.8850 hc        1 X98      0.079200
     35 H1A        -1.6820    0.9920    1.0340 hc        1 X98      0.079200
     36 H2          0.7690    0.4270    1.7170 h1        1 X98      0.090200
     37 H2A         0.2880   -1.3260    1.7110 h1        1 X98      0.090200
     38 H8         -1.3340    2.4130    6.9920 ha        1 X98      0.154000
     39 H9         -0.7760    4.5090    5.7690 ha        1 X98      0.142000
     40 H10        -0.1360    4.4240    3.3630 ha        1 X98      0.140000
     41 H11        -0.0360    2.2840    2.1550 ha        1 X98      0.147000
     42 H15        -0.4930   -1.8390    7.8840 ha        1 X98      0.147000
     43 H16        -1.0420   -3.9150    9.1370 ha        1 X98      0.134500
     44 H17        -2.4840   -5.6670    8.0970 ha        1 X98      0.132000
     45 H18        -3.3710   -5.3370    5.7860 ha        1 X98      0.134500
     46 H19        -2.8080   -3.2760    4.5110 ha        1 X98      0.147000
     47 HA         -0.2370   -0.5450   -3.1520 h1        1 X98      0.080700
     48 HB2        -2.2090    0.9930   -4.6650 hc        1 X98      0.064700
     49 HB3        -2.1750   -0.8000   -4.4010 hc        1 X98      0.064700
     50 HG2        -3.9910    1.2220   -3.1950 hc        1 X98      0.058200
     51 HG3        -4.0630   -0.5810   -3.0540 hc        1 X98      0.058200
     52 HD2        -3.2370   -0.4300   -0.8860 h1        1 X98      0.048200
     53 HD3        -3.1260    1.3830   -1.0510 h1        1 X98      0.048200
     54 HD          1.4900    3.6470   -3.4120 h1        1 X98      0.058700
     55 HDA         1.4900    3.1960   -5.1720 h1        1 X98      0.058700
     56 HA1         1.7930   -0.2900   -4.3990 h1        1 X98      0.058700
     57 HAA         1.8360    0.0620   -2.6070 h1        1 X98      0.058700
     58 HB          3.9500    0.5250   -4.5990 hc        1 X98      0.051700
     59 HBA         3.9890    0.8840   -2.8290 hc        1 X98      0.051700
     60 HG          3.7780    2.8030   -5.0430 hc        1 X98      0.051700
     61 HGA         3.7660    3.1570   -3.2720 hc        1 X98      0.051700
@<TRIPOS>BOND
     1    1    2 2   
     2    1    3 1   
     3    1   22 1   
     4    3    4 1   
     5    3   34 1   
     6    3   35 1   
     7    4    5 1   
     8    4   36 1   
     9    4   37 1   
    10    5    6 1   
    11    5   14 1   
    12    6    7 1   
    13    6   15 2   
    14    7    8 2   
    15    7   16 1   
    16    8    9 1   
    17    9   10 ar  
    18    9   14 ar  
    19   10   11 ar  
    20   10   38 1   
    21   11   12 ar  
    22   11   39 1   
    23   12   13 ar  
    24   12   40 1   
    25   13   14 ar  
    26   13   41 1   
    27   16   17 ar  
    28   16   21 ar  
    29   17   18 ar  
    30   17   42 1   
    31   18   19 ar  
    32   18   43 1   
    33   19   20 ar  
    34   19   44 1   
    35   20   21 ar  
    36   20   45 1   
    37   21   46 1   
    38   22   23 1   
    39   22   28 1   
    40   23   24 1   
    41   23   26 1   
    42   23   47 1   
    43   24   25 2   
    44   24   29 1   
    45   26   27 1   
    46   26   48 1   
    47   26   49 1   
    48   27   28 1   
    49   27   50 1   
    50   27   51 1   
    51   28   52 1   
    52   28   53 1   
    53   29   30 1   
    54   29   31 1   
    55   30   33 1   
    56   30   54 1   
    57   30   55 1   
    58   31   32 1   
    59   31   56 1   
    60   31   57 1   
    61   32   33 1   
    62   32   58 1   
    63   32   59 1   
    64   33   60 1   
    65   33   61 1   
@<TRIPOS>SUBSTRUCTURE
     1 X98         1 TEMP              0 ****  ****    0 ROOT
