@<TRIPOS>MOLECULE
X98
   61    65     1     0     0
SMALL
bcc


@<TRIPOS>ATOM
      1 C          -0.5760    0.0240   -0.5470 c         1 X98      0.674100
      2 O           0.6390   -0.1990   -0.7360 o         1 X98     -0.626100
      3 C1         -1.1870    0.0100    0.8400 c3        1 X98     -0.168400
      4 C2         -0.0970   -0.2760    1.8760 c3        1 X98      0.086000
      5 N3         -0.5470   -0.1660    3.2490 n         1 X98     -0.347000
      6 C4         -0.9460   -1.3300    3.9320 c         1 X98      0.571200
      7 C5         -1.2890   -1.1710    5.3900 cc        1 X98      0.434900
      8 N6         -1.2960   -0.0150    5.9970 nd        1 X98     -0.503100
      9 C7         -0.9690    1.1350    5.2710 ca        1 X98      0.051400
     10 C8         -1.0080    2.3900    5.9270 ca        1 X98     -0.051000
     11 C9         -0.6960    3.5500    5.2430 ca        1 X98     -0.166000
     12 C10        -0.3410    3.4970    3.8900 ca        1 X98     -0.079000
     13 C11        -0.2910    2.2890    3.2150 ca        1 X98     -0.179000
     14 C12        -0.5960    1.0790    3.8870 ca        1 X98      0.063600
     15 O13        -0.9900   -2.4130    3.3210 o         1 X98     -0.611500
     16 C14        -1.6120   -2.4060    6.1280 ca        1 X98     -0.132900
     17 C15        -1.1120   -2.5920    7.4250 ca        1 X98     -0.086000
     18 C16        -1.4250   -3.7520    8.1320 ca        1 X98     -0.141000
     19 C17        -2.2400   -4.7270    7.5560 ca        1 X98     -0.112000
     20 C18        -2.7400   -4.5420    6.2680 ca        1 X98     -0.141000
     21 C19        -2.4290   -3.3870    5.5520 ca        1 X98     -0.086000
     22 N          -1.4040    0.3200   -1.6100 n         1 X98     -0.466800
     23 CA         -0.9510    0.3270   -2.9930 c3        1 X98      0.050700
     24 C3         -0.2290    1.6460   -3.3570 c         1 X98      0.646100
     25 O1         -0.8320    2.7360   -3.2870 o         1 X98     -0.607100
     26 CB         -2.2140    0.1980   -3.8780 c3        1 X98     -0.080400
     27 CG         -3.4130    0.3250   -2.9420 c3        1 X98     -0.086400
     28 CD         -2.8470    0.4180   -1.5150 c3        1 X98      0.096000
     29 N1          1.0520    1.5870   -3.8710 n         1 X98     -0.453800
     30 CD1         1.7790    2.8150   -4.1600 c3        1 X98      0.076000
     31 CA1         1.9640    0.4780   -3.6440 c3        1 X98      0.076000
     32 CB1         3.3990    1.0110   -3.7970 c3        1 X98     -0.089900
     33 CG1         3.2810    2.5010   -4.0980 c3        1 X98     -0.089900
     34 H1         -1.6770    1.0000    1.0370 hc        1 X98      0.079200
     35 H1A        -1.9760   -0.7860    0.8940 hc        1 X98      0.079200
     36 H2          0.2820   -1.3290    1.7100 h1        1 X98      0.090200
     37 H2A         0.7730    0.4220    1.7110 h1        1 X98      0.090200
     38 H8         -1.2930    2.4300    6.9910 ha        1 X98      0.154000
     39 H9         -0.7290    4.5200    5.7610 ha        1 X98      0.142000
     40 H10        -0.1000    4.4280    3.3530 ha        1 X98      0.140000
     41 H11        -0.0180    2.2840    2.1490 ha        1 X98      0.147000
     42 H15        -0.4730   -1.8250    7.8870 ha        1 X98      0.147000
     43 H16        -1.0280   -3.8950    9.1470 ha        1 X98      0.134500
     44 H17        -2.4860   -5.6400    8.1170 ha        1 X98      0.132000
     45 H18        -3.3810   -5.3100    5.8100 ha        1 X98      0.134500
     46 H19        -2.8120   -3.2550    4.5280 ha        1 X98      0.147000
     47 HA         -0.2650   -0.5550   -3.1520 h1        1 X98      0.080700
     48 HB2        -2.2110   -0.7930   -4.3920 hc        1 X98      0.064700
     49 HB3        -2.2310    1.0000   -4.6570 hc        1 X98      0.064700
     50 HG2        -4.0890   -0.5580   -3.0350 hc        1 X98      0.058200
     51 HG3        -4.0040    1.2440   -3.1790 hc        1 X98      0.058200
     52 HD2        -3.1260    1.4000   -1.0400 h1        1 X98      0.048200
     53 HD3        -3.2520   -0.4110   -0.8720 h1        1 X98      0.048200
     54 HD          1.4990    3.6210   -3.4260 h1        1 X98      0.058700
     55 HDA         1.4850    3.1680   -5.1860 h1        1 X98      0.058700
     56 HA1         1.8170    0.0340   -2.6190 h1        1 X98      0.058700
     57 HAA         1.7600   -0.3200   -4.4110 h1        1 X98      0.058700
     58 HB          3.9240    0.4750   -4.6250 hc        1 X98      0.051700
     59 HBA         3.9750    0.8360   -2.8560 hc        1 X98      0.051700
     60 HG          3.7700    2.7540   -5.0700 hc        1 X98      0.051700
     61 HGA         3.7710    3.1100   -3.2990 hc        1 X98      0.051700
@<TRIPOS>BOND
     1    1    2 2   
     2    1    3 1   
     3    1   22 1   
     4    3    4 1   
     5    3   34 1   
     6    3   35 1   
     7    4    5 1   
     8    4   36 1   
     9    4   37 1   
    10    5    6 1   
    11    5   14 1   
    12    6    7 1   
    13    6   15 2   
    14    7    8 2   
    15    7   16 1   
    16    8    9 1   
    17    9   10 ar  
    18    9   14 ar  
    19   10   11 ar  
    20   10   38 1   
    21   11   12 ar  
    22   11   39 1   
    23   12   13 ar  
    24   12   40 1   
    25   13   14 ar  
    26   13   41 1   
    27   16   17 ar  
    28   16   21 ar  
    29   17   18 ar  
    30   17   42 1   
    31   18   19 ar  
    32   18   43 1   
    33   19   20 ar  
    34   19   44 1   
    35   20   21 ar  
    36   20   45 1   
    37   21   46 1   
    38   22   23 1   
    39   22   28 1   
    40   23   24 1   
    41   23   26 1   
    42   23   47 1   
    43   24   25 2   
    44   24   29 1   
    45   26   27 1   
    46   26   48 1   
    47   26   49 1   
    48   27   28 1   
    49   27   50 1   
    50   27   51 1   
    51   28   52 1   
    52   28   53 1   
    53   29   30 1   
    54   29   31 1   
    55   30   33 1   
    56   30   54 1   
    57   30   55 1   
    58   31   32 1   
    59   31   56 1   
    60   31   57 1   
    61   32   33 1   
    62   32   58 1   
    63   32   59 1   
    64   33   60 1   
    65   33   61 1   
@<TRIPOS>SUBSTRUCTURE
     1 X98         1 TEMP              0 ****  ****    0 ROOT
