@<TRIPOS>MOLECULE
X98
   61    65     1     0     0
SMALL
bcc


@<TRIPOS>ATOM
      1 C          -0.5790    0.0270   -0.5500 c         1 X98      0.674100
      2 O           0.6350   -0.1980   -0.7430 o         1 X98     -0.626100
      3 C1         -1.1850    0.0120    0.8390 c3        1 X98     -0.168400
      4 C2         -0.0930   -0.2800    1.8710 c3        1 X98      0.086000
      5 N3         -0.5390   -0.1700    3.2460 n         1 X98     -0.347000
      6 C4         -0.9400   -1.3340    3.9290 c         1 X98      0.571200
      7 C5         -1.2780   -1.1750    5.3880 cc        1 X98      0.434900
      8 N6         -1.2790   -0.0200    5.9960 nd        1 X98     -0.503100
      9 C7         -0.9500    1.1300    5.2710 ca        1 X98      0.051400
     10 C8         -0.9840    2.3840    5.9280 ca        1 X98     -0.051000
     11 C9         -0.6700    3.5450    5.2450 ca        1 X98     -0.166000
     12 C10        -0.3190    3.4910    3.8910 ca        1 X98     -0.079000
     13 C11        -0.2760    2.2850    3.2150 ca        1 X98     -0.179000
     14 C12        -0.5820    1.0750    3.8860 ca        1 X98      0.063600
     15 O13        -0.9890   -2.4150    3.3170 o         1 X98     -0.611500
     16 C14        -1.6030   -2.4090    6.1250 ca        1 X98     -0.132900
     17 C15        -1.1000   -2.5990    7.4200 ca        1 X98     -0.086000
     18 C16        -1.4150   -3.7590    8.1270 ca        1 X98     -0.141000
     19 C17        -2.2340   -4.7300    7.5530 ca        1 X98     -0.112000
     20 C18        -2.7380   -4.5420    6.2660 ca        1 X98     -0.141000
     21 C19        -2.4250   -3.3870    5.5510 ca        1 X98     -0.086000
     22 N          -1.4090    0.3270   -1.6100 n         1 X98     -0.466800
     23 CA         -0.9600    0.3360   -2.9930 c3        1 X98      0.050700
     24 C3         -0.2360    1.6550   -3.3560 c         1 X98      0.646100
     25 O1         -0.8360    2.7460   -3.2820 o         1 X98     -0.607100
     26 CB         -2.2260    0.2130   -3.8750 c3        1 X98     -0.080400
     27 CG         -3.4210    0.3400   -2.9360 c3        1 X98     -0.086400
     28 CD         -2.8520    0.4280   -1.5100 c3        1 X98      0.096000
     29 N1          1.0440    1.5940   -3.8740 n         1 X98     -0.453800
     30 CD1         1.7730    2.8220   -4.1620 c3        1 X98      0.076000
     31 CA1         1.9540    0.4830   -3.6530 c3        1 X98      0.076000
     32 CB1         3.3890    1.0130   -3.8080 c3        1 X98     -0.089900
     33 CG1         3.2740    2.5040   -4.1050 c3        1 X98     -0.089900
     34 H1         -1.6720    1.0030    1.0400 hc        1 X98      0.079200
     35 H1A        -1.9770   -0.7820    0.8940 hc        1 X98      0.079200
     36 H2          0.2810   -1.3330    1.7030 h1        1 X98      0.090200
     37 H2A         0.7780    0.4150    1.7040 h1        1 X98      0.090200
     38 H8         -1.2650    2.4250    6.9940 ha        1 X98      0.154000
     39 H9         -0.6980    4.5140    5.7650 ha        1 X98      0.142000
     40 H10        -0.0760    4.4220    3.3540 ha        1 X98      0.140000
     41 H11        -0.0050    2.2800    2.1470 ha        1 X98      0.147000
     42 H15        -0.4570   -1.8350    7.8820 ha        1 X98      0.147000
     43 H16        -1.0150   -3.9050    9.1410 ha        1 X98      0.134500
     44 H17        -2.4820   -5.6430    8.1140 ha        1 X98      0.132000
     45 H18        -3.3830   -5.3070    5.8100 ha        1 X98      0.134500
     46 H19        -2.8110   -3.2520    4.5280 ha        1 X98      0.147000
     47 HA         -0.2770   -0.5460   -3.1570 h1        1 X98      0.080700
     48 HB2        -2.2430    1.0160   -4.6520 hc        1 X98      0.064700
     49 HB3        -2.2260   -0.7770   -4.3920 hc        1 X98      0.064700
     50 HG2        -4.1010   -0.5420   -3.0290 hc        1 X98      0.058200
     51 HG3        -4.0120    1.2600   -3.1680 hc        1 X98      0.058200
     52 HD2        -3.2560   -0.4020   -0.8680 h1        1 X98      0.048200
     53 HD3        -3.1270    1.4090   -1.0320 h1        1 X98      0.048200
     54 HD          1.4960    3.6260   -3.4250 h1        1 X98      0.058700
     55 HDA         1.4760    3.1780   -5.1860 h1        1 X98      0.058700
     56 HA1         1.8080    0.0370   -2.6280 h1        1 X98      0.058700
     57 HAA         1.7450   -0.3130   -4.4210 h1        1 X98      0.058700
     58 HB          3.9100    0.4780   -4.6390 hc        1 X98      0.051700
     59 HBA         3.9680    0.8340   -2.8690 hc        1 X98      0.051700
     60 HG          3.7670    3.1090   -3.3060 hc        1 X98      0.051700
     61 HGA         3.7610    2.7590   -5.0780 hc        1 X98      0.051700
@<TRIPOS>BOND
     1    1    2 2   
     2    1    3 1   
     3    1   22 1   
     4    3    4 1   
     5    3   34 1   
     6    3   35 1   
     7    4    5 1   
     8    4   36 1   
     9    4   37 1   
    10    5    6 1   
    11    5   14 1   
    12    6    7 1   
    13    6   15 2   
    14    7    8 2   
    15    7   16 1   
    16    8    9 1   
    17    9   10 ar  
    18    9   14 ar  
    19   10   11 ar  
    20   10   38 1   
    21   11   12 ar  
    22   11   39 1   
    23   12   13 ar  
    24   12   40 1   
    25   13   14 ar  
    26   13   41 1   
    27   16   17 ar  
    28   16   21 ar  
    29   17   18 ar  
    30   17   42 1   
    31   18   19 ar  
    32   18   43 1   
    33   19   20 ar  
    34   19   44 1   
    35   20   21 ar  
    36   20   45 1   
    37   21   46 1   
    38   22   23 1   
    39   22   28 1   
    40   23   24 1   
    41   23   26 1   
    42   23   47 1   
    43   24   25 2   
    44   24   29 1   
    45   26   27 1   
    46   26   48 1   
    47   26   49 1   
    48   27   28 1   
    49   27   50 1   
    50   27   51 1   
    51   28   52 1   
    52   28   53 1   
    53   29   30 1   
    54   29   31 1   
    55   30   33 1   
    56   30   54 1   
    57   30   55 1   
    58   31   32 1   
    59   31   56 1   
    60   31   57 1   
    61   32   33 1   
    62   32   58 1   
    63   32   59 1   
    64   33   60 1   
    65   33   61 1   
@<TRIPOS>SUBSTRUCTURE
     1 X98         1 TEMP              0 ****  ****    0 ROOT
