@<TRIPOS>MOLECULE
X98
   61    65     1     0     0
SMALL
bcc


@<TRIPOS>ATOM
      1 C          -2.0010    0.6880   -0.4500 c         1 X98      0.674100
      2 O          -2.4330    0.8110    0.7160 o         1 X98     -0.626100
      3 C1         -0.5530    0.3460   -0.7360 c3        1 X98     -0.168400
      4 C2          0.2010    0.1670    0.5840 c3        1 X98      0.086000
      5 N3          1.5610   -0.3070    0.4260 n         1 X98     -0.347000
      6 C4          2.6130    0.6280    0.4110 c         1 X98      0.571200
      7 C5          4.0100    0.0680    0.3630 cc        1 X98      0.434900
      8 N6          4.2620   -1.2100    0.2660 nd        1 X98     -0.503100
      9 C7          3.1930   -2.1100    0.2050 ca        1 X98      0.051400
     10 C8          3.4710   -3.4920    0.0680 ca        1 X98     -0.051000
     11 C9          2.4420   -4.4130    0.0000 ca        1 X98     -0.166000
     12 C10         1.1100   -3.9860    0.0620 ca        1 X98     -0.079000
     13 C11         0.7990   -2.6440    0.1950 ca        1 X98     -0.179000
     14 C12         1.8280   -1.6740    0.2780 ca        1 X98      0.063600
     15 O13         2.3510    1.8430    0.4450 o         1 X98     -0.611500
     16 C14         5.1130    1.0430    0.4470 ca        1 X98     -0.132900
     17 C15         6.2350    0.7590    1.2380 ca        1 X98     -0.086000
     18 C16         7.2860    1.6720    1.3100 ca        1 X98     -0.141000
     19 C17         7.2290    2.8660    0.5920 ca        1 X98     -0.112000
     20 C18         6.1150    3.1490   -0.1980 ca        1 X98     -0.141000
     21 C19         5.0580    2.2440   -0.2730 ca        1 X98     -0.086000
     22 N          -2.8510    0.8360   -1.5270 n         1 X98     -0.466800
     23 CA         -4.2520    1.2010   -1.3900 c3        1 X98      0.050700
     24 C3         -5.1330   -0.0180   -1.0290 c         1 X98      0.646100
     25 O1         -5.2050   -0.9970   -1.8000 o         1 X98     -0.607100
     26 CB         -4.7090    1.7460   -2.7650 c3        1 X98     -0.080400
     27 CG         -3.5630    1.4810   -3.7370 c3        1 X98     -0.086400
     28 CD         -2.4130    0.8860   -2.9080 c3        1 X98      0.096000
     29 N1         -5.9280    0.0420    0.1000 n         1 X98     -0.453800
     30 CD1        -6.7160   -1.1150    0.5000 c3        1 X98      0.076000
     31 CA1        -5.6570    0.9100    1.2340 c3        1 X98      0.076000
     32 CB1        -6.3160    0.2820    2.4740 c3        1 X98     -0.089900
     33 CG1        -6.9660   -1.0180    2.0120 c3        1 X98     -0.089900
     34 H1         -0.5090   -0.5910   -1.3530 hc        1 X98      0.079200
     35 H1A        -0.0820    1.1750   -1.3290 hc        1 X98      0.079200
     36 H2          0.2330    1.1670    1.1120 h1        1 X98      0.090200
     37 H2A        -0.3670   -0.5430    1.2490 h1        1 X98      0.090200
     38 H8          4.5210   -3.8250    0.0150 ha        1 X98      0.154000
     39 H9          2.6680   -5.4840   -0.1050 ha        1 X98      0.142000
     40 H10         0.2980   -4.7280    0.0010 ha        1 X98      0.140000
     41 H11        -0.2590   -2.3420    0.2310 ha        1 X98      0.147000
     42 H15         6.2900   -0.1840    1.8030 ha        1 X98      0.147000
     43 H16         8.1630    1.4460    1.9340 ha        1 X98      0.134500
     44 H17         8.0600    3.5840    0.6500 ha        1 X98      0.132000
     45 H18         6.0650    4.0910   -0.7640 ha        1 X98      0.134500
     46 H19         4.1720    2.4810   -0.8830 ha        1 X98      0.147000
     47 HA         -4.3410    2.0000   -0.5990 h1        1 X98      0.080700
     48 HB2        -5.6420    1.2320   -3.1010 hc        1 X98      0.064700
     49 HB3        -4.9190    2.8400   -2.6820 hc        1 X98      0.064700
     50 HG2        -3.8750    0.7580   -4.5300 hc        1 X98      0.058200
     51 HG3        -3.2350    2.4250   -4.2360 hc        1 X98      0.058200
     52 HD2        -1.4870    1.5200   -2.9990 h1        1 X98      0.048200
     53 HD3        -2.1640   -0.1530   -3.2610 h1        1 X98      0.048200
     54 HD         -7.6860   -1.0980   -0.0700 h1        1 X98      0.058700
     55 HDA        -6.1800   -2.0680    0.2340 h1        1 X98      0.058700
     56 HA1        -4.5490    1.0300    1.3970 h1        1 X98      0.058700
     57 HAA        -6.0990    1.9230    1.0270 h1        1 X98      0.058700
     58 HB         -5.5470    0.0880    3.2610 hc        1 X98      0.051700
     59 HBA        -7.0770    0.9800    2.9020 hc        1 X98      0.051700
     60 HG         -8.0630   -1.0160    2.2240 hc        1 X98      0.051700
     61 HGA        -6.5170   -1.8970    2.5350 hc        1 X98      0.051700
@<TRIPOS>BOND
     1    1    2 2   
     2    1    3 1   
     3    1   22 1   
     4    3    4 1   
     5    3   34 1   
     6    3   35 1   
     7    4    5 1   
     8    4   36 1   
     9    4   37 1   
    10    5    6 1   
    11    5   14 1   
    12    6    7 1   
    13    6   15 2   
    14    7    8 2   
    15    7   16 1   
    16    8    9 1   
    17    9   10 ar  
    18    9   14 ar  
    19   10   11 ar  
    20   10   38 1   
    21   11   12 ar  
    22   11   39 1   
    23   12   13 ar  
    24   12   40 1   
    25   13   14 ar  
    26   13   41 1   
    27   16   17 ar  
    28   16   21 ar  
    29   17   18 ar  
    30   17   42 1   
    31   18   19 ar  
    32   18   43 1   
    33   19   20 ar  
    34   19   44 1   
    35   20   21 ar  
    36   20   45 1   
    37   21   46 1   
    38   22   23 1   
    39   22   28 1   
    40   23   24 1   
    41   23   26 1   
    42   23   47 1   
    43   24   25 2   
    44   24   29 1   
    45   26   27 1   
    46   26   48 1   
    47   26   49 1   
    48   27   28 1   
    49   27   50 1   
    50   27   51 1   
    51   28   52 1   
    52   28   53 1   
    53   29   30 1   
    54   29   31 1   
    55   30   33 1   
    56   30   54 1   
    57   30   55 1   
    58   31   32 1   
    59   31   56 1   
    60   31   57 1   
    61   32   33 1   
    62   32   58 1   
    63   32   59 1   
    64   33   60 1   
    65   33   61 1   
@<TRIPOS>SUBSTRUCTURE
     1 X98         1 TEMP              0 ****  ****    0 ROOT
