@<TRIPOS>MOLECULE
X99
   50    53     1     0     0
SMALL
bcc


@<TRIPOS>ATOM
      1 C          -0.4850   -0.0710   -0.5750 c         1 X99      0.678100
      2 O           0.7170   -0.3270   -0.7860 o         1 X99     -0.611100
      3 C1         -1.0660   -0.0250    0.8220 c3        1 X99     -0.172400
      4 C2          0.0720   -0.0830    1.8480 c3        1 X99      0.112000
      5 N3         -0.3750   -0.0740    3.2110 n         1 X99     -0.529400
      6 C4         -1.0560   -1.1520    3.8420 c         1 X99      0.723100
      7 C5         -0.1850    1.0100    4.1160 c         1 X99      0.723100
      8 O6         -1.3720   -2.2060    3.2860 o         1 X99     -0.568000
      9 O7          0.3670    2.0740    3.8330 o         1 X99     -0.568000
     10 C8         -1.3010   -0.7330    5.2590 ca        1 X99     -0.140100
     11 C9         -1.9090   -1.3930    6.3050 ca        1 X99     -0.061500
     12 C10        -1.9910   -0.7240    7.5420 ca        1 X99     -0.116500
     13 C11        -1.4770    0.5560    7.7030 ca        1 X99     -0.116500
     14 C12        -0.8550    1.2330    6.6350 ca        1 X99     -0.061500
     15 C13        -0.7740    0.5800    5.4250 ca        1 X99     -0.140100
     16 N          -1.3260    0.2240   -1.6400 n         1 X99     -0.463800
     17 CD         -2.7640    0.2520   -1.5320 c3        1 X99      0.047000
     18 CA         -0.8890    0.0970   -3.0240 c3        1 X99      0.044700
     19 CB         -2.1180   -0.2990   -3.8700 c3        1 X99     -0.131400
     20 CG         -3.3340   -0.2910   -2.8990 c3        1 X99      0.400600
     21 C3         -0.3380    1.4410   -3.5630 c         1 X99      0.648100
     22 O1         -1.0930    2.4290   -3.6660 o         1 X99     -0.602100
     23 F1         -3.9100   -1.5360   -2.7560 f         1 X99     -0.230300
     24 F2         -4.3910    0.4630   -3.3530 f         1 X99     -0.230300
     25 N1          0.9600    1.4960   -4.0240 n         1 X99     -0.454800
     26 CD1         1.5280    2.7660   -4.4580 c3        1 X99      0.077000
     27 CA1         2.0000    0.5500   -3.6620 c3        1 X99      0.077000
     28 CB1         3.3570    1.2460   -3.8580 c3        1 X99     -0.090400
     29 CG1         3.0560    2.6610   -4.3400 c3        1 X99     -0.090400
     30 H1         -1.6700    0.9100    0.9560 hc        1 X99      0.083200
     31 H1A        -1.7450   -0.9100    0.9630 hc        1 X99      0.083200
     32 H2          0.6620   -1.0280    1.6670 h1        1 X99      0.085200
     33 H2A         0.7560    0.8010    1.6930 h1        1 X99      0.085200
     34 H9         -2.3160   -2.4070    6.1830 ha        1 X99      0.160000
     35 H10        -2.4720   -1.2330    8.3920 ha        1 X99      0.145000
     36 H11        -1.5530    1.0590    8.6800 ha        1 X99      0.145000
     37 H12        -0.4490    2.2470    6.7680 ha        1 X99      0.160000
     38 HD         -3.1340   -0.3880   -0.6870 h1        1 X99      0.082200
     39 HDA        -3.1190    1.3100   -1.3910 h1        1 X99      0.082200
     40 HA         -0.1000   -0.7080   -3.0860 h1        1 X99      0.092700
     41 HB         -2.2970    0.4360   -4.6930 hc        1 X99      0.094700
     42 HBA        -1.9830   -1.3170   -4.3060 hc        1 X99      0.094700
     43 HD1         1.1250    3.6100   -3.8330 h1        1 X99      0.059700
     44 HDA1        1.2180    2.9490   -5.5230 h1        1 X99      0.059700
     45 HA1         1.9210   -0.3500   -4.3330 h1        1 X99      0.059700
     46 HAA         1.8850    0.2070   -2.5950 h1        1 X99      0.059700
     47 HB1         3.9710    0.6900   -4.6080 hc        1 X99      0.052950
     48 HBA1        3.9230    1.2630   -2.8950 hc        1 X99      0.052950
     49 HG          3.5340    2.8580   -5.3300 hc        1 X99      0.052950
     50 HGA         3.4400    3.4200   -3.6160 hc        1 X99      0.052950
@<TRIPOS>BOND
     1    1    2 2   
     2    1    3 1   
     3    1   16 1   
     4    3    4 1   
     5    3   30 1   
     6    3   31 1   
     7    4    5 1   
     8    4   32 1   
     9    4   33 1   
    10    5    6 1   
    11    5    7 1   
    12    6    8 2   
    13    6   10 1   
    14    7    9 2   
    15    7   15 1   
    16   10   11 ar  
    17   10   15 ar  
    18   11   12 ar  
    19   11   34 1   
    20   12   13 ar  
    21   12   35 1   
    22   13   14 ar  
    23   13   36 1   
    24   14   15 ar  
    25   14   37 1   
    26   16   17 1   
    27   16   18 1   
    28   17   20 1   
    29   17   38 1   
    30   17   39 1   
    31   18   19 1   
    32   18   21 1   
    33   18   40 1   
    34   19   20 1   
    35   19   41 1   
    36   19   42 1   
    37   20   23 1   
    38   20   24 1   
    39   21   22 2   
    40   21   25 1   
    41   25   26 1   
    42   25   27 1   
    43   26   29 1   
    44   26   43 1   
    45   26   44 1   
    46   27   28 1   
    47   27   45 1   
    48   27   46 1   
    49   28   29 1   
    50   28   47 1   
    51   28   48 1   
    52   29   49 1   
    53   29   50 1   
@<TRIPOS>SUBSTRUCTURE
     1 X99         1 TEMP              0 ****  ****    0 ROOT
