@<TRIPOS>MOLECULE
X99
   50    53     1     0     0
SMALL
bcc


@<TRIPOS>ATOM
      1 C          -0.4800   -0.0730   -0.5730 c         1 X99      0.678100
      2 O           0.7240   -0.3190   -0.7880 o         1 X99     -0.611100
      3 C1         -1.0560   -0.0270    0.8260 c3        1 X99     -0.172400
      4 C2          0.0860   -0.0720    1.8480 c3        1 X99      0.112000
      5 N3         -0.3560   -0.0600    3.2120 n         1 X99     -0.529400
      6 C4         -1.0310   -1.1380    3.8500 c         1 X99      0.723100
      7 C5         -0.1680    1.0280    4.1130 c         1 X99      0.723100
      8 O6         -1.3430   -2.1960    3.2990 o         1 X99     -0.568000
      9 O7          0.3790    2.0940    3.8240 o         1 X99     -0.568000
     10 C8         -1.2720   -0.7160    5.2660 ca        1 X99     -0.140100
     11 C9         -1.8730   -1.3740    6.3170 ca        1 X99     -0.061500
     12 C10        -1.9530   -0.7020    7.5520 ca        1 X99     -0.116500
     13 C11        -1.4440    0.5820    7.7070 ca        1 X99     -0.116500
     14 C12        -0.8290    1.2570    6.6340 ca        1 X99     -0.061500
     15 C13        -0.7500    0.6010    5.4250 ca        1 X99     -0.140100
     16 N          -1.3270    0.2100   -1.6360 n         1 X99     -0.463800
     17 CD         -2.7650    0.2240   -1.5240 c3        1 X99      0.047000
     18 CA         -0.8940    0.0810   -3.0220 c3        1 X99      0.044700
     19 CB         -2.1220   -0.3320   -3.8610 c3        1 X99     -0.132400
     20 CG         -3.3350   -0.3310   -2.8850 c3        1 X99      0.399600
     21 C3         -0.3590    1.4270   -3.5680 c         1 X99      0.648100
     22 O1         -1.1240    2.4070   -3.6740 o         1 X99     -0.602100
     23 F1         -3.8980   -1.5800   -2.7350 f         1 X99     -0.230300
     24 F2         -4.4000    0.4100   -3.3390 f         1 X99     -0.230300
     25 N1          0.9370    1.4940   -4.0330 n         1 X99     -0.454800
     26 CD1         1.4910    2.7670   -4.4760 c3        1 X99      0.077000
     27 CA1         1.9880    0.5600   -3.6700 c3        1 X99      0.077000
     28 CB1         3.3380    1.2690   -3.8740 c3        1 X99     -0.090400
     29 CG1         3.0200    2.6790   -4.3630 c3        1 X99     -0.090400
     30 H1         -1.7280   -0.9170    0.9720 hc        1 X99      0.083200
     31 H1A        -1.6670    0.9040    0.9580 hc        1 X99      0.083200
     32 H2          0.7620    0.8160    1.6870 h1        1 X99      0.084700
     33 H2A         0.6830   -1.0140    1.6690 h1        1 X99      0.084700
     34 H9         -2.2760   -2.3910    6.1990 ha        1 X99      0.160000
     35 H10        -2.4290   -1.2100    8.4050 ha        1 X99      0.145000
     36 H11        -1.5180    1.0870    8.6820 ha        1 X99      0.145000
     37 H12        -0.4270    2.2730    6.7610 ha        1 X99      0.160000
     38 HD         -3.1300    1.2800   -1.3870 h1        1 X99      0.082200
     39 HDA        -3.1260   -0.4140   -0.6740 h1        1 X99      0.082200
     40 HA         -0.0970   -0.7170   -3.0820 h1        1 X99      0.092700
     41 HB         -2.3110    0.3980   -4.6870 hc        1 X99      0.094700
     42 HBA        -1.9780   -1.3510   -4.2920 hc        1 X99      0.094700
     43 HD1         1.1750    2.9420   -5.5400 h1        1 X99      0.059700
     44 HDA1        1.0810    3.6100   -3.8530 h1        1 X99      0.059700
     45 HA1         1.9170   -0.3440   -4.3380 h1        1 X99      0.059700
     46 HAA         1.8800    0.2210   -2.6010 h1        1 X99      0.059700
     47 HB1         3.9060    1.2960   -2.9130 hc        1 X99      0.052950
     48 HBA1        3.9550    0.7150   -4.6230 hc        1 X99      0.052950
     49 HG          3.4930    2.8760   -5.3550 hc        1 X99      0.052950
     50 HGA         3.4000    3.4450   -3.6430 hc        1 X99      0.052950
@<TRIPOS>BOND
     1    1    2 2   
     2    1    3 1   
     3    1   16 1   
     4    3    4 1   
     5    3   30 1   
     6    3   31 1   
     7    4    5 1   
     8    4   32 1   
     9    4   33 1   
    10    5    6 1   
    11    5    7 1   
    12    6    8 2   
    13    6   10 1   
    14    7    9 2   
    15    7   15 1   
    16   10   11 ar  
    17   10   15 ar  
    18   11   12 ar  
    19   11   34 1   
    20   12   13 ar  
    21   12   35 1   
    22   13   14 ar  
    23   13   36 1   
    24   14   15 ar  
    25   14   37 1   
    26   16   17 1   
    27   16   18 1   
    28   17   20 1   
    29   17   38 1   
    30   17   39 1   
    31   18   19 1   
    32   18   21 1   
    33   18   40 1   
    34   19   20 1   
    35   19   41 1   
    36   19   42 1   
    37   20   23 1   
    38   20   24 1   
    39   21   22 2   
    40   21   25 1   
    41   25   26 1   
    42   25   27 1   
    43   26   29 1   
    44   26   43 1   
    45   26   44 1   
    46   27   28 1   
    47   27   45 1   
    48   27   46 1   
    49   28   29 1   
    50   28   47 1   
    51   28   48 1   
    52   29   49 1   
    53   29   50 1   
@<TRIPOS>SUBSTRUCTURE
     1 X99         1 TEMP              0 ****  ****    0 ROOT
