@<TRIPOS>MOLECULE
X99
   50    53     1     0     0
SMALL
bcc


@<TRIPOS>ATOM
      1 C          -0.4880   -0.0740   -0.5730 c         1 X99      0.678100
      2 O           0.7130   -0.3340   -0.7860 o         1 X99     -0.611100
      3 C1         -1.0660   -0.0210    0.8260 c3        1 X99     -0.172400
      4 C2          0.0740   -0.0780    1.8490 c3        1 X99      0.112000
      5 N3         -0.3690   -0.0620    3.2130 n         1 X99     -0.529400
      6 C4         -1.0540   -1.1340    3.8490 c         1 X99      0.723100
      7 C5         -0.1720    1.0240    4.1130 c         1 X99      0.723100
      8 O6         -1.3760   -2.1890    3.2980 o         1 X99     -0.568000
      9 O7          0.3850    2.0850    3.8250 o         1 X99     -0.568000
     10 C8         -1.2940   -0.7090    5.2660 ca        1 X99     -0.140100
     11 C9         -1.9020   -1.3620    6.3150 ca        1 X99     -0.061500
     12 C10        -1.9780   -0.6890    7.5510 ca        1 X99     -0.116500
     13 C11        -1.4580    0.5900    7.7060 ca        1 X99     -0.116500
     14 C12        -0.8350    1.2590    6.6330 ca        1 X99     -0.061500
     15 C13        -0.7600    0.6020    5.4250 ca        1 X99     -0.140100
     16 N          -1.3300    0.2200   -1.6370 n         1 X99     -0.463800
     17 CD         -2.7680    0.2520   -1.5260 c3        1 X99      0.047000
     18 CA         -0.8970    0.0860   -3.0220 c3        1 X99      0.044700
     19 CB         -2.1280   -0.3100   -3.8630 c3        1 X99     -0.131400
     20 CG         -3.3420   -0.2960   -2.8890 c3        1 X99      0.399600
     21 C3         -0.3440    1.4260   -3.5670 c         1 X99      0.648100
     22 O1         -1.0970    2.4150   -3.6730 o         1 X99     -0.602100
     23 F1         -3.9210   -1.5380   -2.7400 f         1 X99     -0.230300
     24 F2         -4.3980    0.4580   -3.3440 f         1 X99     -0.230300
     25 N1          0.9540    1.4770   -4.0310 n         1 X99     -0.454800
     26 CD1         1.5240    2.7430   -4.4720 c3        1 X99      0.077000
     27 CA1         1.9920    0.5300   -3.6660 c3        1 X99      0.077000
     28 CB1         3.3510    1.2230   -3.8690 c3        1 X99     -0.090400
     29 CG1         3.0510    2.6360   -4.3560 c3        1 X99     -0.090400
     30 H1         -1.7470   -0.9030    0.9710 hc        1 X99      0.083200
     31 H1A        -1.6670    0.9160    0.9570 hc        1 X99      0.083200
     32 H2          0.6610   -1.0260    1.6710 h1        1 X99      0.084700
     33 H2A         0.7610    0.8030    1.6890 h1        1 X99      0.084700
     34 H9         -2.3150   -2.3750    6.1970 ha        1 X99      0.160000
     35 H10        -2.4600   -1.1920    8.4030 ha        1 X99      0.145000
     36 H11        -1.5290    1.0970    8.6810 ha        1 X99      0.145000
     37 H12        -0.4240    2.2720    6.7610 ha        1 X99      0.160000
     38 HD         -3.1200    1.3120   -1.3900 h1        1 X99      0.082200
     39 HDA        -3.1380   -0.3830   -0.6770 h1        1 X99      0.082200
     40 HA         -0.1090   -0.7210   -3.0810 h1        1 X99      0.092700
     41 HB         -1.9970   -1.3310   -4.2950 hc        1 X99      0.094700
     42 HBA        -2.3070    0.4220   -4.6890 hc        1 X99      0.094700
     43 HD1         1.1230    3.5910   -3.8490 h1        1 X99      0.059700
     44 HDA1        1.2110    2.9230   -5.5370 h1        1 X99      0.059700
     45 HA1         1.8790    0.1920   -2.5980 h1        1 X99      0.059700
     46 HAA         1.9100   -0.3720   -4.3340 h1        1 X99      0.059700
     47 HB1         3.9180    1.2420   -2.9060 hc        1 X99      0.052950
     48 HBA1        3.9620    0.6620   -4.6170 hc        1 X99      0.052950
     49 HG          3.5280    2.8280   -5.3480 hc        1 X99      0.052950
     50 HGA         3.4390    3.3980   -3.6360 hc        1 X99      0.052950
@<TRIPOS>BOND
     1    1    2 2   
     2    1    3 1   
     3    1   16 1   
     4    3    4 1   
     5    3   30 1   
     6    3   31 1   
     7    4    5 1   
     8    4   32 1   
     9    4   33 1   
    10    5    6 1   
    11    5    7 1   
    12    6    8 2   
    13    6   10 1   
    14    7    9 2   
    15    7   15 1   
    16   10   11 ar  
    17   10   15 ar  
    18   11   12 ar  
    19   11   34 1   
    20   12   13 ar  
    21   12   35 1   
    22   13   14 ar  
    23   13   36 1   
    24   14   15 ar  
    25   14   37 1   
    26   16   17 1   
    27   16   18 1   
    28   17   20 1   
    29   17   38 1   
    30   17   39 1   
    31   18   19 1   
    32   18   21 1   
    33   18   40 1   
    34   19   20 1   
    35   19   41 1   
    36   19   42 1   
    37   20   23 1   
    38   20   24 1   
    39   21   22 2   
    40   21   25 1   
    41   25   26 1   
    42   25   27 1   
    43   26   29 1   
    44   26   43 1   
    45   26   44 1   
    46   27   28 1   
    47   27   45 1   
    48   27   46 1   
    49   28   29 1   
    50   28   47 1   
    51   28   48 1   
    52   29   49 1   
    53   29   50 1   
@<TRIPOS>SUBSTRUCTURE
     1 X99         1 TEMP              0 ****  ****    0 ROOT
