@<TRIPOS>MOLECULE
X99
   50    53     1     0     0
SMALL
bcc


@<TRIPOS>ATOM
      1 C           0.9740    0.3580   -0.3270 c         1 X99      0.678100
      2 O           1.4190   -0.3780   -1.2300 o         1 X99     -0.611100
      3 C1         -0.5050    0.4470   -0.0140 c3        1 X99     -0.172400
      4 C2         -1.2530   -0.6510   -0.7790 c3        1 X99      0.112000
      5 N3         -2.6720   -0.6380   -0.5720 n         1 X99     -0.529400
      6 C4         -3.5490    0.3680   -1.0670 c         1 X99      0.723100
      7 C5         -3.3930   -1.6350    0.1440 c         1 X99      0.723100
      8 O6         -3.1910    1.3620   -1.7030 o         1 X99     -0.568000
      9 O7         -2.8840   -2.6170    0.6880 o         1 X99     -0.568000
     10 C8         -4.9330   -0.0280   -0.6530 ca        1 X99     -0.140100
     11 C9         -6.1500    0.5770   -0.8750 ca        1 X99     -0.061500
     12 C10        -7.2980   -0.0480   -0.3470 ca        1 X99     -0.116500
     13 C11        -7.2050   -1.2330    0.3720 ca        1 X99     -0.116500
     14 C12        -5.9610   -1.8530    0.6000 ca        1 X99     -0.061500
     15 C13        -4.8380   -1.2430    0.0850 ca        1 X99     -0.140100
     16 N           1.8500    1.0980    0.4560 n         1 X99     -0.463800
     17 CD          1.4300    2.1750    1.3180 c3        1 X99      0.047000
     18 CA          3.2760    1.1650    0.1620 c3        1 X99      0.044700
     19 CB          3.7810    2.5550    0.6020 c3        1 X99     -0.132400
     20 CG          2.5710    3.2630    1.2770 c3        1 X99      0.399600
     21 C3          4.0620    0.0880    0.9490 c         1 X99      0.648100
     22 O1          4.0990    0.1290    2.1950 o         1 X99     -0.602100
     23 F1          2.1730    4.3980    0.6030 f         1 X99     -0.230300
     24 F2          2.8560    3.7590    2.5270 f         1 X99     -0.230300
     25 N1          4.8020   -0.8450    0.2540 n         1 X99     -0.454800
     26 CD1         5.4830   -1.9170    0.9670 c3        1 X99      0.077000
     27 CA1         4.5820   -1.1940   -1.1390 c3        1 X99      0.077000
     28 CB1         5.1470   -2.6070   -1.3630 c3        1 X99     -0.090400
     29 CG1         5.6970   -3.0750   -0.0200 c3        1 X99     -0.090400
     30 H1         -0.6700    0.3410    1.0900 hc        1 X99      0.083200
     31 H1A        -0.8840    1.4550   -0.3350 hc        1 X99      0.083200
     32 H2         -1.0460   -0.5170   -1.8810 h1        1 X99      0.084700
     33 H2A        -0.8580   -1.6590   -0.4620 h1        1 X99      0.084700
     34 H9         -6.2290    1.5140   -1.4450 ha        1 X99      0.160000
     35 H10        -8.2820    0.4180   -0.5130 ha        1 X99      0.145000
     36 H11        -8.1160   -1.7030    0.7750 ha        1 X99      0.145000
     37 H12        -5.8930   -2.7920    1.1690 ha        1 X99      0.160000
     38 HD          0.4610    2.6300    0.9800 h1        1 X99      0.082200
     39 HDA         1.3270    1.8040    2.3750 h1        1 X99      0.082200
     40 HA          3.4260    1.0310   -0.9500 h1        1 X99      0.092700
     41 HB          4.6170    2.4670    1.3390 hc        1 X99      0.094700
     42 HBA         4.1260    3.1450   -0.2800 hc        1 X99      0.094700
     43 HD1         6.4660   -1.5250    1.3470 h1        1 X99      0.059700
     44 HDA1        4.8760   -2.2430    1.8570 h1        1 X99      0.059700
     45 HA1         3.4860   -1.1630   -1.3980 h1        1 X99      0.059700
     46 HAA         5.1210   -0.4500   -1.7880 h1        1 X99      0.059700
     47 HB1         4.3400   -3.2890   -1.7260 hc        1 X99      0.052950
     48 HBA1        5.9500   -2.5820   -2.1380 hc        1 X99      0.052950
     49 HG          6.7830   -3.3230   -0.0950 hc        1 X99      0.052950
     50 HGA         5.1600   -3.9890    0.3350 hc        1 X99      0.052950
@<TRIPOS>BOND
     1    1    2 2   
     2    1    3 1   
     3    1   16 1   
     4    3    4 1   
     5    3   30 1   
     6    3   31 1   
     7    4    5 1   
     8    4   32 1   
     9    4   33 1   
    10    5    6 1   
    11    5    7 1   
    12    6    8 2   
    13    6   10 1   
    14    7    9 2   
    15    7   15 1   
    16   10   11 ar  
    17   10   15 ar  
    18   11   12 ar  
    19   11   34 1   
    20   12   13 ar  
    21   12   35 1   
    22   13   14 ar  
    23   13   36 1   
    24   14   15 ar  
    25   14   37 1   
    26   16   17 1   
    27   16   18 1   
    28   17   20 1   
    29   17   38 1   
    30   17   39 1   
    31   18   19 1   
    32   18   21 1   
    33   18   40 1   
    34   19   20 1   
    35   19   41 1   
    36   19   42 1   
    37   20   23 1   
    38   20   24 1   
    39   21   22 2   
    40   21   25 1   
    41   25   26 1   
    42   25   27 1   
    43   26   29 1   
    44   26   43 1   
    45   26   44 1   
    46   27   28 1   
    47   27   45 1   
    48   27   46 1   
    49   28   29 1   
    50   28   47 1   
    51   28   48 1   
    52   29   49 1   
    53   29   50 1   
@<TRIPOS>SUBSTRUCTURE
     1 X99         1 TEMP              0 ****  ****    0 ROOT
