@<TRIPOS>MOLECULE
X9F
   43    41     1     0     0
SMALL
bcc


@<TRIPOS>ATOM
      1 C7          0.9690    3.3210   -1.0370 c1        1 X9F      0.353600
      2 N2         -0.3190    0.9490    0.8860 n2        1 X9F     -0.789100
      3 C8         -0.0680    1.3580    2.0710 ce        1 X9F      0.532100
      4 C9         -0.7840    1.1230    3.2700 cg        1 X9F     -0.237200
      5 C10        -1.3650    0.9500    4.3090 c1        1 X9F      0.039800
      6 N3         -1.9740    0.7710    5.4870 nu        1 X9F     -0.528600
      7 C11        -3.1420    0.0360    5.6400 c2        1 X9F      0.250800
      8 C12        -3.6910   -0.7010    4.4230 c3        1 X9F     -0.048000
      9 C13        -5.1670   -0.9130    4.5850 c2        1 X9F     -0.178300
     10 C14        -5.5790   -1.1310    5.8200 c1        1 X9F     -0.213800
     11 C15        -4.8670   -1.0260    6.9880 ce        1 X9F      0.235900
     12 N4         -5.0980   -1.7080    8.1360 nv        1 X9F     -0.830600
     13 N5         -2.9750    1.2300    8.9720 n1        1 X9F     -0.377800
     14 C16        -3.3180    0.6520    8.0200 cg        1 X9F      0.196500
     15 C17        -3.7550   -0.0530    6.8810 ce        1 X9F     -0.152700
     16 N6          0.9680    3.7920    0.0310 n1        1 X9F     -0.356800
     17 C1         -0.5910    0.4600   -7.9490 c3        1 X9F     -0.355300
     18 O1          1.7440   -0.4170   -8.3210 o         1 X9F     -0.671800
     19 O2          1.4940    1.7620   -7.3650 o         1 X9F     -0.671800
     20 C2          0.8830   -0.2620   -5.9810 ce        1 X9F     -0.576200
     21 C3          3.1100   -2.7880  -10.1100 c1        1 X9F     -0.174000
     22 C4          3.5250   -3.7240  -10.7300 c1        1 X9F     -0.174000
     23 C5          0.8590    0.8580   -3.6760 c1        1 X9F     -0.291900
     24 C6          0.8670    1.4190   -2.4720 c2        1 X9F      0.226900
     25 N1          0.9680    2.7810   -2.2820 nu        1 X9F     -0.558600
     26 C18         0.8690    0.3170   -4.8040 c1        1 X9F      0.273100
     27 H1          1.0620    3.4050   -3.0570 hn        1 X9F      0.479800
     28 H8         -1.1310    0.3820    0.7620 hn        1 X9F      0.387400
     29 H9          0.8370    1.9960    2.2110 h4        1 X9F      0.044800
     30 H3         -1.6000    1.2640    6.2740 hn        1 X9F      0.472800
     31 H12        -3.1260   -1.6670    4.3210 hc        1 X9F      0.081700
     32 H13        -3.5140   -0.0970    3.4930 hc        1 X9F      0.081700
     33 H14        -5.8080   -0.8060    3.7060 ha        1 X9F      0.149000
     34 H4         -5.8280   -2.3760    8.1600 hn        1 X9F      0.442800
     35 H16        -4.6630   -1.4300    8.9790 hn        1 X9F      0.442800
     36 H11C       -1.1170   -0.5100   -7.7750 h1        1 X9F      0.111367
     37 H12C       -1.1870    1.2460   -7.4260 h1        1 X9F      0.111367
     38 H13C       -0.6790    0.6710   -9.0440 h1        1 X9F      0.111367
     39 HA          2.7400   -1.9540   -9.5560 ha        1 X9F      0.173500
     40 H18         0.8220   -1.3710   -5.9810 h4        1 X9F      0.201000
     41 HB          0.7870    0.8030   -1.5480 h4        1 X9F      0.197000
     42 H5          3.8930   -4.5510  -11.2800 ha        1 X9F      0.173500
     43 S1          1.0340    0.4400   -7.4630 sy        1 X9F      1.417900
@<TRIPOS>BOND
     1    1   16 3   
     2    1   25 1   
     3    2    3 2   
     4    2   28 1   
     5    3    4 1   
     6    3   29 1   
     7    4    5 3   
     8    5    6 1   
     9    6    7 1   
    10    6   30 1   
    11    7    8 1   
    12    7   15 2   
    13    8    9 1   
    14    8   31 1   
    15    8   32 1   
    16    9   10 2   
    17    9   33 1   
    18   10   11 2   
    19   11   12 1   
    20   11   15 1   
    21   12   34 1   
    22   12   35 1   
    23   13   14 3   
    24   14   15 1   
    25   17   36 1   
    26   17   37 1   
    27   17   38 1   
    28   17   43 1   
    29   18   43 2   
    30   19   43 2   
    31   20   26 2   
    32   20   40 1   
    33   20   43 1   
    34   21   22 3   
    35   21   39 1   
    36   22   42 1   
    37   23   24 2   
    38   23   26 2   
    39   24   25 1   
    40   24   41 1   
    41   25   27 1   
@<TRIPOS>SUBSTRUCTURE
     1 X9F         1 TEMP              0 ****  ****    0 ROOT
