@<TRIPOS>MOLECULE
X9F
   43    46     1     0     0
SMALL
bcc


@<TRIPOS>ATOM
      1 C7          0.0030   -1.4120    0.5820 ca        1 X9F      0.890900
      2 N2         -0.3550   -2.6910    0.1870 nb        1 X9F     -0.760000
      3 C8          0.6550   -3.4830   -0.2120 ca        1 X9F      0.483200
      4 C9          1.9950   -3.0880   -0.2460 ca        1 X9F     -0.456600
      5 C10         2.2860   -1.7490    0.1760 ca        1 X9F      0.713200
      6 N3          3.6270   -1.3460    0.2020 nh        1 X9F     -0.723300
      7 C11         4.0590   -0.0300    0.4500 ca        1 X9F      0.203600
      8 C12         3.6220    0.7320    1.5430 ca        1 X9F     -0.154000
      9 C13         4.1350    2.0180    1.7890 ca        1 X9F     -0.083000
     10 C14         5.1020    2.6050    0.9900 ca        1 X9F     -0.159000
     11 C15         5.5640    1.8550   -0.1000 ca        1 X9F     -0.027200
     12 N4          6.5010    2.1230   -1.1110 na        1 X9F     -0.024100
     13 N5          6.6310    1.0920   -1.9540 nc        1 X9F     -0.504100
     14 C16         5.7760    0.1210   -1.5740 cd        1 X9F      0.336800
     15 C17         5.0490    0.5370   -0.3830 ca        1 X9F     -0.254900
     16 N6          1.2910   -0.9000    0.5700 nb        1 X9F     -0.791000
     17 C1         -5.8640    2.2640    0.5120 c3        1 X9F     -0.357300
     18 O1         -6.3740    0.9230   -1.5630 o         1 X9F     -0.657300
     19 O2         -4.3900    2.2710   -1.5360 o         1 X9F     -0.657300
     20 C2         -4.4480    0.1960   -0.0910 ca        1 X9F     -0.371500
     21 C3         -5.1030   -0.9860    0.2730 ca        1 X9F     -0.031000
     22 C4         -4.4060   -2.0180    0.8930 ca        1 X9F     -0.147000
     23 C5         -3.0450   -1.8960    1.1600 ca        1 X9F     -0.041000
     24 C6         -2.3560   -0.7240    0.7800 ca        1 X9F      0.106600
     25 N1         -0.9880   -0.5410    1.0990 nh        1 X9F     -0.702300
     26 C18        -3.0760    0.3120    0.1520 ca        1 X9F     -0.059000
     27 H1         -0.7070    0.4210    1.1300 hn        1 X9F      0.437800
     28 H8          0.3580   -4.5010   -0.5280 h4        1 X9F      0.029100
     29 H9          2.7800   -3.7760   -0.5740 ha        1 X9F      0.155000
     30 H3          4.2180   -1.8690   -0.4110 hn        1 X9F      0.436800
     31 H12         2.8640    0.3340    2.2340 ha        1 X9F      0.157000
     32 H13         3.7480    2.5720    2.6590 ha        1 X9F      0.137000
     33 H14         5.4880    3.6110    1.1980 ha        1 X9F      0.141000
     34 H4          7.1140    2.9000   -1.1640 hn        1 X9F      0.326700
     35 H16         5.6800   -0.8160   -2.1220 h4        1 X9F      0.048800
     36 H11C       -6.4890    1.6230    1.1810 h1        1 X9F      0.113367
     37 H12C       -5.0500    2.6900    1.1460 h1        1 X9F      0.113367
     38 H13C       -6.5110    3.1270    0.2110 h1        1 X9F      0.113367
     39 HA         -6.1790   -1.0990    0.0500 ha        1 X9F      0.155000
     40 H18        -2.5620    1.2370   -0.1700 ha        1 X9F      0.157000
     41 HB         -4.9330   -2.9420    1.1770 ha        1 X9F      0.145000
     42 H5         -2.5150   -2.7200    1.6630 ha        1 X9F      0.163000
     43 S1         -5.2840    1.4370   -0.8480 sy        1 X9F      1.396300
@<TRIPOS>BOND
     1    1    2 ar  
     2    1   16 ar  
     3    1   25 1   
     4    2    3 ar  
     5    3    4 ar  
     6    3   28 1   
     7    4    5 ar  
     8    4   29 1   
     9    5    6 1   
    10    5   16 ar  
    11    6    7 1   
    12    6   30 1   
    13    7    8 ar  
    14    7   15 ar  
    15    8    9 ar  
    16    8   31 1   
    17    9   10 ar  
    18    9   32 1   
    19   10   11 ar  
    20   10   33 1   
    21   11   12 1   
    22   11   15 ar  
    23   12   13 1   
    24   12   34 1   
    25   13   14 2   
    26   14   15 1   
    27   14   35 1   
    28   17   36 1   
    29   17   37 1   
    30   17   38 1   
    31   17   43 1   
    32   18   43 2   
    33   19   43 2   
    34   20   21 ar  
    35   20   26 ar  
    36   20   43 1   
    37   21   22 ar  
    38   21   39 1   
    39   22   23 ar  
    40   22   41 1   
    41   23   24 ar  
    42   23   42 1   
    43   24   25 1   
    44   24   26 ar  
    45   25   27 1   
    46   26   40 1   
@<TRIPOS>SUBSTRUCTURE
     1 X9F         1 TEMP              0 ****  ****    0 ROOT
