@<TRIPOS>MOLECULE
X9F
   45    45     1     0     0
SMALL
bcc


@<TRIPOS>ATOM
      1 C7         -1.0470    0.3710    0.0960 c2        1 X9F      0.170000
      2 N2          2.1440   -1.0200    0.1390 n1        1 X9F      0.044000
      3 C8          1.5730   -0.7190    1.1080 c1        1 X9F     -0.134000
      4 C9          0.9250   -0.3610    2.3130 c2        1 X9F     -0.076000
      5 C10        -0.2270    0.3690    2.3250 c2        1 X9F      0.045000
      6 N3         -0.7880    0.7560    3.6660 n4        1 X9F      0.041000
      7 C11        -1.8960   -0.1170    4.0750 c2        1 X9F     -0.108000
      8 C12        -1.5110   -1.2680    4.9980 c3        1 X9F     -0.123000
      9 C13        -2.5410   -2.3550    4.8590 c2        1 X9F     -0.073000
     10 C14        -3.7620   -1.9090    4.6470 c1        1 X9F     -0.254000
     11 C15        -4.2490   -0.6820    4.3250 c2        1 X9F      0.162000
     12 N4         -5.5110   -0.2180    4.4780 n3        1 X9F     -0.317000
     13 N5         -3.8250    2.0140    2.0160 n1        1 X9F      0.059000
     14 C16        -3.5270    1.1880    2.7810 c1        1 X9F     -0.156000
     15 C17        -3.1790    0.1420    3.6710 c2        1 X9F      0.066000
     16 N6         -0.9430    0.9430    1.2770 n2        1 X9F     -0.302000
     17 C1         -0.6930    1.8220   -6.8540 c3        1 X9F     -0.942000
     18 O1          1.0450    0.0560   -6.3090 os        1 X9F     -0.546000
     19 O2          1.1820    2.2530   -5.1070 o         1 X9F     -0.827000
     20 C2         -0.7310    0.7140   -4.4970 c2        1 X9F     -1.043000
     21 C3          2.2750   -0.3400   -5.8050 c2        1 X9F     -0.091000
     22 C4          2.4500   -1.6280   -5.4810 c2        1 X9F     -0.120000
     23 C5         -2.5460   -0.5290   -2.6740 c1        1 X9F      0.488000
     24 C6         -1.7170    0.4620   -2.2330 c2        1 X9F     -0.342000
     25 N1         -1.7840    0.9590   -0.9090 n3        1 X9F     -0.251000
     26 C18        -0.7970    1.0630   -3.1890 c2        1 X9F      0.171000
     27 H1         -0.1270    1.8610   -2.7940 ha        1 X9F      0.184000
     28 H8         -0.6030   -0.6200   -0.1740 h5        1 X9F      0.166000
     29 H9          1.4400   -0.7020    3.2330 ha        1 X9F      0.194000
     30 H3         -1.1150    1.7360    3.6190 hn        1 X9F      0.273000
     31 H12        -1.4280   -0.8770    6.0490 hc        1 X9F      0.132500
     32 H13        -0.5160   -1.6950    4.7000 hc        1 X9F      0.132500
     33 H14        -2.2190   -3.4020    4.8770 ha        1 X9F      0.185000
     34 H4         -6.1490   -0.7530    5.0230 hn        1 X9F      0.256500
     35 H16        -5.7350    0.7230    4.2650 hn        1 X9F      0.256500
     36 H11C       -1.7900    1.9320   -6.6330 h1        1 X9F      0.225667
     37 H12C       -0.6550    1.1250   -7.7470 h1        1 X9F      0.225667
     38 H13C       -0.3770    2.8250   -7.2730 h1        1 X9F      0.225667
     39 HA          3.0450    0.4490   -5.8290 h4        1 X9F      0.189000
     40 H18        -1.4150   -0.0880   -4.8560 h4        1 X9F      0.216000
     41 HB          1.6450   -2.3760   -5.5130 ha        1 X9F      0.164000
     42 H5          3.4510   -2.0010   -5.2100 ha        1 X9F      0.164000
     43 H32        -0.0370    0.6900    4.3680 hn        1 X9F      0.273000
     44 H121       -2.1920    1.8670   -0.7910 hn        1 X9F      0.280000
     45 S1          0.2580    1.3410   -5.6000 s6        1 X9F      2.717000
@<TRIPOS>BOND
     1    1   16 1   
     2    1   25 1   
     3    1   28 1   
     4    2    3 1   
     5    3    4 1   
     6    4    5 1   
     7    4   29 1   
     8    5    6 1   
     9    5   16 1   
    10    6    7 1   
    11    6   30 1   
    12    6   43 1   
    13    7    8 1   
    14    7   15 1   
    15    8    9 1   
    16    8   31 1   
    17    8   32 1   
    18    9   10 1   
    19    9   33 1   
    20   10   11 1   
    21   11   12 1   
    22   11   15 1   
    23   12   34 1   
    24   12   35 1   
    25   13   14 1   
    26   14   15 1   
    27   17   36 1   
    28   17   37 1   
    29   17   38 1   
    30   17   45 1   
    31   18   21 1   
    32   18   45 1   
    33   19   45 1   
    34   20   26 1   
    35   20   40 1   
    36   20   45 1   
    37   21   22 1   
    38   21   39 1   
    39   22   41 1   
    40   22   42 1   
    41   23   24 1   
    42   24   25 1   
    43   24   26 1   
    44   25   44 1   
    45   26   27 1   
@<TRIPOS>SUBSTRUCTURE
     1 X9F         1 TEMP              0 ****  ****    0 ROOT
