@<TRIPOS>MOLECULE
X9F
   43    41     1     0     0
SMALL
bcc


@<TRIPOS>ATOM
      1 C7         -3.1910    1.6630   -2.0770 c1        1 X9F      0.353600
      2 N2         -2.0590   -0.2790    0.1960 n2        1 X9F     -0.788100
      3 C8         -1.1400   -0.2800    1.0840 ce        1 X9F      0.528100
      4 C9         -1.2550   -0.2320    2.4940 cg        1 X9F     -0.239200
      5 C10        -1.3170   -0.1880    3.6950 c1        1 X9F      0.042800
      6 N3         -1.3430   -0.1570    5.0320 nh        1 X9F     -0.529600
      7 C11        -2.5110   -0.0160    5.7700 c2        1 X9F      0.249800
      8 C12        -3.8390   -0.0010    5.0190 c3        1 X9F     -0.049000
      9 C13        -4.8680    0.7270    5.8310 c2        1 X9F     -0.175300
     10 C14        -4.7680    0.5810    7.1390 c1        1 X9F     -0.213800
     11 C15        -3.7590   -0.0040    7.8590 ce        1 X9F      0.233900
     12 N4         -3.8730   -0.5990    9.0720 nh        1 X9F     -0.831600
     13 N5         -0.2720    0.1530    8.5120 n1        1 X9F     -0.378800
     14 C16        -1.2550    0.1080    7.8880 cg        1 X9F      0.197500
     15 C17        -2.4580    0.0630    7.1540 ce        1 X9F     -0.151700
     16 N6         -3.8850    1.8430   -1.1560 n1        1 X9F     -0.358800
     17 C1          0.2260   -0.0450   -8.6970 c3        1 X9F     -0.355300
     18 O1          2.5360    0.5310   -7.8660 o         1 X9F     -0.672300
     19 O2          0.7330    1.9950   -7.2950 o         1 X9F     -0.672300
     20 C2          0.8440   -0.2900   -6.2220 ce        1 X9F     -0.576200
     21 C3          5.6040   -0.3280   -8.6050 c1        1 X9F     -0.174000
     22 C4          6.6900   -0.7500   -8.8760 c1        1 X9F     -0.174000
     23 C5         -0.7830    0.1260   -4.2870 c1        1 X9F     -0.290900
     24 C6         -1.6050    0.3340   -3.2640 c2        1 X9F      0.226900
     25 N1         -2.3970    1.4580   -3.1580 nh        1 X9F     -0.558600
     26 C18         0.0070   -0.0730   -5.2360 c1        1 X9F      0.272100
     27 H1         -2.3380    2.1940   -3.8320 hn        1 X9F      0.478800
     28 H8         -3.0050   -0.2390    0.5140 hn        1 X9F      0.400400
     29 H9         -0.0840   -0.3240    0.7260 h4        1 X9F      0.031800
     30 H3         -0.4620   -0.1610    5.5070 hn        1 X9F      0.472800
     31 H12        -4.1290   -1.0650    4.8090 hc        1 X9F      0.083200
     32 H13        -3.7190    0.5250    4.0340 hc        1 X9F      0.083200
     33 H14        -5.5780    1.3770    5.3100 ha        1 X9F      0.151000
     34 H4         -4.7640   -0.6490    9.5000 hn        1 X9F      0.442300
     35 H16        -3.0660   -0.8070    9.6040 hn        1 X9F      0.442300
     36 H11C        0.3180   -1.1570   -8.7210 h1        1 X9F      0.111700
     37 H12C       -0.8600    0.1850   -8.5750 h1        1 X9F      0.111700
     38 H13C        0.5130    0.3140   -9.7180 h1        1 X9F      0.111700
     39 HA          4.6340    0.0480   -8.3630 ha        1 X9F      0.173500
     40 H18         1.4250   -1.2360   -6.1720 h4        1 X9F      0.201000
     41 HB         -1.6990   -0.4090   -2.4400 h4        1 X9F      0.198000
     42 H5          7.6520   -1.1210   -9.1160 ha        1 X9F      0.173500
     43 S1          1.1870    0.6840   -7.5050 sy        1 X9F      1.417900
@<TRIPOS>BOND
     1    1   16 3   
     2    1   25 1   
     3    2    3 2   
     4    2   28 1   
     5    3    4 1   
     6    3   29 1   
     7    4    5 3   
     8    5    6 1   
     9    6    7 1   
    10    6   30 1   
    11    7    8 1   
    12    7   15 2   
    13    8    9 1   
    14    8   31 1   
    15    8   32 1   
    16    9   10 2   
    17    9   33 1   
    18   10   11 2   
    19   11   12 1   
    20   11   15 1   
    21   12   34 1   
    22   12   35 1   
    23   13   14 3   
    24   14   15 1   
    25   17   36 1   
    26   17   37 1   
    27   17   38 1   
    28   17   43 1   
    29   18   43 2   
    30   19   43 2   
    31   20   26 2   
    32   20   40 1   
    33   20   43 1   
    34   21   22 3   
    35   21   39 1   
    36   22   42 1   
    37   23   24 2   
    38   23   26 2   
    39   24   25 1   
    40   24   41 1   
    41   25   27 1   
@<TRIPOS>SUBSTRUCTURE
     1 X9F         1 TEMP              0 ****  ****    0 ROOT
