@<TRIPOS>MOLECULE
X9I
   36    37     1     0     0
SMALL
bcc


@<TRIPOS>ATOM
      1 C1          0.8280   -0.8640    0.3550 ca        1 X9I     -0.260200
      2 N1          0.5320   -1.7240   -0.8090 no        1 X9I      0.326200
      3 O1          0.0100   -2.7920   -0.6290 o         1 X9I     -0.218000
      4 C2          1.4130    0.3940    0.1660 ca        1 X9I      0.010000
      5 N2          3.3310    2.6140    0.0710 n         1 X9I     -0.662000
      6 O2          0.8240   -1.3360   -1.9100 o         1 X9I     -0.218000
      7 C3          1.6960    1.2150    1.2540 ca        1 X9I     -0.246600
      8 N3          1.5590    1.6210    3.6550 nh        1 X9I     -0.759600
      9 O3          2.0260    3.5690    1.6540 o         1 X9I     -0.636100
     10 C4          1.3510    0.7990    2.5800 ca        1 X9I      0.294600
     11 C5          0.7900   -0.5040    2.7400 ca        1 X9I     -0.238000
     12 C6          0.5280   -1.3150    1.6560 ca        1 X9I      0.002000
     13 C7          2.3400    2.5380    1.0150 c         1 X9I      0.682700
     14 C8          1.1930    1.2860    5.0030 c3        1 X9I      0.256100
     15 C9          2.1530    0.3740    5.7180 ca        1 X9I     -0.088300
     16 C10         3.5060    0.7120    5.8260 ca        1 X9I     -0.124000
     17 C11         4.3810   -0.1160    6.5260 ca        1 X9I     -0.084000
     18 C12         3.9090   -1.2930    7.1180 ca        1 X9I     -0.166600
     19 C13         2.5540   -1.6280    7.0190 ca        1 X9I     -0.084000
     20 C14         1.6810   -0.7980    6.3190 ca        1 X9I     -0.124000
     21 C15         4.8570   -2.1430    7.8640 c         1 X9I      0.638700
     22 O16         4.6870   -3.4990    7.8830 oh        1 X9I     -0.575100
     23 O17         5.8410   -1.7640    8.5000 o         1 X9I     -0.479000
     24 H2          1.6320    0.7330   -0.8640 ha        1 X9I      0.168000
     25 H1N2        3.6040    1.8250   -0.4560 hn        1 X9I      0.319000
     26 H2N2        3.9510   -3.7520    7.3090 ho        1 X9I      0.427000
     27 HN3         1.9110    2.5420    3.4910 hn        1 X9I      0.474800
     28 H5          0.5650   -0.8800    3.7500 ha        1 X9I      0.150000
     29 H6          0.0830   -2.3150    1.8020 ha        1 X9I      0.170000
     30 H18         0.1610    0.8250    5.0130 h1        1 X9I      0.068200
     31 H28         1.1380    2.2530    5.5870 h1        1 X9I      0.068200
     32 H10         3.8820    1.6360    5.3610 ha        1 X9I      0.143500
     33 H11         5.4460    0.1520    6.6280 ha        1 X9I      0.151000
     34 H13         2.1680   -2.5370    7.5050 ha        1 X9I      0.151000
     35 H14         0.6160   -1.0660    6.2470 ha        1 X9I      0.143500
     36 H23         3.7460    3.4910   -0.1260 hn        1 X9I      0.319000
@<TRIPOS>BOND
     1    1    2 1   
     2    1    4 ar  
     3    1   12 ar  
     4    2    3 1   
     5    2    6 1   
     6    4    7 ar  
     7    4   24 1   
     8    5   13 1   
     9    5   25 1   
    10    5   36 1   
    11    7   10 ar  
    12    7   13 1   
    13    8   10 1   
    14    8   14 1   
    15    8   27 1   
    16    9   13 2   
    17   10   11 ar  
    18   11   12 ar  
    19   11   28 1   
    20   12   29 1   
    21   14   15 1   
    22   14   30 1   
    23   14   31 1   
    24   15   16 ar  
    25   15   20 ar  
    26   16   17 ar  
    27   16   32 1   
    28   17   18 ar  
    29   17   33 1   
    30   18   19 ar  
    31   18   21 1   
    32   19   20 ar  
    33   19   34 1   
    34   20   35 1   
    35   21   22 1   
    36   21   23 2   
    37   22   26 1   
@<TRIPOS>SUBSTRUCTURE
     1 X9I         1 TEMP              0 ****  ****    0 ROOT
