@<TRIPOS>MOLECULE
X9I
   36    37     1     0     0
SMALL
bcc


@<TRIPOS>ATOM
      1 C1          0.6270   -1.1010    0.5070 ca        1 X9I     -0.259200
      2 N1          0.2460   -2.0390   -0.5690 no        1 X9I      0.326200
      3 O1         -0.3070   -3.0670   -0.2800 o         1 X9I     -0.217500
      4 C2          1.2450    0.1150    0.1880 ca        1 X9I      0.009000
      5 N2          3.2270    2.2490   -0.1780 nt        1 X9I     -0.663000
      6 O2          0.5030   -1.7540   -1.7100 o         1 X9I     -0.217500
      7 C3          1.6090    1.0090    1.1910 ca        1 X9I     -0.246600
      8 N3          1.6140    1.6050    3.5570 nu        1 X9I     -0.759600
      9 O3          2.0370    3.3730    1.3840 o         1 X9I     -0.637100
     10 C4          1.3160    0.7140    2.5620 ca        1 X9I      0.292600
     11 C5          0.7150   -0.5480    2.8520 ca        1 X9I     -0.237000
     12 C6          0.3730   -1.4330    1.8520 ca        1 X9I      0.003000
     13 C7          2.2820    2.2840    0.8150 c         1 X9I      0.682700
     14 C8          1.2680    1.4060    4.9360 c3        1 X9I      0.255100
     15 C9          2.1900    0.4960    5.7020 ca        1 X9I     -0.086300
     16 C10         3.5680    0.7340    5.7240 ca        1 X9I     -0.124000
     17 C11         4.4110   -0.0900    6.4660 ca        1 X9I     -0.084500
     18 C12         3.8790   -1.1580    7.1970 ca        1 X9I     -0.167600
     19 C13         2.4980   -1.3890    7.1890 ca        1 X9I     -0.084500
     20 C14         1.6590   -0.5700    6.4360 ca        1 X9I     -0.124000
     21 C15         4.7410   -2.0380    8.0080 c         1 X9I      0.638700
     22 O16         4.4410   -2.5900    9.0680 o         1 X9I     -0.479000
     23 O17         6.0140   -2.3160    7.5930 oh        1 X9I     -0.575100
     24 H2          1.4250    0.3600   -0.8750 ha        1 X9I      0.168000
     25 H1N2        3.6540    3.0930   -0.4690 hn        1 X9I      0.319000
     26 H2N2        3.4390    1.4130   -0.6590 hn        1 X9I      0.319000
     27 HN3         1.9740    2.5020    3.3000 hn        1 X9I      0.473800
     28 H5          0.5240   -0.8320    3.9000 ha        1 X9I      0.152000
     29 H6         -0.1000   -2.4000    2.1000 ha        1 X9I      0.171000
     30 H18         1.2910    2.4190    5.4390 h1        1 X9I      0.068700
     31 H28         0.2100    1.0150    5.0110 h1        1 X9I      0.068700
     32 H10         3.9900    1.5770    5.1550 ha        1 X9I      0.144000
     33 H11         5.4920    0.1170    6.4890 ha        1 X9I      0.151000
     34 H13         2.0850   -2.2190    7.7860 ha        1 X9I      0.151000
     35 H14         0.5750   -0.7620    6.4300 ha        1 X9I      0.144000
     36 H23         6.1760   -1.9240    6.7240 ho        1 X9I      0.427000
@<TRIPOS>BOND
     1    1    2 1   
     2    1    4 ar  
     3    1   12 ar  
     4    2    3 1   
     5    2    6 1   
     6    4    7 ar  
     7    4   24 1   
     8    5   13 1   
     9    5   25 1   
    10    5   26 1   
    11    7   10 ar  
    12    7   13 1   
    13    8   10 1   
    14    8   14 1   
    15    8   27 1   
    16    9   13 2   
    17   10   11 ar  
    18   11   12 ar  
    19   11   28 1   
    20   12   29 1   
    21   14   15 1   
    22   14   30 1   
    23   14   31 1   
    24   15   16 ar  
    25   15   20 ar  
    26   16   17 ar  
    27   16   32 1   
    28   17   18 ar  
    29   17   33 1   
    30   18   19 ar  
    31   18   21 1   
    32   19   20 ar  
    33   19   34 1   
    34   20   35 1   
    35   21   22 2   
    36   21   23 1   
    37   23   36 1   
@<TRIPOS>SUBSTRUCTURE
     1 X9I         1 TEMP              0 ****  ****    0 ROOT
