@<TRIPOS>MOLECULE
X9I
   35    36     1     0     0
SMALL
bcc


@<TRIPOS>ATOM
      1 C1         -0.0250   -0.1450   -0.0620 ca        1 X9I     -0.289200
      2 N1         -0.7240   -0.2810   -1.3480 no        1 X9I      0.329200
      3 O1         -1.9010   -0.5390   -1.3590 o         1 X9I     -0.238000
      4 C2          1.3390    0.1820   -0.0320 ca        1 X9I      0.020000
      5 N2          4.2760    0.0360    0.2810 n         1 X9I     -0.670000
      6 O2         -0.1070   -0.1350   -2.3740 o         1 X9I     -0.238000
      7 C3          2.0090    0.3060    1.1760 ca        1 X9I     -0.267600
      8 N3          1.9640    0.2170    3.6100 nh        1 X9I     -0.724600
      9 O3          3.9250    1.5430    1.9390 o         1 X9I     -0.617100
     10 C4          1.3190    0.1150    2.4230 ca        1 X9I      0.299600
     11 C5         -0.0760   -0.2160    2.3520 ca        1 X9I     -0.249000
     12 C6         -0.7270   -0.3410    1.1480 ca        1 X9I      0.004000
     13 C7          3.4500    0.6760    1.1750 c         1 X9I      0.679700
     14 C8          1.3230   -0.0310    4.8840 c3        1 X9I      0.266100
     15 C9          2.3000   -0.0910    6.0150 ca        1 X9I     -0.165300
     16 C10         3.0220    1.0480    6.3860 ca        1 X9I     -0.139500
     17 C11         3.9050    0.9930    7.4630 ca        1 X9I     -0.110500
     18 C12         4.0760   -0.1960    8.1800 ca        1 X9I     -0.105600
     19 C13         3.3540   -1.3330    7.8010 ca        1 X9I     -0.110500
     20 C14         2.4740   -1.2850    6.7230 ca        1 X9I     -0.139500
     21 C15         5.0370   -0.2550    9.3620 c         1 X9I      0.906200
     22 O16         5.1620   -1.3590    9.9610 o         1 X9I     -0.823300
     23 O17         5.6500    0.8040    9.6730 o         1 X9I     -0.823300
     24 H2          1.8730    0.3530   -0.9850 ha        1 X9I      0.162000
     25 H1N2        5.2460    0.2310    0.2950 hn        1 X9I      0.313000
     26 H2N2        3.9460   -0.7190   -0.2630 hn        1 X9I      0.313000
     27 HN3         2.9100    0.5460    3.6330 hn        1 X9I      0.476800
     28 H5         -0.6450   -0.3610    3.2830 ha        1 X9I      0.151000
     29 H6         -1.8020   -0.5920    1.1210 ha        1 X9I      0.161000
     30 H18         0.7530   -1.0040    4.8200 h1        1 X9I      0.044700
     31 H28         0.5750    0.7950    5.0780 h1        1 X9I      0.044700
     32 H10         2.8890    1.9860    5.8290 ha        1 X9I      0.111000
     33 H11         4.4840    1.8770    7.7740 ha        1 X9I      0.158000
     34 H13         3.5040   -2.2610    8.3770 ha        1 X9I      0.158000
     35 H14         1.9130   -2.1840    6.4300 ha        1 X9I      0.111000
@<TRIPOS>BOND
     1    1    2 1   
     2    1    4 ar  
     3    1   12 ar  
     4    2    3 1   
     5    2    6 1   
     6    4    7 ar  
     7    4   24 1   
     8    5   13 1   
     9    5   25 1   
    10    5   26 1   
    11    7   10 ar  
    12    7   13 1   
    13    8   10 1   
    14    8   14 1   
    15    8   27 1   
    16    9   13 2   
    17   10   11 ar  
    18   11   12 ar  
    19   11   28 1   
    20   12   29 1   
    21   14   15 1   
    22   14   30 1   
    23   14   31 1   
    24   15   16 ar  
    25   15   20 ar  
    26   16   17 ar  
    27   16   32 1   
    28   17   18 ar  
    29   17   33 1   
    30   18   19 ar  
    31   18   21 1   
    32   19   20 ar  
    33   19   34 1   
    34   20   35 1   
    35   21   22 1   
    36   21   23 1   
@<TRIPOS>SUBSTRUCTURE
     1 X9I         1 TEMP              0 ****  ****    0 ROOT
