@<TRIPOS>MOLECULE
X9I
   35    36     1     0     0
SMALL
bcc


@<TRIPOS>ATOM
      1 C1         -4.3660    0.4890    0.1370 ca        1 X9I     -0.289200
      2 N1         -5.8260    0.5820    0.2790 no        1 X9I      0.329200
      3 O1         -6.3280    1.6430    0.5570 o         1 X9I     -0.238000
      4 C2         -3.7690   -0.7310   -0.2130 ca        1 X9I      0.020000
      5 N2         -2.2550   -3.2690   -0.1130 n         1 X9I     -0.670000
      6 O2         -6.5000   -0.4050    0.1210 o         1 X9I     -0.238000
      7 C3         -2.3920   -0.8310   -0.3440 ca        1 X9I     -0.267600
      8 N3         -0.2000    0.2270   -0.2470 nh        1 X9I     -0.724600
      9 O3         -0.9010   -2.2320   -1.6100 o         1 X9I     -0.617100
     10 C4         -1.5480    0.3140   -0.1380 ca        1 X9I      0.299600
     11 C5         -2.1960    1.5450    0.2150 ca        1 X9I     -0.249000
     12 C6         -3.5610    1.6300    0.3470 ca        1 X9I      0.004000
     13 C7         -1.7910   -2.1350   -0.7370 c         1 X9I      0.679700
     14 C8          0.6890    1.3390    0.0150 c3        1 X9I      0.266100
     15 C9          2.1260    0.9250    0.0630 ca        1 X9I     -0.165300
     16 C10         2.7610    0.4430   -1.0870 ca        1 X9I     -0.139500
     17 C11         4.1080    0.0920   -1.0430 ca        1 X9I     -0.110500
     18 C12         4.8360    0.2180    0.1450 ca        1 X9I     -0.105600
     19 C13         4.1940    0.6960    1.2920 ca        1 X9I     -0.110500
     20 C14         2.8460    1.0440    1.2560 ca        1 X9I     -0.139500
     21 C15         6.3120   -0.1600    0.1910 c         1 X9I      0.906200
     22 O16         6.9130   -0.0400    1.2950 o         1 X9I     -0.823300
     23 O17         6.8470   -0.5690   -0.8760 o         1 X9I     -0.823300
     24 H2         -4.4110   -1.6130   -0.3960 ha        1 X9I      0.162000
     25 H1N2       -1.8350   -4.1400   -0.3240 hn        1 X9I      0.313000
     26 H2N2       -2.8830   -3.2100    0.6450 hn        1 X9I      0.313000
     27 HN3         0.2150   -0.6170   -0.5910 hn        1 X9I      0.476800
     28 H5         -1.5880    2.4500    0.3720 ha        1 X9I      0.151000
     29 H6         -4.0350    2.5900    0.6150 ha        1 X9I      0.161000
     30 H18         0.5480    2.1130   -0.7980 h1        1 X9I      0.044700
     31 H28         0.3960    1.8140    0.9970 h1        1 X9I      0.044700
     32 H10         2.1950    0.3460   -2.0250 ha        1 X9I      0.111000
     33 H11         4.6290   -0.2890   -1.9360 ha        1 X9I      0.158000
     34 H13         4.7840    0.7870    2.2190 ha        1 X9I      0.158000
     35 H14         2.3490    1.4160    2.1630 ha        1 X9I      0.111000
@<TRIPOS>BOND
     1    1    2 1   
     2    1    4 ar  
     3    1   12 ar  
     4    2    3 1   
     5    2    6 1   
     6    4    7 ar  
     7    4   24 1   
     8    5   13 1   
     9    5   25 1   
    10    5   26 1   
    11    7   10 ar  
    12    7   13 1   
    13    8   10 1   
    14    8   14 1   
    15    8   27 1   
    16    9   13 2   
    17   10   11 ar  
    18   11   12 ar  
    19   11   28 1   
    20   12   29 1   
    21   14   15 1   
    22   14   30 1   
    23   14   31 1   
    24   15   16 ar  
    25   15   20 ar  
    26   16   17 ar  
    27   16   32 1   
    28   17   18 ar  
    29   17   33 1   
    30   18   19 ar  
    31   18   21 1   
    32   19   20 ar  
    33   19   34 1   
    34   20   35 1   
    35   21   22 1   
    36   21   23 1   
@<TRIPOS>SUBSTRUCTURE
     1 X9I         1 TEMP              0 ****  ****    0 ROOT
