@<TRIPOS>MOLECULE
X9Q
   36    33     1     0     0
SMALL
bcc


@<TRIPOS>ATOM
      1 CD1         2.9870   -0.6050   -2.2490 c1        1 X9Q     -0.117000
      2 CE1         4.3320   -0.9750   -2.1620 c1        1 X9Q     -0.135500
      3 CZ          4.7100   -2.0260   -1.3390 c1        1 X9Q     -0.135500
      4 CE2         3.7420   -2.7160   -0.5930 c1        1 X9Q     -0.135500
      5 CD2         2.4090   -2.3490   -0.6780 c1        1 X9Q     -0.135500
      6 CG2         2.0260   -1.2910   -1.5070 c1        1 X9Q     -0.062000
      7 CB2         0.5100   -0.9670   -1.7000 c3        1 X9Q     -0.069000
      8 CA2        -0.0140   -0.1920   -0.4620 c2        1 X9Q     -0.088000
      9 C2         -0.0840    1.2000   -0.4280 c2        1 X9Q      0.296000
     10 O2          0.5510    1.9360   -1.0700 o         1 X9Q     -0.371000
     11 N2         -0.6070   -0.7770    0.5070 n1        1 X9Q     -0.113000
     12 C1         -1.2970    0.0800    1.3120 c2        1 X9Q      0.052000
     13 CA1        -2.7220   -0.0220    1.0430 c3        1 X9Q     -0.055000
     14 CB1        -3.4980    0.3500    2.3020 c3        1 X9Q     -0.261000
     15 N1         -3.0450   -1.3650    0.6660 n3        1 X9Q     -0.320000
     16 N3         -0.6280    1.4670    0.8830 n         1 X9Q     -0.302000
     17 CA3        -0.9430    2.7650    1.4240 c3        1 X9Q     -0.098000
     18 C3         -1.1880    3.7520    0.2760 c2        1 X9Q      0.317000
     19 O3         -2.3810    3.9830   -0.1220 o         1 X9Q     -0.562500
     20 OXT        -0.2120    4.3340   -0.2800 o         1 X9Q     -0.562500
     21 HD1         2.7180    0.1430   -2.8340 ha        1 X9Q      0.169000
     22 HE1         5.0350   -0.4740   -2.7030 ha        1 X9Q      0.123250
     23 HZ          5.6630   -2.2570   -1.2410 ha        1 X9Q      0.123250
     24 HE2         4.0100   -3.4600   -0.0100 ha        1 X9Q      0.123250
     25 HD2         1.7230   -2.8390   -0.1480 ha        1 X9Q      0.123250
     26 HB21        0.0210   -1.7800   -1.7940 hc        1 X9Q      0.111000
     27 HB22        0.3910   -0.4250   -2.4980 hc        1 X9Q      0.111000
     28 H1         -1.2700   -0.0520    2.2620 h4        1 X9Q      0.107000
     29 HA1        -2.9640    0.5900    0.3130 h1        1 X9Q      0.185000
     30 HB11       -4.4400    0.1740    2.1650 hc        1 X9Q      0.083667
     31 HB12       -3.1710   -0.1890    3.0620 hc        1 X9Q      0.083667
     32 HB13       -3.3690    1.2930    2.4940 hc        1 X9Q      0.083667
     33 HN11       -3.4540   -1.3620   -0.1450 hn        1 X9Q      0.128500
     34 HN12       -3.6080   -1.7290    1.2890 hn        1 X9Q      0.128500
     35 HA31       -0.1780    3.0880    1.9870 h1        1 X9Q      0.087500
     36 HA32       -1.7570    2.7000    1.9810 h1        1 X9Q      0.087500
@<TRIPOS>BOND
     1    1    6 1   
     2    1   21 1   
     3    2    3 1   
     4    2   22 1   
     5    3   23 1   
     6    4    5 1   
     7    4   24 1   
     8    5   25 1   
     9    6    7 1   
    10    7    8 1   
    11    7   26 1   
    12    7   27 1   
    13    8    9 1   
    14    8   11 1   
    15    9   10 1   
    16    9   16 1   
    17   12   13 1   
    18   12   16 1   
    19   12   28 1   
    20   13   14 1   
    21   13   15 1   
    22   13   29 1   
    23   14   30 1   
    24   14   31 1   
    25   14   32 1   
    26   15   33 1   
    27   15   34 1   
    28   16   17 1   
    29   17   18 1   
    30   17   35 1   
    31   17   36 1   
    32   18   19 1   
    33   18   20 1   
@<TRIPOS>SUBSTRUCTURE
     1 X9Q         1 TEMP              0 ****  ****    0 ROOT
