@<TRIPOS>MOLECULE
X9Q
   36    37     1     0     0
SMALL
bcc


@<TRIPOS>ATOM
      1 CD1        -2.8160    0.1770   -0.7530 ca        1 X9Q     -0.119000
      2 CE1        -3.9410    0.8740   -1.1930 ca        1 X9Q     -0.136000
      3 CZ         -5.2090    0.5340   -0.7230 ca        1 X9Q     -0.144000
      4 CE2        -5.3520   -0.5060    0.1940 ca        1 X9Q     -0.136000
      5 CD2        -4.2300   -1.2040    0.6380 ca        1 X9Q     -0.119000
      6 CG2        -2.9540   -0.8700    0.1670 ca        1 X9Q     -0.063300
      7 CB2        -1.7800   -1.6630    0.6220 c3        1 X9Q     -0.059400
      8 CA2        -0.5170   -0.8920    0.7390 ce        1 X9Q      0.341300
      9 C2          0.7890   -1.5130    0.2070 c         1 X9Q      0.563200
     10 O2          0.9100   -2.6370   -0.3060 o         1 X9Q     -0.646500
     11 N2         -0.3150    0.2760    1.2810 n2        1 X9Q     -0.526900
     12 C1          1.1330    0.6030    1.1200 c3        1 X9Q      0.249900
     13 CA1         1.3410    1.9340    0.3220 c3        1 X9Q      0.166500
     14 CB1         0.7410    3.0830    1.1300 c3        1 X9Q     -0.086100
     15 N1          0.7830    1.8430   -1.0180 n3        1 X9Q     -0.919800
     16 N3          1.7760   -0.5890    0.5170 n         1 X9Q     -0.453800
     17 CA3         3.1630   -0.6890    0.1770 c3        1 X9Q     -0.025000
     18 C3          3.7530    0.4350   -0.7220 c         1 X9Q      0.896600
     19 O3          3.2840    0.5970   -1.8830 o         1 X9Q     -0.830800
     20 OXT         4.6970    1.1110   -0.2280 o         1 X9Q     -0.830800
     21 HD1        -1.8140    0.4610   -1.1190 ha        1 X9Q      0.146000
     22 HE1        -3.8210    1.6980   -1.9110 ha        1 X9Q      0.122500
     23 HZ         -6.0930    1.0860   -1.0720 ha        1 X9Q      0.117000
     24 HE2        -6.3480   -0.7750    0.5700 ha        1 X9Q      0.122500
     25 HD2        -4.3480   -2.0210    1.3650 ha        1 X9Q      0.146000
     26 HB21       -1.9980   -2.1370    1.6190 hc        1 X9Q      0.072700
     27 HB22       -1.6000   -2.5000   -0.1140 hc        1 X9Q      0.072700
     28 H1          1.5710    0.7550    2.1520 h2        1 X9Q      0.077700
     29 HA1         2.4680    2.0930    0.2960 h1        1 X9Q      0.076700
     30 HB11       -0.3720    3.0230    1.1700 hc        1 X9Q      0.031700
     31 HB12        1.1400    3.0520    2.1720 hc        1 X9Q      0.031700
     32 HB13        1.0280    4.0590    0.6710 hc        1 X9Q      0.031700
     33 HN11        0.9320    2.7180   -1.4840 hn        1 X9Q      0.367800
     34 HN12        1.2750    1.1300   -1.5370 hn        1 X9Q      0.367800
     35 HA31        3.7500   -0.7110    1.1390 h1        1 X9Q      0.047200
     36 HA32        3.3090   -1.6650   -0.3660 h1        1 X9Q      0.047200
@<TRIPOS>BOND
     1    1    2 ar  
     2    1    6 ar  
     3    1   21 1   
     4    2    3 ar  
     5    2   22 1   
     6    3    4 ar  
     7    3   23 1   
     8    4    5 ar  
     9    4   24 1   
    10    5    6 ar  
    11    5   25 1   
    12    6    7 1   
    13    7    8 1   
    14    7   26 1   
    15    7   27 1   
    16    8    9 1   
    17    8   11 2   
    18    9   10 2   
    19    9   16 1   
    20   11   12 1   
    21   12   13 1   
    22   12   16 1   
    23   12   28 1   
    24   13   14 1   
    25   13   15 1   
    26   13   29 1   
    27   14   30 1   
    28   14   31 1   
    29   14   32 1   
    30   15   33 1   
    31   15   34 1   
    32   16   17 1   
    33   17   18 1   
    34   17   35 1   
    35   17   36 1   
    36   18   19 1   
    37   18   20 1   
@<TRIPOS>SUBSTRUCTURE
     1 X9Q         1 TEMP              0 ****  ****    0 ROOT
