@<TRIPOS>MOLECULE
X9X
   26    25     1     0     0
SMALL
bcc


@<TRIPOS>ATOM
      1 OAA        -0.0810   -0.0460    0.1910 oh        1 X9X     -0.622800
      2 CAG         1.3300    0.0640    0.0650 c3        1 X9X      0.102400
      3 CAI         1.8890   -0.0430    1.4860 c3        1 X9X      0.140100
      4 OAC         1.4890   -1.2640    2.0940 oh        1 X9X     -0.620800
      5 CAK         3.4330   -0.0460    1.4700 c3        1 X9X      0.118100
      6 OAE         3.8010    0.9110    0.4910 oh        1 X9X     -0.609800
      7 CAL         4.0070    0.2990    2.8590 c3        1 X9X      0.118100
      8 OAF         3.6390   -0.6580    3.8380 oh        1 X9X     -0.609800
      9 CAJ         5.5510    0.2960    2.8420 c3        1 X9X      0.140100
     10 OAD         5.9510    1.5170    2.2350 oh        1 X9X     -0.620800
     11 CAH         6.1100    0.1890    4.2630 c3        1 X9X      0.102400
     12 OAB         7.5210    0.2990    4.1380 oh        1 X9X     -0.622800
     13 H1         -0.4440    0.0230   -0.6990 ho        1 X9X      0.412000
     14 H2          1.7270   -0.7700   -0.5710 h1        1 X9X      0.050700
     15 H3          1.6120    1.0520   -0.3850 h1        1 X9X      0.050700
     16 H4          1.5100    0.8180    2.1040 h1        1 X9X      0.053700
     17 H5          0.5360   -1.3480    1.9500 ho        1 X9X      0.432000
     18 H6          3.7980   -1.0660    1.1610 h1        1 X9X      0.060700
     19 H7          4.7430    1.1000    0.5950 ho        1 X9X      0.433000
     20 H8          3.6420    1.3190    3.1670 h1        1 X9X      0.060700
     21 H9          2.6970   -0.8470    3.7340 ho        1 X9X      0.433000
     22 H10         5.9300   -0.5660    2.2250 h1        1 X9X      0.053700
     23 H11         6.9040    1.6010    2.3780 ho        1 X9X      0.432000
     24 H12         5.8280   -0.7990    4.7130 h1        1 X9X      0.050700
     25 H13         5.7130    1.0230    4.9000 h1        1 X9X      0.050700
     26 H14         7.8840    0.2300    5.0280 ho        1 X9X      0.412000
@<TRIPOS>BOND
     1    1    2 1   
     2    1   13 1   
     3    2    3 1   
     4    2   14 1   
     5    2   15 1   
     6    3    4 1   
     7    3    5 1   
     8    3   16 1   
     9    4   17 1   
    10    5    6 1   
    11    5    7 1   
    12    5   18 1   
    13    6   19 1   
    14    7    8 1   
    15    7    9 1   
    16    7   20 1   
    17    8   21 1   
    18    9   10 1   
    19    9   11 1   
    20    9   22 1   
    21   10   23 1   
    22   11   12 1   
    23   11   24 1   
    24   11   25 1   
    25   12   26 1   
@<TRIPOS>SUBSTRUCTURE
     1 X9X         1 TEMP              0 ****  ****    0 ROOT
