@<TRIPOS>MOLECULE
XA0
   33    29     1     0     0
SMALL
bcc


@<TRIPOS>ATOM
      1 N01        -0.2830   -0.2080   -0.0400 n3        1 XA0     -0.306000
      2 N02         3.0000   -0.2020    2.8010 n         1 XA0     -0.421000
      3 N03         4.9700   -0.2520   -2.1100 n2        1 XA0      0.580000
      4 C04         3.4510   -0.2560   -0.1340 c1        1 XA0      0.007000
      5 C05         2.1480   -0.2230    0.3500 c2        1 XA0     -0.213000
      6 C06         1.0780   -0.1500   -0.5380 c2        1 XA0      0.201000
      7 C07         1.3130   -0.1110   -1.9020 c2        1 XA0     -0.240000
      8 C08         2.6150   -0.1430   -2.3840 c1        1 XA0      0.058000
      9 C09         3.6840   -0.2160   -1.4970 c2        1 XA0     -0.200000
     10 C10         1.8880   -0.2470    1.8790 c2        1 XA0      0.356000
     11 C11        -1.3090    0.6230   -0.6370 c3        1 XA0      0.008000
     12 C12        -2.6540    0.3540    0.0560 c2        1 XA0     -0.068000
     13 C13        -2.9990    1.0620    1.2000 c2        1 XA0     -0.144000
     14 C14        -4.2530    0.8860    1.7770 c1        1 XA0      0.087000
     15 C15        -5.1590    0.0040    1.2090 c2        1 XA0      0.034000
     16 C16        -4.8150   -0.7060    0.0630 c1        1 XA0      0.087000
     17 C17        -3.5630   -0.5300   -0.5130 c1        1 XA0     -0.143000
     18 O18         0.7550   -0.2190    2.2990 o         1 XA0     -0.391000
     19 O19         5.9690   -0.3880   -1.4240 o         1 XA0     -0.369000
     20 O20         5.0820   -0.1430   -3.4670 os        1 XA0     -0.335000
     21 CL21        2.9170    0.0180   -4.1030 cl        1 XA0      0.048000
     22 F22        -5.7170   -1.5140   -0.5240 f         1 XA0     -0.079000
     23 F23        -4.5630    1.5230    2.9110 f         1 XA0     -0.080000
     24 F24        -6.3720   -0.1520    1.7530 f         1 XA0     -0.070000
     25 HN01       -0.4910   -0.7610    0.6530 hn        1 XA0      0.265000
     26 H102        3.8040    0.1540    2.5320 hn        1 XA0      0.234500
     27 H202        2.8840   -0.4670    3.6740 hn        1 XA0      0.234500
     28 H04         4.2040   -0.3060    0.4900 DU        1 XA0      0.170000
     29 H07         0.5570   -0.0590   -2.5310 ha        1 XA0      0.161000
     30 H111       -1.3850    0.4130   -1.5930 h1        1 XA0      0.099500
     31 H211       -1.0700    1.5650   -0.5280 h1        1 XA0      0.099500
     32 H13        -2.3670    1.6780    1.5960 ha        1 XA0      0.167000
     33 H17        -3.3220   -1.0290   -1.3170 ha        1 XA0      0.163000
@<TRIPOS>BOND
     1    1    6 1   
     2    1   11 1   
     3    1   25 1   
     4    2   10 1   
     5    2   26 1   
     6    2   27 1   
     7    3    9 1   
     8    3   19 1   
     9    4    5 1   
    10    4    9 1   
    11    5    6 1   
    12    5   10 1   
    13    6    7 1   
    14    7    8 1   
    15    7   29 1   
    16    8    9 1   
    17   10   18 1   
    18   11   12 1   
    19   11   30 1   
    20   11   31 1   
    21   12   13 1   
    22   12   17 1   
    23   13   14 1   
    24   13   32 1   
    25   14   15 1   
    26   15   16 1   
    27   15   24 1   
    28   16   22 1   
    29   17   33 1   
@<TRIPOS>SUBSTRUCTURE
     1 XA0         1 TEMP              0 ****  ****    0 ROOT
