@<TRIPOS>MOLECULE
XA0
   33    34     1     0     0
SMALL
bcc


@<TRIPOS>ATOM
      1 N01         0.2850   -0.2030   -0.1360 nh        1 XA0     -0.750600
      2 N02        -1.7400   -3.7150   -0.5900 n         1 XA0     -0.661000
      3 N03        -5.3940   -0.0820    0.2730 no        1 XA0      0.325200
      4 C04        -3.2400   -1.2890    0.1660 ca        1 XA0      0.007000
      5 C05        -1.8570   -1.3560    0.0770 ca        1 XA0     -0.233600
      6 C06        -1.0840   -0.1560   -0.0290 ca        1 XA0      0.282600
      7 C07        -1.7890    1.0780   -0.0890 ca        1 XA0     -0.240000
      8 C08        -3.1750    1.1320   -0.0130 ca        1 XA0      0.136400
      9 C09        -3.9160   -0.0580    0.1430 ca        1 XA0     -0.245200
     10 C11         1.0830    0.9970   -0.0620 c3        1 XA0      0.252100
     11 C12         2.5580    0.7120   -0.0110 ca        1 XA0     -0.075300
     12 C13         3.1590   -0.0210   -1.0340 ca        1 XA0     -0.143500
     13 C14         4.5430   -0.2590   -1.0090 ca        1 XA0      0.121900
     14 C15         5.3340    0.2480    0.0540 ca        1 XA0      0.068900
     15 C16         4.7020    0.9900    1.0850 ca        1 XA0      0.121900
     16 C17         3.3160    1.2130    1.0470 ca        1 XA0     -0.143500
     17 O18        -0.1370   -2.8830    0.7820 o         1 XA0     -0.630100
     18 O19        -5.9660    0.7840    0.8730 o         1 XA0     -0.202000
     19 O20        -5.9810   -1.0160   -0.2100 o         1 XA0     -0.202000
     20 CL21       -3.9120    2.6480   -0.1480 cl        1 XA0     -0.030400
     21 F22         5.4400    1.4790    2.1060 f         1 XA0     -0.114400
     22 F23         5.1280   -0.9680   -1.9990 f         1 XA0     -0.114400
     23 F24         6.6640    0.0270    0.0850 f         1 XA0     -0.104900
     24 HN01        0.7410   -1.0620    0.1060 hn        1 XA0      0.469800
     25 H102       -2.5540   -3.5850   -1.1330 hn        1 XA0      0.321000
     26 H202       -1.3190   -4.6110   -0.5580 hn        1 XA0      0.321000
     27 H04        -3.8340   -2.2170    0.2730 ha        1 XA0      0.170000
     28 H07        -1.2320    2.0220   -0.2050 ha        1 XA0      0.161000
     29 H111        0.8750    1.6220   -0.9820 h1        1 XA0      0.060200
     30 H211        0.7870    1.6090    0.8420 h1        1 XA0      0.060200
     31 H13         2.5620   -0.4180   -1.8700 ha        1 XA0      0.165000
     32 H17         2.8460    1.7850    1.8620 ha        1 XA0      0.165000
     33 C10        -1.1840   -2.6860    0.1240 c         1 XA0      0.682700
@<TRIPOS>BOND
     1    1    6 1   
     2    1   10 1   
     3    1   24 1   
     4    2   25 1   
     5    2   26 1   
     6    2   33 1   
     7    3    9 1   
     8    3   18 1   
     9    3   19 1   
    10    4    5 ar  
    11    4    9 ar  
    12    4   27 1   
    13    5    6 ar  
    14    5   33 1   
    15    6    7 ar  
    16    7    8 ar  
    17    7   28 1   
    18    8    9 ar  
    19    8   20 1   
    20   10   11 1   
    21   10   29 1   
    22   10   30 1   
    23   11   12 ar  
    24   11   16 ar  
    25   12   13 ar  
    26   12   31 1   
    27   13   14 ar  
    28   13   22 1   
    29   14   15 ar  
    30   14   23 1   
    31   15   16 ar  
    32   15   21 1   
    33   16   32 1   
    34   17   33 2   
@<TRIPOS>SUBSTRUCTURE
     1 XA0         1 TEMP              0 ****  ****    0 ROOT
