@<TRIPOS>MOLECULE
XA0
   33    33     1     0     0
SMALL
bcc


@<TRIPOS>ATOM
      1 N01         0.1410    1.3610   -1.2630 nh        1 XA0     -0.720600
      2 N02         2.5580    2.5170    1.7540 n         1 XA0     -0.657000
      3 N03         4.8450   -1.7260   -0.3120 no        1 XA0      0.322200
      4 C04         3.1760   -0.0300    0.3600 ca        1 XA0     -0.004000
      5 C05         2.0230    0.7210    0.1660 ca        1 XA0     -0.223600
      6 C06         1.2130    0.5180   -0.9930 ca        1 XA0      0.253600
      7 C07         1.6080   -0.5000   -1.8970 ca        1 XA0     -0.210000
      8 C08         2.7650   -1.2480   -1.6990 ca        1 XA0      0.125400
      9 C09         3.5760   -0.9970   -0.5740 ca        1 XA0     -0.227200
     10 C11        -0.9890    0.9240   -2.0520 c3        1 XA0      0.270900
     11 C12        -1.9330    0.0790   -1.3560 c1        1 XA0     -0.129100
     12 C13        -2.3320    0.4500    2.0340 c2        1 XA0     -0.199000
     13 C14        -3.5890   -0.0310    2.0620 ce        1 XA0      0.106500
     14 C15        -4.0760   -1.1420    1.2170 ce        1 XA0      0.129500
     15 C16        -3.6550   -1.3960   -0.0670 cf        1 XA0      0.216800
     16 C17        -2.7170   -0.5960   -0.7540 ch        1 XA0     -0.143300
     17 O18         0.4160    1.7790    1.6010 o         1 XA0     -0.638100
     18 O19         5.5680   -2.0260   -1.2200 o         1 XA0     -0.197500
     19 O20         5.1310   -1.9540    0.8350 o         1 XA0     -0.197500
     20 CL21        3.1160   -2.4660   -2.8170 cl        1 XA0     -0.023400
     21 F22        -4.1590   -2.4630   -0.7410 f         1 XA0     -0.142500
     22 F23        -4.5180    0.4640    2.9230 f         1 XA0     -0.161500
     23 F24        -5.0190   -1.9320    1.7800 f         1 XA0     -0.137500
     24 HN01       -0.1300    1.9450   -0.4920 hn        1 XA0      0.442800
     25 H102        3.4980    2.4810    1.4540 hn        1 XA0      0.321500
     26 H202        2.3030    3.1550    2.4680 hn        1 XA0      0.321500
     27 H04         3.7820    0.1120    1.2750 ha        1 XA0      0.171000
     28 H07         0.9940   -0.7200   -2.7850 ha        1 XA0      0.165000
     29 H111       -0.6330    0.3940   -2.9840 h1        1 XA0      0.088200
     30 H211       -1.5260    1.8660   -2.3830 h1        1 XA0      0.088200
     31 H13        -2.0040    1.2740    2.6810 ha        1 XA0      0.152000
     32 H17        -1.5630    0.0460    1.3630 ha        1 XA0      0.152000
     33 C10         1.6050    1.6960    1.2140 c         1 XA0      0.682700
@<TRIPOS>BOND
     1    1    6 1   
     2    1   10 1   
     3    1   24 1   
     4    2   25 1   
     5    2   26 1   
     6    2   33 1   
     7    3    9 1   
     8    3   18 1   
     9    3   19 1   
    10    4    5 ar  
    11    4    9 ar  
    12    4   27 1   
    13    5    6 ar  
    14    5   33 1   
    15    6    7 ar  
    16    7    8 ar  
    17    7   28 1   
    18    8    9 ar  
    19    8   20 1   
    20   10   11 1   
    21   10   29 1   
    22   10   30 1   
    23   11   16 3   
    24   12   13 2   
    25   12   31 1   
    26   12   32 1   
    27   13   14 1   
    28   13   22 1   
    29   14   15 2   
    30   14   23 1   
    31   15   16 1   
    32   15   21 1   
    33   17   33 2   
@<TRIPOS>SUBSTRUCTURE
     1 XA0         1 TEMP              0 ****  ****    0 ROOT
