@<TRIPOS>MOLECULE
XA0
   34    35     1     0     0
SMALL
bcc


@<TRIPOS>ATOM
      1 N01        -0.0120    0.0290   -0.0290 nh        1 XA0     -0.711600
      2 N02         3.3160   -0.1120    2.8700 n4        1 XA0     -0.758400
      3 N03         5.4190    0.1150   -1.7380 no        1 XA0      0.325200
      4 C04         3.7000    0.0990    0.0200 ca        1 XA0      0.010000
      5 C05         2.3790    0.0540    0.5200 ca        1 XA0     -0.325600
      6 C06         1.2820   -0.0120   -0.4170 ca        1 XA0      0.334600
      7 C07         1.6180   -0.1390   -1.8100 ca        1 XA0     -0.235000
      8 C08         2.9170   -0.1310   -2.2680 ca        1 XA0      0.158400
      9 C09         3.9840    0.0300   -1.3300 ca        1 XA0     -0.222200
     10 C11        -1.1260   -0.0630   -0.9570 c3        1 XA0      0.248100
     11 C12        -2.4470   -0.0010   -0.2500 ca        1 XA0     -0.108300
     12 C13        -2.8840    1.2130    0.2820 ca        1 XA0     -0.143500
     13 C14        -4.1340    1.2910    0.9180 ca        1 XA0      0.128400
     14 C15        -4.9560    0.1360    1.0190 ca        1 XA0      0.090900
     15 C16        -4.4910   -1.0870    0.4680 ca        1 XA0      0.128400
     16 C17        -3.2350   -1.1470   -0.1600 ca        1 XA0     -0.143500
     17 O18         1.0770    0.2060    2.5660 o         1 XA0     -0.479100
     18 O19         5.7220    0.6130   -2.7790 o         1 XA0     -0.172000
     19 O20         6.2260   -0.2990   -0.9460 o         1 XA0     -0.172000
     20 CL21        3.1940   -0.3430   -3.9100 cl        1 XA0      0.041600
     21 F22        -5.2580   -2.1940    0.5530 f         1 XA0     -0.100900
     22 F23        -4.5580    2.4620    1.4350 f         1 XA0     -0.100900
     23 F24        -6.1550    0.2020    1.6260 f         1 XA0     -0.087900
     24 HN01       -0.2500    0.1290    0.9380 hn        1 XA0      0.474800
     25 H102        3.9380    0.6990    2.8170 hn        1 XA0      0.469800
     26 H202        2.9740   -0.2070    3.8350 hn        1 XA0      0.469800
     27 H04         4.5590    0.2050    0.7100 ha        1 XA0      0.150000
     28 H07         0.8020   -0.2490   -2.5480 ha        1 XA0      0.185000
     29 H111       -1.0600    0.7930   -1.6930 h1        1 XA0      0.080200
     30 H211       -1.0450   -1.0320   -1.5340 h1        1 XA0      0.080200
     31 H13        -2.2700    2.1230    0.2000 ha        1 XA0      0.164000
     32 H17        -2.8990   -2.1070   -0.5830 ha        1 XA0      0.164000
     33 H023        3.8390   -0.9530    2.6100 hn        1 XA0      0.469800
     34 C10         2.1250    0.0780    1.9360 c         1 XA0      0.585700
@<TRIPOS>BOND
     1    1    6 1   
     2    1   10 1   
     3    1   24 1   
     4    2   25 1   
     5    2   26 1   
     6    2   33 1   
     7    2   34 1   
     8    3    9 1   
     9    3   18 1   
    10    3   19 1   
    11    4    5 ar  
    12    4    9 ar  
    13    4   27 1   
    14    5    6 ar  
    15    5   34 1   
    16    6    7 ar  
    17    7    8 ar  
    18    7   28 1   
    19    8    9 ar  
    20    8   20 1   
    21   10   11 1   
    22   10   29 1   
    23   10   30 1   
    24   11   12 ar  
    25   11   16 ar  
    26   12   13 ar  
    27   12   31 1   
    28   13   14 ar  
    29   13   22 1   
    30   14   15 ar  
    31   14   23 1   
    32   15   16 ar  
    33   15   21 1   
    34   16   32 1   
    35   17   34 2   
@<TRIPOS>SUBSTRUCTURE
     1 XA0         1 TEMP              0 ****  ****    0 ROOT
