@<TRIPOS>MOLECULE
XA0
   34    33     1     0     0
SMALL
bcc


@<TRIPOS>ATOM
      1 N01         0.3270    0.5850    0.3160 nu        1 XA0     -0.356100
      2 N02         3.7160   -2.5970    1.9430 n9        1 XA0     -1.063400
      3 N03         5.7470    0.4070   -1.4640 no        1 XA0      0.308100
      4 C04         4.0160    0.0560    0.2540 cc        1 XA0      0.069000
      5 C05         2.6770    0.0910    0.7400 cc        1 XA0     -0.420700
      6 C06         1.6030    0.5280   -0.1240 cc        1 XA0      0.489900
      7 C07         1.9580    0.8880   -1.4640 cc        1 XA0     -0.332600
      8 C08         3.2600    0.8440   -1.9220 cd        1 XA0      0.187400
      9 C09         4.3110    0.4420   -1.0340 cd        1 XA0     -0.212100
     10 C11        -0.7820    1.0470   -0.5110 c3        1 XA0      0.122400
     11 C12        -2.0260    1.0530    0.2090 c1        1 XA0     -0.187100
     12 C13        -4.9890   -0.2290   -1.2020 c2        1 XA0     -0.214000
     13 C14        -5.4540   -0.5660    0.0160 ce        1 XA0      0.117500
     14 C15        -5.3900    0.3410    1.1860 ce        1 XA0      0.173500
     15 C16        -4.2960    1.1150    1.4960 cf        1 XA0      0.174800
     16 C17        -3.0830    1.0730    0.7740 ch        1 XA0     -0.056300
     17 O18         2.1990   -0.5530    3.1480 o         1 XA0     -0.188500
     18 O19         6.1800    1.2920   -2.1370 o         1 XA0     -0.157500
     19 O20         6.4050   -0.5110   -1.0620 o         1 XA0     -0.157500
     20 Cl21        3.5620    1.2320   -3.5240 cl        1 XA0      0.054600
     21 F22        -4.3360    1.9570    2.5610 f         1 XA0     -0.129500
     22 F23        -6.0600   -1.7560    0.2520 f         1 XA0     -0.142500
     23 F24        -6.4840    0.3730    1.9700 f         1 XA0     -0.110500
     24 HN01        0.1060    0.3230    1.2530 hn        1 XA0      0.300700
     25 H102        3.7160   -2.9290    2.8880 hn        1 XA0      0.362467
     26 H202        4.6630   -2.5670    1.6180 hn        1 XA0      0.362467
     27 H04         4.8220   -0.2870    0.9350 ha        1 XA0      0.196000
     28 H07         1.1600    1.2070   -2.1600 ha        1 XA0      0.190000
     29 H111       -0.8700    0.3650   -1.4130 h1        1 XA0      0.096700
     30 H211       -0.5520    2.0970   -0.8740 h1        1 XA0      0.096700
     31 H13        -5.0740   -0.9090   -2.0600 ha        1 XA0      0.148000
     32 H17        -4.5280    0.7480   -1.3890 ha        1 XA0      0.148000
     33 H023        3.2100   -3.2490    1.3790 hn        1 XA0      0.362467
     34 C10         2.4420   -0.3060    2.0360 c1        1 XA0      0.767600
@<TRIPOS>BOND
     1    1    6 2   
     2    1   10 1   
     3    1   24 1   
     4    2   25 1   
     5    2   26 1   
     6    2   33 1   
     7    3    9 1   
     8    3   18 1   
     9    3   19 1   
    10    4    5 1   
    11    4    9 2   
    12    4   27 1   
    13    5    6 1   
    14    5   34 2   
    15    6    7 1   
    16    7    8 2   
    17    7   28 1   
    18    8    9 1   
    19    8   20 1   
    20   10   11 1   
    21   10   29 1   
    22   10   30 1   
    23   11   16 3   
    24   12   13 2   
    25   12   31 1   
    26   12   32 1   
    27   13   14 1   
    28   13   22 1   
    29   14   15 2   
    30   14   23 1   
    31   15   16 1   
    32   15   21 1   
    33   17   34 2   
@<TRIPOS>SUBSTRUCTURE
     1 XA0         1 TEMP              0 ****  ****    0 ROOT
