@<TRIPOS>MOLECULE
XA7
   77    76     1     0     0
SMALL
bcc


@<TRIPOS>ATOM
      1 CAS         0.5520   -0.1640   -0.8540 c3        1 XA7     -0.096100
      2 CAR         2.0350   -0.0940   -0.5970 c3        1 XA7     -0.079400
      3 CAQ         2.3370   -0.1170    0.8870 c3        1 XA7     -0.080400
      4 CAP         3.8290   -0.0450    1.1390 c3        1 XA7     -0.080400
      5 CAO         4.1230   -0.0700    2.6280 c3        1 XA7     -0.100400
      6 CAN         5.6300    0.0000    2.8350 c3        1 XA7      0.110800
      7 NAM         6.1020    0.0010    4.2680 n4        1 XA7     -0.603800
      8 CAT         7.6100    0.0010    4.2330 c3        1 XA7      0.110800
      9 CAU         8.3110    0.0720    5.5830 c3        1 XA7     -0.100400
     10 CAV         9.8120    0.0470    5.3610 c3        1 XA7     -0.080400
     11 CAW        10.5490    0.1200    6.6820 c3        1 XA7     -0.080400
     12 CAX        12.0490    0.0950    6.4700 c3        1 XA7     -0.079400
     13 CAY        12.7880    0.1690    7.7800 c3        1 XA7     -0.096100
     14 CAL         5.5850    1.2130    5.0010 c3        1 XA7      0.110800
     15 CAK         6.0440    2.5640    4.4700 c3        1 XA7     -0.100400
     16 CAJ         5.4220    3.6620    5.3120 c3        1 XA7     -0.080400
     17 CAI         5.8560    5.0260    4.8170 c3        1 XA7     -0.080400
     18 CAH         5.2400    6.1290    5.6520 c3        1 XA7     -0.079400
     19 CAG         5.6680    7.4890    5.1650 c3        1 XA7     -0.096100
     20 CAF         5.5850   -1.2110    5.0010 c3        1 XA7      0.110800
     21 CAA         5.9300   -2.5620    4.3900 c3        1 XA7     -0.100400
     22 CAB         5.3450   -3.6600    5.2600 c3        1 XA7     -0.080400
     23 CAC         5.6640   -5.0240    4.6840 c3        1 XA7     -0.080400
     24 CAD         5.0840   -6.1270    5.5450 c3        1 XA7     -0.079400
     25 CAE         5.3970   -7.4870    4.9770 c3        1 XA7     -0.096100
     26 HAS1        0.1210   -1.1050   -0.4330 hc        1 XA7      0.041367
     27 HAS2        0.3510   -0.1460   -1.9530 hc        1 XA7      0.041367
     28 HAS3        0.0270    0.7030   -0.3850 hc        1 XA7      0.041367
     29 HAR1        2.4520    0.8450   -1.0490 hc        1 XA7      0.043700
     30 HAR2        2.5460   -0.9580   -1.0970 hc        1 XA7      0.043700
     31 HAQ1        1.9220   -1.0560    1.3400 hc        1 XA7      0.046700
     32 HAQ2        1.8270    0.7480    1.3880 hc        1 XA7      0.046700
     33 HAP1        4.3370   -0.9110    0.6370 hc        1 XA7      0.052700
     34 HAP2        4.2410    0.8940    0.6850 hc        1 XA7      0.052700
     35 HAO1        3.7050   -1.0130    3.0700 hc        1 XA7      0.063200
     36 HAO2        3.6100    0.7990    3.1170 hc        1 XA7      0.063200
     37 HAN1        6.1120   -0.8840    2.3260 hx        1 XA7      0.094700
     38 HAN2        6.0250    0.9400    2.3520 hx        1 XA7      0.094700
     39 HAT1        7.9290    0.8840    3.6070 hx        1 XA7      0.094700
     40 HAT2        7.9320   -0.9390    3.6990 hx        1 XA7      0.094700
     41 HAL1        4.4580    1.1680    4.9680 hx        1 XA7      0.094700
     42 HAL2        5.9070    1.1130    6.0780 hx        1 XA7      0.094700
     43 HAF1        4.4620   -1.1110    5.0590 hx        1 XA7      0.094700
     44 HAF2        5.9940   -1.1660    6.0520 hx        1 XA7      0.094700
     45 HAU1        8.0210   -0.7960    6.2310 hc        1 XA7      0.063200
     46 HAU2        8.0350    1.0150    6.1240 hc        1 XA7      0.063200
     47 HAV1       10.1160    0.9110    4.7130 hc        1 XA7      0.052700
     48 HAV2       10.1010   -0.8940    4.8210 hc        1 XA7      0.052700
     49 HAW1       10.2480   -0.7430    7.3320 hc        1 XA7      0.046700
     50 HAW2       10.2630    1.0600    7.2230 hc        1 XA7      0.046700
     51 HAX1       12.3490    0.9580    5.8180 hc        1 XA7      0.043700
     52 HAX2       12.3350   -0.8450    5.9270 hc        1 XA7      0.043700
     53 HAY1       12.5220   -0.6970    8.4340 hc        1 XA7      0.041367
     54 HAY2       12.5370    1.1110    8.3250 hc        1 XA7      0.041367
     55 HAY3       13.8910    0.1490    7.6020 hc        1 XA7      0.041367
     56 HAK1        5.7340    2.7000    3.4010 hc        1 XA7      0.063200
     57 HAK2        7.1620    2.6500    4.5190 hc        1 XA7      0.063200
     58 HAJ1        4.3030    3.5870    5.2700 hc        1 XA7      0.052700
     59 HAJ2        5.7260    3.5380    6.3850 hc        1 XA7      0.052700
     60 HAI1        5.5530    5.1540    3.7450 hc        1 XA7      0.046700
     61 HAI2        6.9750    5.1050    4.8590 hc        1 XA7      0.046700
     62 HAH1        5.5430    6.0000    6.7250 hc        1 XA7      0.043700
     63 HAH2        4.1220    6.0490    5.6120 hc        1 XA7      0.043700
     64 HAG1        5.3530    7.6470    4.1050 hc        1 XA7      0.041367
     65 HAG2        6.7780    7.5990    5.2210 hc        1 XA7      0.041367
     66 HAG3        5.2030    8.2870    5.7940 hc        1 XA7      0.041367
     67 HAA1        5.5080   -2.6490    3.3540 hc        1 XA7      0.063200
     68 HAA2        7.0410   -2.6990    4.3230 hc        1 XA7      0.063200
     69 HAB1        5.7620   -3.5850    6.2990 hc        1 XA7      0.052700
     70 HAB2        4.2330   -3.5350    5.3340 hc        1 XA7      0.052700
     71 HAC1        6.7760   -5.1530    4.6080 hc        1 XA7      0.046700
     72 HAC2        5.2480   -5.1030    3.6440 hc        1 XA7      0.046700
     73 HAD1        5.4990   -6.0470    6.5850 hc        1 XA7      0.043700
     74 HAD2        3.9720   -5.9970    5.6210 hc        1 XA7      0.043700
     75 HAE1        4.9610   -8.2850    5.6270 hc        1 XA7      0.041367
     76 HAE2        6.5010   -7.6460    4.9170 hc        1 XA7      0.041367
     77 HAE3        4.9700   -7.5960    3.9510 hc        1 XA7      0.041367
@<TRIPOS>BOND
     1    1    2 1   
     2    1   26 1   
     3    1   27 1   
     4    1   28 1   
     5    2    3 1   
     6    2   29 1   
     7    2   30 1   
     8    3    4 1   
     9    3   31 1   
    10    3   32 1   
    11    4    5 1   
    12    4   33 1   
    13    4   34 1   
    14    5    6 1   
    15    5   35 1   
    16    5   36 1   
    17    6    7 1   
    18    6   37 1   
    19    6   38 1   
    20    7    8 1   
    21    7   14 1   
    22    7   20 1   
    23    8    9 1   
    24    8   39 1   
    25    8   40 1   
    26    9   10 1   
    27    9   45 1   
    28    9   46 1   
    29   10   11 1   
    30   10   47 1   
    31   10   48 1   
    32   11   12 1   
    33   11   49 1   
    34   11   50 1   
    35   12   13 1   
    36   12   51 1   
    37   12   52 1   
    38   13   53 1   
    39   13   54 1   
    40   13   55 1   
    41   14   15 1   
    42   14   41 1   
    43   14   42 1   
    44   15   16 1   
    45   15   56 1   
    46   15   57 1   
    47   16   17 1   
    48   16   58 1   
    49   16   59 1   
    50   17   18 1   
    51   17   60 1   
    52   17   61 1   
    53   18   19 1   
    54   18   62 1   
    55   18   63 1   
    56   19   64 1   
    57   19   65 1   
    58   19   66 1   
    59   20   21 1   
    60   20   43 1   
    61   20   44 1   
    62   21   22 1   
    63   21   67 1   
    64   21   68 1   
    65   22   23 1   
    66   22   69 1   
    67   22   70 1   
    68   23   24 1   
    69   23   71 1   
    70   23   72 1   
    71   24   25 1   
    72   24   73 1   
    73   24   74 1   
    74   25   75 1   
    75   25   76 1   
    76   25   77 1   
@<TRIPOS>SUBSTRUCTURE
     1 XA7         1 TEMP              0 ****  ****    0 ROOT
