@<TRIPOS>MOLECULE
XA7
   77    76     1     0     0
SMALL
bcc


@<TRIPOS>ATOM
      1 CAS         0.5530    0.0000   -0.8600 c3        1 XA7     -0.096100
      2 CAR         2.0380   -0.0000   -0.6010 c3        1 XA7     -0.079400
      3 CAQ         2.3380    0.0010    0.8830 c3        1 XA7     -0.080400
      4 CAP         3.8310    0.0000    1.1360 c3        1 XA7     -0.080400
      5 CAO         4.1220    0.0010    2.6260 c3        1 XA7     -0.100400
      6 CAN         5.6310    0.0010    2.8350 c3        1 XA7      0.110800
      7 NAM         6.1020    0.0010    4.2680 n4        1 XA7     -0.603800
      8 CAT         7.6100    0.0010    4.2330 c3        1 XA7      0.110800
      9 CAU         8.3110    0.0010    5.5850 c3        1 XA7     -0.100400
     10 CAV         9.8120    0.0020    5.3610 c3        1 XA7     -0.080400
     11 CAW        10.5490    0.0020    6.6840 c3        1 XA7     -0.080400
     12 CAX        12.0480    0.0020    6.4710 c3        1 XA7     -0.079400
     13 CAY        12.7880    0.0020    7.7840 c3        1 XA7     -0.096100
     14 CAL         5.5830    1.2130    5.0010 c3        1 XA7      0.110800
     15 CAK         5.9870    2.5650    4.4300 c3        1 XA7     -0.100400
     16 CAJ         5.3810    3.6620    5.2860 c3        1 XA7     -0.080400
     17 CAI         5.7600    5.0280    4.7510 c3        1 XA7     -0.080400
     18 CAH         5.1600    6.1290    5.5990 c3        1 XA7     -0.079400
     19 CAG         5.5320    7.4910    5.0720 c3        1 XA7     -0.096100
     20 CAF         5.5840   -1.2110    5.0010 c3        1 XA7      0.110800
     21 CAA         5.9870   -2.5630    4.4300 c3        1 XA7     -0.100400
     22 CAB         5.3830   -3.6600    5.2870 c3        1 XA7     -0.080400
     23 CAC         5.7610   -5.0260    4.7520 c3        1 XA7     -0.080400
     24 CAD         5.1610   -6.1270    5.6010 c3        1 XA7     -0.079400
     25 CAE         5.5340   -7.4890    5.0740 c3        1 XA7     -0.096100
     26 HAS1        0.0740   -0.9050   -0.4140 hc        1 XA7      0.041367
     27 HAS2        0.0740    0.9060   -0.4150 hc        1 XA7      0.041367
     28 HAS3        0.3540   -0.0000   -1.9590 hc        1 XA7      0.041367
     29 HAR1        2.5040   -0.9040   -1.0770 hc        1 XA7      0.043700
     30 HAR2        2.5040    0.9020   -1.0780 hc        1 XA7      0.043700
     31 HAQ1        1.8730   -0.9020    1.3600 hc        1 XA7      0.046700
     32 HAQ2        1.8740    0.9040    1.3590 hc        1 XA7      0.046700
     33 HAP1        4.2930   -0.9040    0.6580 hc        1 XA7      0.052700
     34 HAP2        4.2930    0.9040    0.6580 hc        1 XA7      0.052700
     35 HAO1        3.6560   -0.9060    3.0920 hc        1 XA7      0.063700
     36 HAO2        3.6560    0.9090    3.0910 hc        1 XA7      0.063700
     37 HAN1        6.0710    0.9140    2.3380 hx        1 XA7      0.094700
     38 HAN2        6.0710   -0.9120    2.3390 hx        1 XA7      0.094700
     39 HAT1        7.9300    0.9140    3.6520 hx        1 XA7      0.094700
     40 HAT2        7.9300   -0.9120    3.6520 hx        1 XA7      0.094700
     41 HAL1        4.4570    1.1390    5.0130 hx        1 XA7      0.094700
     42 HAL2        5.9490    1.1390    6.0660 hx        1 XA7      0.094700
     43 HAF1        5.9490   -1.1370    6.0660 hx        1 XA7      0.094700
     44 HAF2        4.4580   -1.1370    5.0130 hx        1 XA7      0.094700
     45 HAU1        8.0270    0.9080    6.1800 hc        1 XA7      0.063700
     46 HAU2        8.0280   -0.9070    6.1790 hc        1 XA7      0.063700
     47 HAV1       10.1080   -0.9020    4.7660 hc        1 XA7      0.052700
     48 HAV2       10.1080    0.9060    4.7670 hc        1 XA7      0.052700
     49 HAW1       10.2550    0.9050    7.2810 hc        1 XA7      0.046700
     50 HAW2       10.2550   -0.9020    7.2810 hc        1 XA7      0.046700
     51 HAX1       12.3410    0.9060    5.8730 hc        1 XA7      0.043700
     52 HAX2       12.3420   -0.9000    5.8720 hc        1 XA7      0.043700
     53 HAY1       13.8900    0.0030    7.6040 hc        1 XA7      0.041367
     54 HAY2       12.5290   -0.9040    8.3840 hc        1 XA7      0.041367
     55 HAY3       12.5280    0.9070    8.3850 hc        1 XA7      0.041367
     56 HAK1        7.1030    2.6780    4.4230 hc        1 XA7      0.063700
     57 HAK2        5.6200    2.6770    3.3760 hc        1 XA7      0.063700
     58 HAJ1        5.7410    3.5610    6.3440 hc        1 XA7      0.052700
     59 HAJ2        4.2640    3.5610    5.3000 hc        1 XA7      0.052700
     60 HAI1        5.4010    5.1320    3.6930 hc        1 XA7      0.046700
     61 HAI2        6.8770    5.1320    4.7360 hc        1 XA7      0.046700
     62 HAH1        5.5170    6.0240    6.6580 hc        1 XA7      0.043700
     63 HAH2        4.0420    6.0240    5.6150 hc        1 XA7      0.043700
     64 HAG1        6.6410    7.6260    5.0720 hc        1 XA7      0.041367
     65 HAG2        5.1620    7.6260    4.0270 hc        1 XA7      0.041367
     66 HAG3        5.0800    8.2880    5.7110 hc        1 XA7      0.041367
     67 HAA1        7.1030   -2.6750    4.4230 hc        1 XA7      0.063700
     68 HAA2        5.6200   -2.6750    3.3760 hc        1 XA7      0.063700
     69 HAB1        5.7430   -3.5590    6.3450 hc        1 XA7      0.052700
     70 HAB2        4.2650   -3.5590    5.3020 hc        1 XA7      0.052700
     71 HAC1        6.8780   -5.1300    4.7360 hc        1 XA7      0.046700
     72 HAC2        5.4020   -5.1300    3.6940 hc        1 XA7      0.046700
     73 HAD1        5.5200   -6.0210    6.6590 hc        1 XA7      0.043700
     74 HAD2        4.0440   -6.0220    5.6170 hc        1 XA7      0.043700
     75 HAE1        6.6430   -7.6230    5.0730 hc        1 XA7      0.041367
     76 HAE2        5.0830   -8.2860    5.7130 hc        1 XA7      0.041367
     77 HAE3        5.1630   -7.6240    4.0290 hc        1 XA7      0.041367
@<TRIPOS>BOND
     1    1    2 1   
     2    1   26 1   
     3    1   27 1   
     4    1   28 1   
     5    2    3 1   
     6    2   29 1   
     7    2   30 1   
     8    3    4 1   
     9    3   31 1   
    10    3   32 1   
    11    4    5 1   
    12    4   33 1   
    13    4   34 1   
    14    5    6 1   
    15    5   35 1   
    16    5   36 1   
    17    6    7 1   
    18    6   37 1   
    19    6   38 1   
    20    7    8 1   
    21    7   14 1   
    22    7   20 1   
    23    8    9 1   
    24    8   39 1   
    25    8   40 1   
    26    9   10 1   
    27    9   45 1   
    28    9   46 1   
    29   10   11 1   
    30   10   47 1   
    31   10   48 1   
    32   11   12 1   
    33   11   49 1   
    34   11   50 1   
    35   12   13 1   
    36   12   51 1   
    37   12   52 1   
    38   13   53 1   
    39   13   54 1   
    40   13   55 1   
    41   14   15 1   
    42   14   41 1   
    43   14   42 1   
    44   15   16 1   
    45   15   56 1   
    46   15   57 1   
    47   16   17 1   
    48   16   58 1   
    49   16   59 1   
    50   17   18 1   
    51   17   60 1   
    52   17   61 1   
    53   18   19 1   
    54   18   62 1   
    55   18   63 1   
    56   19   64 1   
    57   19   65 1   
    58   19   66 1   
    59   20   21 1   
    60   20   43 1   
    61   20   44 1   
    62   21   22 1   
    63   21   67 1   
    64   21   68 1   
    65   22   23 1   
    66   22   69 1   
    67   22   70 1   
    68   23   24 1   
    69   23   71 1   
    70   23   72 1   
    71   24   25 1   
    72   24   73 1   
    73   24   74 1   
    74   25   75 1   
    75   25   76 1   
    76   25   77 1   
@<TRIPOS>SUBSTRUCTURE
     1 XA7         1 TEMP              0 ****  ****    0 ROOT
