@<TRIPOS>MOLECULE
XA7
   77    76     1     0     0
SMALL
bcc


@<TRIPOS>ATOM
      1 CAS         0.5530    0.1770   -0.8560 c3        1 XA7     -0.096100
      2 CAR         2.0360    0.0990   -0.5990 c3        1 XA7     -0.079400
      3 CAQ         2.3380    0.1260    0.8850 c3        1 XA7     -0.080400
      4 CAP         3.8290    0.0470    1.1370 c3        1 XA7     -0.080400
      5 CAO         4.1230    0.0750    2.6270 c3        1 XA7     -0.100400
      6 CAN         5.6290   -0.0000    2.8350 c3        1 XA7      0.110800
      7 NAM         6.1020    0.0010    4.2670 n4        1 XA7     -0.603800
      8 CAT         7.6100   -0.0000    4.2330 c3        1 XA7      0.110800
      9 CAU         8.3100   -0.0710    5.5830 c3        1 XA7     -0.100400
     10 CAV         9.8110   -0.0490    5.3610 c3        1 XA7     -0.080400
     11 CAW        10.5470   -0.1220    6.6830 c3        1 XA7     -0.080400
     12 CAX        12.0470   -0.1020    6.4710 c3        1 XA7     -0.079400
     13 CAY        12.7860   -0.1740    7.7820 c3        1 XA7     -0.096100
     14 CAL         5.5850    1.2140    5.0000 c3        1 XA7      0.110800
     15 CAK         5.9310    2.5640    4.3860 c3        1 XA7     -0.100400
     16 CAJ         5.3460    3.6630    5.2540 c3        1 XA7     -0.080400
     17 CAI         5.6650    5.0270    4.6760 c3        1 XA7     -0.080400
     18 CAH         5.0840    6.1300    5.5350 c3        1 XA7     -0.079400
     19 CAG         5.3980    7.4900    4.9650 c3        1 XA7     -0.096100
     20 CAF         5.5830   -1.2100    5.0020 c3        1 XA7      0.110800
     21 CAA         6.0450   -2.5620    4.4740 c3        1 XA7     -0.100400
     22 CAB         5.4200   -3.6590    5.3160 c3        1 XA7     -0.080400
     23 CAC         5.8590   -5.0240    4.8270 c3        1 XA7     -0.080400
     24 CAD         5.2390   -6.1250    5.6610 c3        1 XA7     -0.079400
     25 CAE         5.6720   -7.4860    5.1800 c3        1 XA7     -0.096100
     26 HAS1        0.0230   -0.6860   -0.3850 hc        1 XA7      0.041367
     27 HAS2        0.1280    1.1210   -0.4390 hc        1 XA7      0.041367
     28 HAS3        0.3520    0.1560   -1.9550 hc        1 XA7      0.041367
     29 HAR1        2.4480   -0.8430   -1.0480 hc        1 XA7      0.043700
     30 HAR2        2.5520    0.9590   -1.1010 hc        1 XA7      0.043700
     31 HAQ1        1.8230   -0.7350    1.3880 hc        1 XA7      0.046700
     32 HAQ2        1.9270    1.0680    1.3350 hc        1 XA7      0.046700
     33 HAP1        4.2370   -0.8960    0.6860 hc        1 XA7      0.052700
     34 HAP2        4.3410    0.9090    0.6330 hc        1 XA7      0.052700
     35 HAO1        3.6070   -0.7910    3.1180 hc        1 XA7      0.063200
     36 HAO2        3.7080    1.0200    3.0660 hc        1 XA7      0.063200
     37 HAN1        6.1140    0.8810    2.3240 hx        1 XA7      0.094700
     38 HAN2        6.0220   -0.9420    2.3540 hx        1 XA7      0.094700
     39 HAT1        7.9330    0.9390    3.6990 hx        1 XA7      0.094700
     40 HAT2        7.9280   -0.8850    3.6080 hx        1 XA7      0.094700
     41 HAL1        4.4620    1.1140    5.0580 hx        1 XA7      0.094700
     42 HAL2        5.9940    1.1700    6.0500 hx        1 XA7      0.094700
     43 HAF1        5.9020   -1.1080    6.0790 hx        1 XA7      0.094700
     44 HAF2        4.4560   -1.1660    4.9660 hx        1 XA7      0.094700
     45 HAU1        8.0220    0.7990    6.2300 hc        1 XA7      0.063200
     46 HAU2        8.0310   -1.0130    6.1260 hc        1 XA7      0.063200
     47 HAV1       10.1130   -0.9160    4.7150 hc        1 XA7      0.052700
     48 HAV2       10.1020    0.8900    4.8210 hc        1 XA7      0.052700
     49 HAW1       10.2480    0.7430    7.3310 hc        1 XA7      0.046700
     50 HAW2       10.2580   -1.0610    7.2260 hc        1 XA7      0.046700
     51 HAX1       12.3360    0.8360    5.9270 hc        1 XA7      0.043700
     52 HAX2       12.3460   -0.9670    5.8220 hc        1 XA7      0.043700
     53 HAY1       13.8890   -0.1580    7.6040 hc        1 XA7      0.041367
     54 HAY2       12.5320   -1.1150    8.3290 hc        1 XA7      0.041367
     55 HAY3       12.5220    0.6930    8.4340 hc        1 XA7      0.041367
     56 HAK1        7.0420    2.7010    4.3200 hc        1 XA7      0.063200
     57 HAK2        5.5090    2.6490    3.3500 hc        1 XA7      0.063200
     58 HAJ1        5.7620    3.5900    6.2930 hc        1 XA7      0.052700
     59 HAJ2        4.2330    3.5380    5.3280 hc        1 XA7      0.052700
     60 HAI1        5.2500    5.1030    3.6360 hc        1 XA7      0.046700
     61 HAI2        6.7770    5.1550    4.6010 hc        1 XA7      0.046700
     62 HAH1        5.4990    6.0530    6.5750 hc        1 XA7      0.043700
     63 HAH2        3.9720    6.0010    5.6110 hc        1 XA7      0.043700
     64 HAG1        6.5020    7.6490    4.9050 hc        1 XA7      0.041367
     65 HAG2        4.9710    7.5970    3.9390 hc        1 XA7      0.041367
     66 HAG3        4.9620    8.2880    5.6130 hc        1 XA7      0.041367
     67 HAA1        7.1630   -2.6480    4.5290 hc        1 XA7      0.063200
     68 HAA2        5.7400   -2.7010    3.4040 hc        1 XA7      0.063200
     69 HAB1        5.7180   -3.5320    6.3900 hc        1 XA7      0.052700
     70 HAB2        4.3010   -3.5850    5.2680 hc        1 XA7      0.052700
     71 HAC1        6.9770   -5.1010    4.8740 hc        1 XA7      0.046700
     72 HAC2        5.5610   -5.1540    3.7530 hc        1 XA7      0.046700
     73 HAD1        5.5360   -5.9930    6.7360 hc        1 XA7      0.043700
     74 HAD2        4.1200   -6.0470    5.6140 hc        1 XA7      0.043700
     75 HAE1        6.7820   -7.5940    5.2420 hc        1 XA7      0.041367
     76 HAE2        5.2050   -8.2830    5.8080 hc        1 XA7      0.041367
     77 HAE3        5.3630   -7.6470    4.1190 hc        1 XA7      0.041367
@<TRIPOS>BOND
     1    1    2 1   
     2    1   26 1   
     3    1   27 1   
     4    1   28 1   
     5    2    3 1   
     6    2   29 1   
     7    2   30 1   
     8    3    4 1   
     9    3   31 1   
    10    3   32 1   
    11    4    5 1   
    12    4   33 1   
    13    4   34 1   
    14    5    6 1   
    15    5   35 1   
    16    5   36 1   
    17    6    7 1   
    18    6   37 1   
    19    6   38 1   
    20    7    8 1   
    21    7   14 1   
    22    7   20 1   
    23    8    9 1   
    24    8   39 1   
    25    8   40 1   
    26    9   10 1   
    27    9   45 1   
    28    9   46 1   
    29   10   11 1   
    30   10   47 1   
    31   10   48 1   
    32   11   12 1   
    33   11   49 1   
    34   11   50 1   
    35   12   13 1   
    36   12   51 1   
    37   12   52 1   
    38   13   53 1   
    39   13   54 1   
    40   13   55 1   
    41   14   15 1   
    42   14   41 1   
    43   14   42 1   
    44   15   16 1   
    45   15   56 1   
    46   15   57 1   
    47   16   17 1   
    48   16   58 1   
    49   16   59 1   
    50   17   18 1   
    51   17   60 1   
    52   17   61 1   
    53   18   19 1   
    54   18   62 1   
    55   18   63 1   
    56   19   64 1   
    57   19   65 1   
    58   19   66 1   
    59   20   21 1   
    60   20   43 1   
    61   20   44 1   
    62   21   22 1   
    63   21   67 1   
    64   21   68 1   
    65   22   23 1   
    66   22   69 1   
    67   22   70 1   
    68   23   24 1   
    69   23   71 1   
    70   23   72 1   
    71   24   25 1   
    72   24   73 1   
    73   24   74 1   
    74   25   75 1   
    75   25   76 1   
    76   25   77 1   
@<TRIPOS>SUBSTRUCTURE
     1 XA7         1 TEMP              0 ****  ****    0 ROOT
