@<TRIPOS>MOLECULE
XAA
   21    21     1     0     0
SMALL
bcc


@<TRIPOS>ATOM
      1 C5          0.0270   -0.0590    0.0040 cc        1 XAA      0.348200
      2 N1          1.3820   -0.1620   -0.1710 nc        1 XAA     -0.634000
      3 C4         -0.3760    0.1080    1.3350 cd        1 XAA     -0.241400
      4 C2          1.9930   -0.0770    1.0340 cd        1 XAA      0.188700
      5 S3          0.9330    0.1250    2.3430 ss        1 XAA      0.117700
      6 C6          3.4790   -0.1160    1.1620 c3        1 XAA      0.088200
      7 N7          4.0360   -1.2720    0.3720 n4        1 XAA     -0.828600
      8 C8          4.1170    1.2230    0.6670 c3        1 XAA      0.139100
      9 C9          5.5300    1.3710    1.2000 c3        1 XAA     -0.120100
     10 O10         4.1890    1.2140   -0.7440 oh        1 XAA     -0.599800
     11 HC5        -0.6370   -0.1100   -0.8710 h4        1 XAA      0.076100
     12 HC4        -1.4150    0.2160    1.6550 h4        1 XAA      0.215000
     13 HC6         3.7650   -0.2760    2.2450 hx        1 XAA      0.111700
     14 HN71        3.4970   -2.1210    0.5510 hn        1 XAA      0.467800
     15 HN72        3.9730   -1.0320   -0.6310 hn        1 XAA      0.467800
     16 HC8         3.4660    2.0590    1.0460 h1        1 XAA      0.091700
     17 HC1         5.9380    2.3650    0.8830 hc        1 XAA      0.066700
     18 HC2         6.2040    0.5830    0.7890 hc        1 XAA      0.066700
     19 HC3         5.5300    1.3220    2.3150 hc        1 XAA      0.066700
     20 H10         3.3760    1.6040   -1.0930 ho        1 XAA      0.445000
     21 H73         5.0190   -1.4130    0.6160 hn        1 XAA      0.467800
@<TRIPOS>BOND
     1    1    2 1   
     2    1    3 2   
     3    1   11 1   
     4    2    4 2   
     5    3    5 1   
     6    3   12 1   
     7    4    5 1   
     8    4    6 1   
     9    6    7 1   
    10    6    8 1   
    11    6   13 1   
    12    7   14 1   
    13    7   15 1   
    14    7   21 1   
    15    8    9 1   
    16    8   10 1   
    17    8   16 1   
    18    9   17 1   
    19    9   18 1   
    20    9   19 1   
    21   10   20 1   
@<TRIPOS>SUBSTRUCTURE
     1 XAA         1 TEMP              0 ****  ****    0 ROOT
