@<TRIPOS>MOLECULE
XAA
   20    17     1     0     0
SMALL
bcc


@<TRIPOS>ATOM
      1 C5         -2.7830    0.2420   -2.0730 cg        1 XAA     -0.055200
      2 N1         -1.2200    0.1160   -2.0110 n1        1 XAA     -0.530600
      3 C4         -3.2620    0.5960   -0.7590 c1        1 XAA     -0.260900
      4 C2         -0.7970    0.3950   -0.6760 c1        1 XAA      0.264900
      5 S3         -2.0540    0.7060    0.1650 ss        1 XAA      0.115800
      6 C6          0.6340    0.4570   -0.1910 c2        1 XAA      0.302200
      7 N7          0.8350    1.6610    0.5400 nh        1 XAA     -0.491100
      8 C8          0.9150   -0.7280    0.7030 c3        1 XAA      0.029800
      9 C9          2.3080   -1.2480    0.4280 c3        1 XAA     -0.134100
     10 O10         0.8190   -0.3330    2.0510 oh        1 XAA     -0.607800
     11 HC5        -3.3370    0.1040   -2.8650 DU        1 XAA      0.178000
     12 HC4        -4.1940    0.7390   -0.5060 DU        1 XAA      0.178000
     13 HC6         1.2390    0.4360   -0.9590 h4        1 XAA     -0.008200
     14 HN71        0.4890    1.5670    1.3830 hn        1 XAA      0.206700
     15 HN72        1.7320    1.8380    0.5960 hn        1 XAA      0.206700
     16 HC8         0.2620   -1.4340    0.5230 h1        1 XAA      0.068700
     17 HC1         2.4180   -2.1260    0.8510 hc        1 XAA      0.043367
     18 HC2         2.9680   -0.6230    0.7940 hc        1 XAA      0.043367
     19 HC3         2.4400   -1.3330   -0.5400 hc        1 XAA      0.043367
     20 H10         0.5890   -1.0320    2.5490 ho        1 XAA      0.407000
@<TRIPOS>BOND
     1    1    2 1   
     2    1    3 3   
     3    2    4 3   
     4    3    5 1   
     5    4    5 1   
     6    6    7 2   
     7    6    8 1   
     8    6   13 1   
     9    7   14 1   
    10    7   15 1   
    11    8    9 1   
    12    8   10 1   
    13    8   16 1   
    14    9   17 1   
    15    9   18 1   
    16    9   19 1   
    17   10   20 1   
@<TRIPOS>SUBSTRUCTURE
     1 XAA         1 TEMP              0 ****  ****    0 ROOT
