@<TRIPOS>MOLECULE
XAA
   21    21     1     0     0
SMALL
bcc


@<TRIPOS>ATOM
      1 C5          0.0250   -0.0550    0.0110 cc        1 XAA      0.348200
      2 N1          1.3780   -0.1710   -0.1610 nc        1 XAA     -0.634000
      3 C4         -0.3770    0.1480    1.3380 cd        1 XAA     -0.241400
      4 C2          1.9900   -0.0610    1.0420 cd        1 XAA      0.188700
      5 S3          0.9310    0.1800    2.3450 ss        1 XAA      0.117700
      6 C6          3.4760   -0.1080    1.1720 c3        1 XAA      0.088200
      7 N7          4.0250   -1.2860    0.4110 n4        1 XAA     -0.828600
      8 C8          4.1230    1.2140    0.6440 c3        1 XAA      0.139100
      9 C9          5.5370    1.3660    1.1730 c3        1 XAA     -0.120100
     10 O10         4.1960    1.1700   -0.7670 oh        1 XAA     -0.599800
     11 HC5        -0.6400   -0.1220   -0.8620 h4        1 XAA      0.076100
     12 HC4        -1.4160    0.2710    1.6550 h4        1 XAA      0.215000
     13 HC6         3.7610   -0.2430    2.2580 hx        1 XAA      0.111700
     14 HN71        3.9630   -1.0710   -0.5980 hn        1 XAA      0.467800
     15 HN72        5.0060   -1.4280    0.6580 hn        1 XAA      0.467800
     16 HC8         3.4780    2.0640    1.0010 h1        1 XAA      0.091700
     17 HC1         6.2060    0.5630    0.7820 hc        1 XAA      0.066700
     18 HC2         5.5370    1.3450    2.2890 hc        1 XAA      0.066700
     19 HC3         5.9520    2.3480    0.8320 hc        1 XAA      0.066700
     20 H10         3.3850    1.5570   -1.1250 ho        1 XAA      0.445000
     21 H73         3.4800   -2.1270    0.6100 hn        1 XAA      0.467800
@<TRIPOS>BOND
     1    1    2 1   
     2    1    3 2   
     3    1   11 1   
     4    2    4 2   
     5    3    5 1   
     6    3   12 1   
     7    4    5 1   
     8    4    6 1   
     9    6    7 1   
    10    6    8 1   
    11    6   13 1   
    12    7   14 1   
    13    7   15 1   
    14    7   21 1   
    15    8    9 1   
    16    8   10 1   
    17    8   16 1   
    18    9   17 1   
    19    9   18 1   
    20    9   19 1   
    21   10   20 1   
@<TRIPOS>SUBSTRUCTURE
     1 XAA         1 TEMP              0 ****  ****    0 ROOT
