@<TRIPOS>MOLECULE
XAA
   21    21     1     0     0
SMALL
bcc


@<TRIPOS>ATOM
      1 C5          0.0310   -0.0520   -0.0150 cc        1 XAA      0.348200
      2 N1          1.3860   -0.1640   -0.1780 nc        1 XAA     -0.634000
      3 C4         -0.3810    0.1340    1.3110 cd        1 XAA     -0.241400
      4 C2          1.9890   -0.0680    1.0300 cd        1 XAA      0.188700
      5 S3          0.9200    0.1560    2.3290 ss        1 XAA      0.117700
      6 C6          3.4740   -0.1130    1.1700 c3        1 XAA      0.088200
      7 N7          4.0300   -1.2810    0.3980 nz        1 XAA     -0.828600
      8 C8          4.1230    1.2170    0.6640 c3        1 XAA      0.139100
      9 C9          5.5320    1.3640    1.2060 c3        1 XAA     -0.120100
     10 O10         4.2050    1.1910   -0.7470 oh        1 XAA     -0.599800
     11 HC5        -0.6270   -0.1090   -0.8940 h4        1 XAA      0.076100
     12 HC4        -1.4220    0.2510    1.6220 h4        1 XAA      0.215000
     13 HC6         3.7510   -0.2620    2.2560 hx        1 XAA      0.111700
     14 HN71        3.9760   -1.0520   -0.6090 hn        1 XAA      0.467800
     15 HN72        3.4850   -2.1250    0.5830 hn        1 XAA      0.467800
     16 HC8         3.4730    2.0610    1.0280 h1        1 XAA      0.091700
     17 HC1         5.5240    1.3280    2.3210 hc        1 XAA      0.066700
     18 HC2         6.2050    0.5680    0.8090 hc        1 XAA      0.066700
     19 HC3         5.9480    2.3510    0.8800 hc        1 XAA      0.066700
     20 H10         3.3960    1.5810   -1.1060 ho        1 XAA      0.445000
     21 H73         5.0110   -1.4240    0.6510 hn        1 XAA      0.467800
@<TRIPOS>BOND
     1    1    2 1   
     2    1    3 2   
     3    1   11 1   
     4    2    4 2   
     5    3    5 1   
     6    3   12 1   
     7    4    5 1   
     8    4    6 1   
     9    6    7 1   
    10    6    8 1   
    11    6   13 1   
    12    7   14 1   
    13    7   15 1   
    14    7   21 1   
    15    8    9 1   
    16    8   10 1   
    17    8   16 1   
    18    9   17 1   
    19    9   18 1   
    20    9   19 1   
    21   10   20 1   
@<TRIPOS>SUBSTRUCTURE
     1 XAA         1 TEMP              0 ****  ****    0 ROOT
