@<TRIPOS>MOLECULE
XAA
   20    20     1     0     0
SMALL
bcc


@<TRIPOS>ATOM
      1 C5          1.3230   -0.3510   -2.1430 cc        1 XAA      0.337200
      2 N1          1.1230   -0.6550   -0.8080 nc        1 XAA     -0.631000
      3 C4          0.2850    0.3390   -2.7540 cd        1 XAA     -0.253400
      4 C2         -0.0680   -0.1880   -0.4210 cd        1 XAA      0.391700
      5 S3         -0.9540    0.6060   -1.6640 ss        1 XAA     -0.082300
      6 C6         -0.6320   -0.3240    0.9660 c3        1 XAA      0.115200
      7 N7         -0.6090   -1.6960    1.4280 n3        1 XAA     -0.904800
      8 C8          0.0530    0.7250    1.8910 c3        1 XAA      0.105100
      9 C9         -0.4910    0.6410    3.3070 c3        1 XAA     -0.131100
     10 O10         1.4640    0.6370    1.8990 oh        1 XAA     -0.580800
     11 HC5         2.2610   -0.6630   -2.6170 h4        1 XAA      0.045100
     12 HC4         0.2670    0.6640   -3.7910 h4        1 XAA      0.182000
     13 HC6        -1.7270   -0.0280    0.9220 h1        1 XAA      0.069700
     14 HN71        0.2850   -2.1230    1.2890 hn        1 XAA      0.361800
     15 HN72       -0.8550   -1.7370    2.3980 hn        1 XAA      0.361800
     16 HC8        -0.1500    1.7510    1.4660 h1        1 XAA      0.077700
     17 HC1        -0.1890    1.5530    3.8760 hc        1 XAA      0.044700
     18 HC2        -1.6040    0.5740    3.2950 hc        1 XAA      0.044700
     19 HC3        -0.0760   -0.2470    3.8430 hc        1 XAA      0.044700
     20 H10         1.7060   -0.2930    1.9780 ho        1 XAA      0.402000
@<TRIPOS>BOND
     1    1    2 1   
     2    1    3 2   
     3    1   11 1   
     4    2    4 2   
     5    3    5 1   
     6    3   12 1   
     7    4    5 1   
     8    4    6 1   
     9    6    7 1   
    10    6    8 1   
    11    6   13 1   
    12    7   14 1   
    13    7   15 1   
    14    8    9 1   
    15    8   10 1   
    16    8   16 1   
    17    9   17 1   
    18    9   18 1   
    19    9   19 1   
    20   10   20 1   
@<TRIPOS>SUBSTRUCTURE
     1 XAA         1 TEMP              0 ****  ****    0 ROOT
