@<TRIPOS>MOLECULE
XAC
   59    58     1     0     0
SMALL
bcc


@<TRIPOS>ATOM
      1 C1         -0.3220   -0.5810    0.2850 c2        1 XAC      0.398000
      2 N1          1.3470   -0.0150    2.6230 n         1 XAC     -0.228000
      3 O1         -1.0150   -0.8400   -0.7150 o         1 XAC     -0.351000
      4 C2          1.9120   -0.2540    1.3420 c2        1 XAC      0.402000
      5 N2          1.0890   -0.5800    0.2320 n         1 XAC     -0.311000
      6 O2          3.1550   -0.2220    1.2080 o         1 XAC     -0.361000
      7 C3         -2.1290    0.1720    3.3840 c2        1 XAC      0.097000
      8 N3         -0.8390    0.3080    3.8420 n2        1 XAC     -0.166000
      9 C4         -0.0370    0.0310    2.7280 c2        1 XAC      0.087000
     10 N4         -2.1800   -0.1740    2.0290 na        1 XAC     -0.150000
     11 O4        -10.0590    0.5440    4.2030 o         1 XAC     -0.404000
     12 C5         -0.8600   -0.2670    1.5950 c2        1 XAC     -0.243000
     13 N5         -8.7540   -0.3960    5.8130 n         1 XAC     -0.420000
     14 C6          1.7520   -0.8440   -1.0350 c3        1 XAC     -0.022000
     15 N6        -12.4340   -0.4770    5.4540 n3        1 XAC     -0.319000
     16 C7          2.1590    0.4100   -1.8100 c3        1 XAC     -0.179000
     17 C8          2.1950    0.4160    3.7170 c3        1 XAC     -0.014000
     18 C9          2.3160    1.9310    3.8790 c3        1 XAC     -0.184000
     19 C10         3.2050    2.2490    5.0530 c3        1 XAC     -0.209000
     20 C11         2.8190    0.0180   -3.1060 c3        1 XAC     -0.209000
     21 C12        -6.0480    1.2860    5.5920 c2        1 XAC      0.102000
     22 C13        -5.3910    0.6420    6.5810 c2        1 XAC     -0.199000
     23 C14        -3.3190    0.7060    5.4720 c1        1 XAC      0.247000
     24 C15        -3.3190    0.3620    4.1900 c2        1 XAC     -0.433000
     25 C16        -6.4490    3.8620    5.5530 c1        1 XAC     -0.126000
     26 C17        -6.2770    2.6770    5.5540 c1        1 XAC     -0.185000
     27 C18        -7.7030    0.8610    3.9150 c3        1 XAC     -0.040000
     28 C19        -8.9160    0.3210    4.6640 c2        1 XAC      0.279000
     29 C20       -11.4810   -1.2200    7.5740 c2        1 XAC     -0.373000
     30 C21       -12.0550   -1.4420    6.3760 c2        1 XAC     -0.035000
     31 HN4        -2.9790   -0.3330    1.4710 hn        1 XAC      0.276000
     32 HN5        -7.8490   -0.5760    6.1700 hn        1 XAC      0.238500
     33 H6          1.0470   -1.4580   -1.6660 h1        1 XAC      0.115500
     34 H6A         2.6760   -1.4550   -0.8210 h1        1 XAC      0.115500
     35 HN6       -12.0120    0.4190    5.5870 hn        1 XAC      0.187000
     36 HN6A      -12.3580   -0.7730    4.5040 hn        1 XAC      0.187000
     37 H7          1.2560    1.0410   -2.0190 hc        1 XAC      0.092500
     38 H7A         2.8680    1.0190   -1.1890 hc        1 XAC      0.092500
     39 H8          2.7440    2.3810    2.9460 hc        1 XAC      0.093000
     40 H8A         3.2220   -0.0180    3.5410 h1        1 XAC      0.117500
     41 H9          1.7740   -0.0260    4.6650 h1        1 XAC      0.117500
     42 H9A         1.3010    2.3810    4.0390 hc        1 XAC      0.093000
     43 H10         4.2270    1.8240    4.9030 hc        1 XAC      0.076667
     44 H10A        2.7830    1.8270    5.9970 hc        1 XAC      0.076667
     45 H10B        3.2980    3.3560    5.1730 hc        1 XAC      0.076667
     46 H11         3.7330   -0.5950   -2.9160 hc        1 XAC      0.076333
     47 H11A        3.1200    0.9330   -3.6730 hc        1 XAC      0.076333
     48 H11B        2.1220   -0.5770   -3.7430 hc        1 XAC      0.076333
     49 H13        -4.9650    1.1880    7.4330 ha        1 XAC      0.151000
     50 H14        -5.2820   -0.4510    6.5870 ha        1 XAC      0.151000
     51 H16        -4.2960    0.2070    3.6800 ha        1 XAC      0.199000
     52 H17        -6.6040    4.9130    5.5510 ha        1 XAC      0.235000
     53 H18        -7.8160    1.9720    3.8060 h1        1 XAC      0.134500
     54 H18A       -7.6670    0.3730    2.9010 h1        1 XAC      0.134500
     55 H20        -9.5470   -0.7500    6.2980 hn        1 XAC      0.238500
     56 H20A      -11.1950   -0.2250    7.9320 ha        1 XAC      0.115500
     57 H21       -11.3230   -2.0390    8.2820 ha        1 XAC      0.115500
     58 H21A      -12.3410   -2.4740    6.0820 h4        1 XAC      0.128000
     59 O3         -6.4530    0.5150    4.4980 os        1 XAC     -0.240000
@<TRIPOS>BOND
     1    1    3 1   
     2    1    5 1   
     3    1   12 1   
     4    2    4 1   
     5    2    9 1   
     6    2   17 1   
     7    4    5 1   
     8    4    6 1   
     9    5   14 1   
    10    7    8 1   
    11    7   10 1   
    12    7   24 1   
    13    8    9 1   
    14    9   12 1   
    15   10   12 1   
    16   10   31 1   
    17   11   28 1   
    18   13   28 1   
    19   13   32 1   
    20   13   55 1   
    21   14   16 1   
    22   14   33 1   
    23   14   34 1   
    24   15   30 1   
    25   15   35 1   
    26   15   36 1   
    27   16   20 1   
    28   16   37 1   
    29   16   38 1   
    30   17   18 1   
    31   17   40 1   
    32   17   41 1   
    33   18   19 1   
    34   18   39 1   
    35   18   42 1   
    36   19   43 1   
    37   19   44 1   
    38   19   45 1   
    39   20   46 1   
    40   20   47 1   
    41   20   48 1   
    42   21   22 1   
    43   21   26 1   
    44   21   59 1   
    45   22   49 1   
    46   22   50 1   
    47   23   24 1   
    48   24   51 1   
    49   25   26 1   
    50   25   52 1   
    51   27   28 1   
    52   27   53 1   
    53   27   54 1   
    54   27   59 1   
    55   29   30 1   
    56   29   56 1   
    57   29   57 1   
    58   30   58 1   
@<TRIPOS>SUBSTRUCTURE
     1 XAC         1 TEMP              0 ****  ****    0 ROOT
