@<TRIPOS>MOLECULE
XAC
   59    61     1     0     0
SMALL
bcc


@<TRIPOS>ATOM
      1 C1          4.1880   -1.7960    0.4680 c         1 XAC      0.760100
      2 N1          4.0710    1.1190    0.2330 n         1 XAC     -0.413300
      3 O1          4.2560   -3.0330    0.5870 o         1 XAC     -0.624500
      4 C2          5.3060    0.4170    0.2180 c         1 XAC      0.812500
      5 N2          5.3450   -0.9930    0.3870 n         1 XAC     -0.482400
      6 O2          6.3720    1.0600    0.1020 o         1 XAC     -0.635500
      7 C3          0.8230   -0.3430    0.3520 cc        1 XAC      0.519000
      8 N3          1.5660    0.8070    0.2330 nd        1 XAC     -0.682000
      9 C4          2.8980    0.3770    0.2730 cd        1 XAC      0.489200
     10 N4          1.6260   -1.4840    0.4600 na        1 XAC     -0.259900
     11 O4         -7.7480   -2.2340    0.8270 o         1 XAC     -0.599100
     12 C5          2.9460   -1.0480    0.4100 cc        1 XAC     -0.350200
     13 N5         -7.4980    0.0550    0.7280 n         1 XAC     -0.539900
     14 C6          6.6540   -1.6270    0.3940 c3        1 XAC      0.094000
     15 N6        -10.5490    0.8580   -1.3160 n3        1 XAC     -0.913800
     16 C7          7.2510   -1.8600   -0.9940 c3        1 XAC     -0.100400
     17 C8          4.0470    2.5430   -0.0390 c3        1 XAC      0.102000
     18 C9          3.8420    2.9150   -1.5070 c3        1 XAC     -0.104400
     19 C10         3.8190    4.4140   -1.6560 c3        1 XAC     -0.092100
     20 C11         8.5930   -2.5340   -0.8670 c3        1 XAC     -0.091100
     21 C12        -3.4250   -0.4810    0.3660 ca        1 XAC      0.145100
     22 C13        -2.7590    0.5160   -0.3730 ca        1 XAC     -0.182000
     23 C14        -1.3710    0.5510   -0.3690 ca        1 XAC     -0.063500
     24 C15        -0.6390   -0.4000    0.3600 ca        1 XAC     -0.175500
     25 C16        -1.3130   -1.3810    1.0960 ca        1 XAC     -0.063500
     26 C17        -2.7050   -1.4290    1.1020 ca        1 XAC     -0.182000
     27 C18        -5.5070   -1.4320    1.0240 c3        1 XAC      0.049400
     28 C19        -7.0090   -1.2310    0.8150 c         1 XAC      0.652100
     29 C20        -8.8790    0.3220    0.4330 c3        1 XAC      0.078000
     30 C21        -9.1710    0.5050   -1.0760 c3        1 XAC      0.130800
     31 HN4         1.3360   -2.4250    0.5420 hn        1 XAC      0.325700
     32 HN5        -6.8470    0.7820    0.5330 hn        1 XAC      0.318500
     33 H6          7.3530   -0.9690    0.9860 h1        1 XAC      0.076700
     34 H6A         6.5480   -2.6170    0.9250 h1        1 XAC      0.076700
     35 HN6       -10.7220    0.9230   -2.2990 hn        1 XAC      0.353300
     36 HN6A      -11.1680    0.1810   -0.9160 hn        1 XAC      0.353300
     37 H7          6.5620   -2.4990   -1.6050 hc        1 XAC      0.053200
     38 H7A         7.3660   -0.8770   -1.5220 hc        1 XAC      0.053200
     39 H8          3.2160    2.9900    0.5770 h1        1 XAC      0.078200
     40 H8A         5.0300    2.9720    0.3160 h1        1 XAC      0.078200
     41 H9          4.6720    2.4850   -2.1270 hc        1 XAC      0.053200
     42 H9A         2.8780    2.4800   -1.8820 hc        1 XAC      0.053200
     43 H10         3.6720    4.6890   -2.7280 hc        1 XAC      0.037367
     44 H10A        2.9850    4.8580   -1.0600 hc        1 XAC      0.037367
     45 H10B        4.7800    4.8620   -1.3050 hc        1 XAC      0.037367
     46 H11         9.0320   -2.7030   -1.8790 hc        1 XAC      0.037367
     47 H11A        9.2990   -1.9010   -0.2770 hc        1 XAC      0.037367
     48 H11B        8.4940   -3.5220   -0.3550 hc        1 XAC      0.037367
     49 H13        -3.3440    1.2520   -0.9420 ha        1 XAC      0.151500
     50 H14        -0.8450    1.3320   -0.9420 ha        1 XAC      0.149500
     51 H16        -0.7550   -2.1190    1.6930 ha        1 XAC      0.149500
     52 H17        -3.2160   -2.2080    1.6860 ha        1 XAC      0.151500
     53 H18        -5.2260   -2.4490    0.6430 h1        1 XAC      0.075700
     54 H18A       -5.2770   -1.3440    2.1190 h1        1 XAC      0.075700
     55 H20        -9.5010   -0.5300    0.8310 h1        1 XAC      0.071700
     56 H20A       -9.1660    1.2640    0.9830 h1        1 XAC      0.071700
     57 H21        -8.8600   -0.4400   -1.6130 h1        1 XAC      0.031200
     58 H21A       -8.5340    1.3430   -1.4780 h1        1 XAC      0.031200
     59 O3         -4.8030   -0.4240    0.2930 os        1 XAC     -0.335900
@<TRIPOS>BOND
     1    1    3 2   
     2    1    5 1   
     3    1   12 1   
     4    2    4 1   
     5    2    9 1   
     6    2   17 1   
     7    4    5 1   
     8    4    6 2   
     9    5   14 1   
    10    7    8 2   
    11    7   10 1   
    12    7   24 1   
    13    8    9 1   
    14    9   12 2   
    15   10   12 1   
    16   10   31 1   
    17   11   28 2   
    18   13   28 1   
    19   13   29 1   
    20   13   32 1   
    21   14   16 1   
    22   14   33 1   
    23   14   34 1   
    24   15   30 1   
    25   15   35 1   
    26   15   36 1   
    27   16   20 1   
    28   16   37 1   
    29   16   38 1   
    30   17   18 1   
    31   17   39 1   
    32   17   40 1   
    33   18   19 1   
    34   18   41 1   
    35   18   42 1   
    36   19   43 1   
    37   19   44 1   
    38   19   45 1   
    39   20   46 1   
    40   20   47 1   
    41   20   48 1   
    42   21   22 ar  
    43   21   26 ar  
    44   21   59 1   
    45   22   23 ar  
    46   22   49 1   
    47   23   24 ar  
    48   23   50 1   
    49   24   25 ar  
    50   25   26 ar  
    51   25   51 1   
    52   26   52 1   
    53   27   28 1   
    54   27   53 1   
    55   27   54 1   
    56   27   59 1   
    57   29   30 1   
    58   29   55 1   
    59   29   56 1   
    60   30   57 1   
    61   30   58 1   
@<TRIPOS>SUBSTRUCTURE
     1 XAC         1 TEMP              0 ****  ****    0 ROOT
