@<TRIPOS>MOLECULE
XAD
   37    35     1     0     0
SMALL
bcc


@<TRIPOS>ATOM
      1 OP3        -5.7310    2.2890    2.8450 o         1 XAD     -0.922500
      2 P          -4.1280    2.4110    2.7840 p5        1 XAD      1.541500
      3 OP1        -3.6120    2.5770    4.1140 o         1 XAD     -0.922500
      4 OP2        -3.7430    3.6040    1.9430 o         1 XAD     -0.922500
      5 O6'        -3.5410    1.1280    2.1570 os        1 XAD     -0.723000
      6 C6'        -2.0890    0.9530    2.1770 c3        1 XAD      0.093000
      7 C5'        -1.6910   -0.1010    1.1500 c3        1 XAD     -0.069000
      8 C4'        -1.5590   -1.4240    1.8370 c3        1 XAD      0.035000
      9 O4'        -2.9090   -1.8530    2.2890 oh        1 XAD     -0.374000
     10 C3'        -0.9960   -2.4640    0.9630 c3        1 XAD     -0.173000
     11 C2'         0.2440   -2.0470    0.3360 c3        1 XAD     -0.190000
     12 C1'         0.1100   -0.6490   -0.3790 c3        1 XAD      0.166000
     13 O5'        -0.4180    0.3340    0.4780 os        1 XAD     -0.294000
     14 N9          1.3510   -0.2320   -0.8180 n3        1 XAD     -0.155000
     15 C8          1.9400    0.7300   -0.0410 c1        1 XAD      0.007000
     16 N7          2.8990    1.3370   -0.7800 n2        1 XAD     -0.171000
     17 C5          2.9120    0.7560   -2.0210 c1        1 XAD     -0.214000
     18 C4          1.9580   -0.2110   -2.0440 c1        1 XAD      0.045000
     19 C6          3.7140    0.9750   -3.1530 c1        1 XAD      0.178000
     20 N6          4.6180    2.0460   -3.3580 n2        1 XAD     -0.327000
     21 N1          3.5360    0.2250   -4.2610 n2        1 XAD     -0.275000
     22 C2          2.5540   -0.7710   -4.2850 c1        1 XAD     -0.016000
     23 N3          1.7780   -0.9850   -3.1970 n1        1 XAD     -0.178000
     24 H6'1       -1.6770    1.7490    1.9660 h1        1 XAD      0.044500
     25 H6'2       -1.7970    0.6520    3.1010 h1        1 XAD      0.044500
     26 H5'        -2.3850   -0.1640    0.4920 h1        1 XAD      0.166000
     27 H4'        -1.0320   -1.3260    2.5450 h1        1 XAD      0.056000
     28 H4T'       -2.8250   -2.4690    2.9900 ho        1 XAD      0.280000
     29 H3'1       -1.6300   -2.6790    0.2810 hc        1 XAD      0.081500
     30 H3'2       -0.8360   -3.2170    1.4660 hc        1 XAD      0.081500
     31 H2'1        0.9950   -1.9790    1.0870 hc        1 XAD      0.084500
     32 H2'2        0.5260   -2.7500   -0.3460 hc        1 XAD      0.084500
     33 H1'        -0.5370   -0.7520   -1.2240 h2        1 XAD      0.116000
     34 H8          1.7030    0.9490    0.9150 DU        1 XAD      0.244000
     35 HN61        5.1540    2.0720   -4.1410 hn        1 XAD      0.204000
     36 HN62        4.7190    2.5870   -2.7970 hn        1 XAD      0.204000
     37 H2          2.4270   -1.2980   -5.0700 ha        1 XAD      0.170000
@<TRIPOS>BOND
     1    1    2 1   
     2    2    3 1   
     3    2    4 1   
     4    2    5 1   
     5    5    6 1   
     6    6    7 1   
     7    6   24 1   
     8    6   25 1   
     9    7    8 1   
    10    7   13 1   
    11    7   26 1   
    12    8    9 1   
    13    8   10 1   
    14    8   27 1   
    15    9   28 1   
    16   10   11 1   
    17   10   29 1   
    18   10   30 1   
    19   11   12 1   
    20   11   31 1   
    21   11   32 1   
    22   12   13 1   
    23   12   14 1   
    24   12   33 1   
    25   14   15 1   
    26   14   18 1   
    27   15   16 1   
    28   16   17 1   
    29   17   19 1   
    30   18   23 1   
    31   19   21 1   
    32   20   35 1   
    33   20   36 1   
    34   21   22 1   
    35   22   37 1   
@<TRIPOS>SUBSTRUCTURE
     1 XAD         1 TEMP              0 ****  ****    0 ROOT
