@<TRIPOS>MOLECULE
XAD
   37    39     1     0     0
SMALL
bcc


@<TRIPOS>ATOM
      1 OP3        -5.4880   -0.1390    0.9300 o         1 XAD     -0.914500
      2 P          -4.9260    0.0720   -0.4450 p5        1 XAD      1.325900
      3 OP1        -4.4070   -1.1940   -1.1010 o         1 XAD     -0.914500
      4 OP2        -5.5830    1.0760   -1.3370 o         1 XAD     -0.914500
      5 O6'        -3.3780    0.7890   -0.0750 os        1 XAD     -0.557200
      6 C6'        -2.6510    0.0700    0.8310 c3        1 XAD      0.233400
      7 C5'        -1.5570   -0.7810    0.1250 c3        1 XAD      0.062100
      8 C4'        -1.5890   -2.2520    0.5600 c3        1 XAD      0.162100
      9 O4'        -2.7540   -2.9280    0.1800 oh        1 XAD     -0.687800
     10 C3'        -0.3870   -2.9940   -0.0440 c3        1 XAD     -0.107400
     11 C2'         0.9090   -2.3000    0.3130 c3        1 XAD     -0.110400
     12 C1'         0.8110   -0.8280   -0.1290 c3        1 XAD      0.257800
     13 O5'        -0.2930   -0.1940    0.5120 os        1 XAD     -0.445600
     14 N9          1.9830   -0.0330    0.2220 na        1 XAD     -0.236000
     15 C8          2.0070    1.0680    1.1030 cc        1 XAD      0.457700
     16 N7          3.2240    1.6320    1.2340 nd        1 XAD     -0.599100
     17 C5          4.0610    0.8800    0.4010 ca        1 XAD     -0.207200
     18 C4          3.2880   -0.1830   -0.2530 ca        1 XAD      0.436800
     19 C6          5.4520    0.9690    0.0830 ca        1 XAD      0.700200
     20 N6          6.2550    1.8990    0.7430 nh        1 XAD     -0.930500
     21 N1          5.9890    0.0950   -0.8240 nb        1 XAD     -0.801000
     22 C2          5.1540   -0.8470   -1.3520 ca        1 XAD      0.646900
     23 N3          3.8410   -1.0660   -1.1420 nb        1 XAD     -0.702000
     24 H6'1       -3.3120   -0.6300    1.4210 h1        1 XAD      0.014200
     25 H6'2       -2.1230    0.7710    1.5420 h1        1 XAD      0.014200
     26 H5'        -1.6740   -0.7040   -0.9900 h1        1 XAD      0.085700
     27 H4'        -1.5090   -2.3040    1.6860 h1        1 XAD      0.009700
     28 H4T'       -3.4140   -2.2770   -0.2300 ho        1 XAD      0.525000
     29 H3'1       -0.5120   -3.0400   -1.1560 hc        1 XAD      0.041200
     30 H3'2       -0.3710   -4.0460    0.3380 hc        1 XAD      0.041200
     31 H2'1        1.7740   -2.7940   -0.1960 hc        1 XAD      0.041700
     32 H2'2        1.0730   -2.3520    1.4200 hc        1 XAD      0.041700
     33 H1'         0.6900   -0.7740   -1.2540 h2        1 XAD      0.067700
     34 H8          1.0760    1.3970    1.5940 h5        1 XAD      0.110800
     35 HN61        7.1100    2.1400    0.2970 hn        1 XAD      0.408800
     36 HN62        5.7560    2.6620    1.1410 hn        1 XAD      0.408800
     37 H2          5.6400   -1.5370   -2.0730 h5        1 XAD      0.034100
@<TRIPOS>BOND
     1    1    2 1   
     2    2    3 1   
     3    2    4 1   
     4    2    5 1   
     5    5    6 1   
     6    6    7 1   
     7    6   24 1   
     8    6   25 1   
     9    7    8 1   
    10    7   13 1   
    11    7   26 1   
    12    8    9 1   
    13    8   10 1   
    14    8   27 1   
    15    9   28 1   
    16   10   11 1   
    17   10   29 1   
    18   10   30 1   
    19   11   12 1   
    20   11   31 1   
    21   11   32 1   
    22   12   13 1   
    23   12   14 1   
    24   12   33 1   
    25   14   15 1   
    26   14   18 1   
    27   15   16 2   
    28   15   34 1   
    29   16   17 1   
    30   17   18 ar  
    31   17   19 ar  
    32   18   23 ar  
    33   19   20 1   
    34   19   21 ar  
    35   20   35 1   
    36   20   36 1   
    37   21   22 ar  
    38   22   23 ar  
    39   22   37 1   
@<TRIPOS>SUBSTRUCTURE
     1 XAD         1 TEMP              0 ****  ****    0 ROOT
