@<TRIPOS>MOLECULE
XAH
   59    61     1     0     0
SMALL
bcc


@<TRIPOS>ATOM
      1 N1          9.6090    0.6270   -1.3870 n3        1 XAH     -0.906800
      2 C2          8.7020   -0.3790   -0.8930 c3        1 XAH      0.146800
      3 C3          7.2600    0.0670   -0.6510 c3        1 XAH     -0.124400
      4 C4          6.4290   -1.0790   -0.1160 c3        1 XAH     -0.067400
      5 C5          4.9950   -0.6470    0.0980 c3        1 XAH     -0.080400
      6 C6          4.1670   -1.7330    0.8000 c3        1 XAH      0.087500
      7 N7          4.0820   -2.9650    0.0390 n3        1 XAH     -0.887800
      8 C8          2.7810   -1.1100    1.1170 c         1 XAH      0.561100
      9 O9          1.7900   -1.4090    0.4250 o         1 XAH     -0.608100
     10 N10         2.7180   -0.3360    2.3040 n         1 XAH     -0.275400
     11 O11         1.6050    0.3320    2.4980 os        1 XAH     -0.404500
     12 P12         1.6500    2.0260    2.4000 p5        1 XAH      1.393800
     13 O13         0.3820    2.5010    2.9710 o         1 XAH     -0.797000
     14 O14         3.0480    2.3840    2.6940 o         1 XAH     -0.797000
     15 O15         1.4710    2.0670    0.7590 os        1 XAH     -0.567200
     16 C16         0.3560    1.4000    0.2580 c3        1 XAH      0.171400
     17 C17        -0.5310    2.3500   -0.5530 c3        1 XAH      0.071100
     18 O18        -1.2860    1.5610   -1.4990 os        1 XAH     -0.415600
     19 C19        -1.5450    3.1350    0.3030 c3        1 XAH      0.117100
     20 O20        -1.6690    4.4700   -0.1290 oh        1 XAH     -0.572800
     21 C21        -2.8640    2.3390    0.1580 c3        1 XAH      0.073100
     22 O22        -3.8940    3.2320   -0.2100 oh        1 XAH     -0.590800
     23 C23        -2.6110    1.3420   -1.0250 c3        1 XAH      0.216800
     24 N24        -2.8290   -0.0490   -0.6800 na        1 XAH     -0.280000
     25 C25        -1.8990   -1.0840   -0.4140 cc        1 XAH      0.453700
     26 N26        -2.4760   -2.2770   -0.2000 nd        1 XAH     -0.563100
     27 C27        -3.8540   -2.0490   -0.3200 ca        1 XAH     -0.210200
     28 C28        -4.0990   -0.6420   -0.6230 ca        1 XAH      0.434800
     29 N29        -5.3490   -0.1070   -0.7780 nb        1 XAH     -0.741000
     30 C30        -6.3290   -1.0250   -0.6200 ca        1 XAH      0.667900
     31 N31        -6.2530   -2.3540   -0.3360 nb        1 XAH     -0.798000
     32 C32        -5.0000   -2.8990   -0.1930 ca        1 XAH      0.732200
     33 N33        -4.8330   -4.2550    0.0160 nh        1 XAH     -0.942500
     34 HN1         9.2810    0.9990   -2.2580 hn        1 XAH      0.340800
     35 HN1A        9.6850    1.3830   -0.7340 hn        1 XAH      0.340800
     36 H2          8.6970   -1.2290   -1.6340 h1        1 XAH      0.048200
     37 H2A         9.1230   -0.7770    0.0730 h1        1 XAH      0.048200
     38 H3          7.2390    0.9180    0.0790 hc        1 XAH      0.042700
     39 H3A         6.8100    0.4400   -1.6090 hc        1 XAH      0.042700
     40 H4          6.4670   -1.9410   -0.8320 hc        1 XAH      0.045200
     41 H4A         6.8630   -1.4370    0.8550 hc        1 XAH      0.045200
     42 H5          4.9760    0.2800    0.7300 hc        1 XAH      0.058700
     43 H5A         4.5240   -0.3880   -0.8870 hc        1 XAH      0.058700
     44 H6          4.6760   -1.9980    1.7750 h1        1 XAH      0.076700
     45 HN7         3.4390   -3.5880    0.4920 hn        1 XAH      0.350800
     46 HN7A        3.7260   -2.7720   -0.8800 hn        1 XAH      0.350800
     47 HN10        3.5400    0.2670    2.4120 hn        1 XAH      0.290500
     48 H16         0.7200    0.5850   -0.4370 h1        1 XAH      0.048200
     49 H16A       -0.2400    0.9360    1.0930 h1        1 XAH      0.048200
     50 H17         0.0960    3.0380   -1.1790 h1        1 XAH      0.097700
     51 H19        -1.2200    3.2070    1.3820 h1        1 XAH      0.163700
     52 HO20       -2.1150    4.4590   -0.9860 ho        1 XAH      0.399000
     53 H21        -3.1120    1.8140    1.1160 h1        1 XAH      0.081700
     54 HO22       -4.7190    2.7290   -0.1750 ho        1 XAH      0.417000
     55 H23        -3.2950    1.5840   -1.8970 h2        1 XAH      0.092700
     56 H25        -0.8120   -0.8850   -0.3800 h5        1 XAH      0.116800
     57 H30        -7.3640   -0.6380   -0.7320 h5        1 XAH      0.040100
     58 HN33       -3.9380   -4.5440    0.3330 hn        1 XAH      0.429300
     59 HN3A       -5.6150   -4.7860    0.3160 hn        1 XAH      0.429300
@<TRIPOS>BOND
     1    1    2 1   
     2    1   34 1   
     3    1   35 1   
     4    2    3 1   
     5    2   36 1   
     6    2   37 1   
     7    3    4 1   
     8    3   38 1   
     9    3   39 1   
    10    4    5 1   
    11    4   40 1   
    12    4   41 1   
    13    5    6 1   
    14    5   42 1   
    15    5   43 1   
    16    6    7 1   
    17    6    8 1   
    18    6   44 1   
    19    7   45 1   
    20    7   46 1   
    21    8    9 2   
    22    8   10 1   
    23   10   11 1   
    24   10   47 1   
    25   11   12 1   
    26   12   13 1   
    27   12   14 1   
    28   12   15 1   
    29   15   16 1   
    30   16   17 1   
    31   16   48 1   
    32   16   49 1   
    33   17   18 1   
    34   17   19 1   
    35   17   50 1   
    36   18   23 1   
    37   19   20 1   
    38   19   21 1   
    39   19   51 1   
    40   20   52 1   
    41   21   22 1   
    42   21   23 1   
    43   21   53 1   
    44   22   54 1   
    45   23   24 1   
    46   23   55 1   
    47   24   25 1   
    48   24   28 1   
    49   25   26 2   
    50   25   56 1   
    51   26   27 1   
    52   27   28 ar  
    53   27   32 ar  
    54   28   29 ar  
    55   29   30 ar  
    56   30   31 ar  
    57   30   57 1   
    58   31   32 ar  
    59   32   33 1   
    60   33   58 1   
    61   33   59 1   
@<TRIPOS>SUBSTRUCTURE
     1 XAH         1 TEMP              0 ****  ****    0 ROOT
