@<TRIPOS>MOLECULE
XAH
   62    64     1     0     0
SMALL
bcc


@<TRIPOS>ATOM
      1 N1          2.8100    1.5150    3.1260 n4        1 XAH     -0.838600
      2 C2          4.2210    1.4290    2.6590 c3        1 XAH      0.122800
      3 C3          5.0220    0.3560    3.3940 c3        1 XAH     -0.110400
      4 C4          6.5120    0.5580    3.1720 c3        1 XAH     -0.083400
      5 C5          7.3380   -0.0060    4.3180 c3        1 XAH     -0.101400
      6 C6          7.8310    1.0920    5.2790 c3        1 XAH      0.054500
      7 N7          9.2480    1.4960    5.0410 n4        1 XAH     -0.864600
      8 C8          7.6700    0.5920    6.7180 c         1 XAH      0.520100
      9 O9          8.3560   -0.2610    7.2580 o         1 XAH     -0.389100
     10 N10         6.5550    1.2100    7.5390 n4        1 XAH     -0.349300
     11 O11         5.4720    1.3990    6.8090 os        1 XAH     -0.368700
     12 P12         5.0210    3.0560    6.3910 p5        1 XAH      1.492800
     13 O13         6.4080    3.5430    6.2580 o         1 XAH     -0.825000
     14 O14         4.0900    2.7530    5.3020 o         1 XAH     -0.825000
     15 O15         4.4390    3.4800    7.8140 os        1 XAH     -0.574200
     16 C16         5.0120    4.5810    8.4870 c3        1 XAH      0.154400
     17 C17         5.5730    4.1570    9.8450 c3        1 XAH      0.084100
     18 O18         6.6280    3.1930    9.6810 os        1 XAH     -0.497600
     19 C19         6.1350    5.3800   10.5990 c3        1 XAH      0.094100
     20 O20         5.4430    5.6220   11.7950 oh        1 XAH     -0.559800
     21 C21         7.6300    5.0730   10.8440 c3        1 XAH      0.087100
     22 O22         7.8850    4.9660   12.2290 oh        1 XAH     -0.580800
     23 C23         7.8640    3.6420   10.2780 c3        1 XAH      0.242800
     24 N24         8.9040    3.5280    9.2800 na        1 XAH     -0.281000
     25 C25         8.7960    3.8640    7.9100 cc        1 XAH      0.459700
     26 N26         9.7390    3.2930    7.1450 nd        1 XAH     -0.657100
     27 C27        10.5250    2.5250    8.0180 ca        1 XAH     -0.240200
     28 C28        10.0070    2.6450    9.3770 ca        1 XAH      0.457800
     29 N29        10.5440    1.9930   10.4430 nb        1 XAH     -0.673000
     30 C30        11.6210    1.2350   10.1130 ca        1 XAH      0.701900
     31 N31        12.2040    1.0460    8.8940 nb        1 XAH     -0.715000
     32 C32        11.6670    1.6900    7.8190 ca        1 XAH      0.681200
     33 N33        12.1290    1.4870    6.5010 nh        1 XAH     -0.936500
     34 HN1         2.7950    1.7970    4.1260 hn        1 XAH      0.473800
     35 HN1A        2.3360    0.6160    3.0210 hn        1 XAH      0.473800
     36 H2          4.6790    2.4450    2.8470 hx        1 XAH      0.108700
     37 H2A         4.2150    1.2190    1.5510 hx        1 XAH      0.108700
     38 H3          4.7900    0.3920    4.4930 hc        1 XAH      0.080200
     39 H3A         4.7260   -0.6620    3.0250 hc        1 XAH      0.080200
     40 H4          6.8110    0.0350    2.2220 hc        1 XAH      0.072200
     41 H4A         6.7430    1.6470    3.0260 hc        1 XAH      0.072200
     42 H5          8.2080   -0.5870    3.9050 hc        1 XAH      0.095700
     43 H5A         6.7210   -0.7450    4.9010 hc        1 XAH      0.095700
     44 H6          7.1990    2.0440    5.1450 hx        1 XAH      0.185700
     45 HN7         9.4730    2.3670    5.6080 hn        1 XAH      0.488467
     46 HN7A        9.3730    1.7000    4.0460 hn        1 XAH      0.488467
     47 HN10        6.3250    0.5750    8.3370 hn        1 XAH      0.492300
     48 H16         4.1790    5.3180    8.6820 h1        1 XAH      0.077700
     49 H16A        5.8120    5.0460    7.8480 h1        1 XAH      0.077700
     50 H17         4.7750    3.6310   10.4420 h1        1 XAH      0.116700
     51 H19         6.0050    6.3270   10.0050 h1        1 XAH      0.107700
     52 HO20        5.6450    4.9070   12.4200 ho        1 XAH      0.431000
     53 H21         8.2910    5.8440   10.3700 h1        1 XAH      0.088700
     54 HO22        7.8710    5.8630   12.5960 ho        1 XAH      0.448000
     55 H23         8.0970    2.9260   11.1290 h2        1 XAH      0.152700
     56 H25         8.0080    4.5390    7.5260 h5        1 XAH      0.121800
     57 H30        12.1070    0.6930   10.9600 h5        1 XAH      0.095100
     58 HN33       12.3270    2.3630    6.0530 hn        1 XAH      0.414800
     59 HN3A       12.9210    0.8710    6.4470 hn        1 XAH      0.414800
     60 H13         2.3120    2.2260    2.5820 hn        1 XAH      0.473800
     61 H73         9.8990    0.7500    5.3160 hn        1 XAH      0.488467
     62 H102        6.9040    2.1350    7.9150 hn        1 XAH      0.492300
@<TRIPOS>BOND
     1    1    2 1   
     2    1   34 1   
     3    1   35 1   
     4    1   60 1   
     5    2    3 1   
     6    2   36 1   
     7    2   37 1   
     8    3    4 1   
     9    3   38 1   
    10    3   39 1   
    11    4    5 1   
    12    4   40 1   
    13    4   41 1   
    14    5    6 1   
    15    5   42 1   
    16    5   43 1   
    17    6    7 1   
    18    6    8 1   
    19    6   44 1   
    20    7   45 1   
    21    7   46 1   
    22    7   61 1   
    23    8    9 2   
    24    8   10 1   
    25   10   11 1   
    26   10   47 1   
    27   10   62 1   
    28   11   12 1   
    29   12   13 1   
    30   12   14 1   
    31   12   15 1   
    32   15   16 1   
    33   16   17 1   
    34   16   48 1   
    35   16   49 1   
    36   17   18 1   
    37   17   19 1   
    38   17   50 1   
    39   18   23 1   
    40   19   20 1   
    41   19   21 1   
    42   19   51 1   
    43   20   52 1   
    44   21   22 1   
    45   21   23 1   
    46   21   53 1   
    47   22   54 1   
    48   23   24 1   
    49   23   55 1   
    50   24   25 1   
    51   24   28 1   
    52   25   26 2   
    53   25   56 1   
    54   26   27 1   
    55   27   28 ar  
    56   27   32 ar  
    57   28   29 ar  
    58   29   30 ar  
    59   30   31 ar  
    60   30   57 1   
    61   31   32 ar  
    62   32   33 1   
    63   33   58 1   
    64   33   59 1   
@<TRIPOS>SUBSTRUCTURE
     1 XAH         1 TEMP              0 ****  ****    0 ROOT
