@<TRIPOS>MOLECULE
XAH
   63    65     1     0     0
SMALL
bcc


@<TRIPOS>ATOM
      1 N1          2.3520    1.5230    5.6910 n4        1 XAH     -0.834600
      2 C2          1.6450    1.1300    4.4410 c3        1 XAH      0.105800
      3 C3          2.4240    0.1520    3.5710 c3        1 XAH     -0.101400
      4 C4          3.6010    0.7900    2.8520 c3        1 XAH     -0.093400
      5 C5          4.6840   -0.2410    2.5870 c3        1 XAH     -0.110400
      6 C6          6.0570    0.4080    2.3460 c3        1 XAH      0.046500
      7 N7          6.2410    0.8640    0.9300 n4        1 XAH     -0.838600
      8 C8          7.1480   -0.5970    2.7270 c         1 XAH      0.515100
      9 O9          7.7090   -1.3620    1.9580 o         1 XAH     -0.391100
     10 N10         7.5710   -0.6200    4.1810 n4        1 XAH     -0.338300
     11 O11         6.5740   -0.3330    4.9930 os        1 XAH     -0.366700
     12 P12         6.4960    1.2940    5.7290 p5        1 XAH      1.500800
     13 O13         7.3230    1.9020    4.6700 o         1 XAH     -0.826000
     14 O14         5.0380    1.4100    5.8160 o         1 XAH     -0.826000
     15 O15         7.3220    0.9870    7.0540 os        1 XAH     -0.580200
     16 C16         8.3650    1.8540    7.4600 c3        1 XAH      0.174400
     17 C17         7.9530    2.5570    8.7560 c3        1 XAH      0.080100
     18 O18         9.0330    2.4120    9.6970 os        1 XAH     -0.415600
     19 C19         7.6860    4.0690    8.6030 c3        1 XAH      0.118100
     20 O20         6.3320    4.3100    8.3230 oh        1 XAH     -0.594800
     21 C21         8.2060    4.6870    9.9210 c3        1 XAH      0.090100
     22 O22         7.0980    4.9750   10.7410 oh        1 XAH     -0.592800
     23 C23         9.0210    3.5330   10.6010 c3        1 XAH      0.225800
     24 N24        10.3920    3.8710   10.9310 na        1 XAH     -0.273000
     25 C25        11.5400    3.0590   10.7830 cc        1 XAH      0.517700
     26 N26        12.6370    3.5480   11.3900 nd        1 XAH     -0.569100
     27 C27        12.2160    4.7320   12.0040 ca        1 XAH     -0.132200
     28 C28        10.7790    4.9610   11.7290 ca        1 XAH      0.451800
     29 N29        10.0940    6.0330   12.1980 nb        1 XAH     -0.651000
     30 C30        10.8430    6.8790   12.9510 ca        1 XAH      0.687900
     31 N31        12.1640    6.7800   13.2820 nb        1 XAH     -0.663000
     32 C32        12.8400    5.7050   12.8070 ca        1 XAH      0.539200
     33 N33        14.2650    5.5400   13.1510 n4        1 XAH     -0.818300
     34 HN1         1.6900    1.9210    6.3630 hn        1 XAH      0.474467
     35 HN1A        3.0950    2.2130    5.4950 hn        1 XAH      0.474467
     36 H2          1.4130    2.0720    3.8640 hx        1 XAH      0.116700
     37 H2A         0.6670    0.6460    4.7390 hx        1 XAH      0.116700
     38 H3          1.6980   -0.2570    2.8130 hc        1 XAH      0.094700
     39 H3A         2.7650   -0.7190    4.1940 hc        1 XAH      0.094700
     40 H4          4.0150    1.6290    3.4720 hc        1 XAH      0.062700
     41 H4A         3.2480    1.2360    1.8850 hc        1 XAH      0.062700
     42 H5          4.3920   -0.9030    1.7280 hc        1 XAH      0.108200
     43 H5A         4.7890   -0.9070    3.4920 hc        1 XAH      0.108200
     44 H6          6.1770    1.3310    3.0280 hx        1 XAH      0.196700
     45 HN7         5.3940    1.3680    0.6320 hn        1 XAH      0.483800
     46 HN7A        6.3890    0.0600    0.3020 hn        1 XAH      0.483800
     47 HN10        7.9340   -1.5730    4.4100 hn        1 XAH      0.494800
     48 H16         8.5860    2.5850    6.6350 h1        1 XAH      0.078200
     49 H16A        9.2650    1.2060    7.6610 h1        1 XAH      0.078200
     50 H17         7.0530    2.0430    9.1990 h1        1 XAH      0.098700
     51 H19         8.2510    4.5000    7.7300 h1        1 XAH      0.094700
     52 HO20        5.8410    4.3710    9.1570 ho        1 XAH      0.446000
     53 H21         8.8250    5.5980    9.7170 h1        1 XAH      0.093700
     54 HO22        7.3090    5.7590   11.2680 ho        1 XAH      0.452000
     55 H23         8.4970    3.1970   11.5500 h2        1 XAH      0.117700
     56 H25        11.4930    2.1170   10.2090 h5        1 XAH      0.114800
     57 H30        10.3180    7.7760   13.3630 h5        1 XAH      0.109100
     58 HN33       14.3530    4.7680   13.8260 hn        1 XAH      0.485133
     59 HN3A       14.7870    5.3040   12.2970 hn        1 XAH      0.485133
     60 H13         2.8310    0.7160    6.1150 hn        1 XAH      0.474467
     61 H73         7.0500    1.4960    0.8600 hn        1 XAH      0.483800
     62 H102        8.3320    0.1050    4.2800 hn        1 XAH      0.494800
     63 H333       14.6500    6.4010   13.5680 hn        1 XAH      0.485133
@<TRIPOS>BOND
     1    1    2 1   
     2    1   34 1   
     3    1   35 1   
     4    1   60 1   
     5    2    3 1   
     6    2   36 1   
     7    2   37 1   
     8    3    4 1   
     9    3   38 1   
    10    3   39 1   
    11    4    5 1   
    12    4   40 1   
    13    4   41 1   
    14    5    6 1   
    15    5   42 1   
    16    5   43 1   
    17    6    7 1   
    18    6    8 1   
    19    6   44 1   
    20    7   45 1   
    21    7   46 1   
    22    7   61 1   
    23    8    9 2   
    24    8   10 1   
    25   10   11 1   
    26   10   47 1   
    27   10   62 1   
    28   11   12 1   
    29   12   13 1   
    30   12   14 1   
    31   12   15 1   
    32   15   16 1   
    33   16   17 1   
    34   16   48 1   
    35   16   49 1   
    36   17   18 1   
    37   17   19 1   
    38   17   50 1   
    39   18   23 1   
    40   19   20 1   
    41   19   21 1   
    42   19   51 1   
    43   20   52 1   
    44   21   22 1   
    45   21   23 1   
    46   21   53 1   
    47   22   54 1   
    48   23   24 1   
    49   23   55 1   
    50   24   25 1   
    51   24   28 1   
    52   25   26 2   
    53   25   56 1   
    54   26   27 1   
    55   27   28 ar  
    56   27   32 ar  
    57   28   29 ar  
    58   29   30 ar  
    59   30   31 ar  
    60   30   57 1   
    61   31   32 ar  
    62   32   33 1   
    63   33   58 1   
    64   33   59 1   
    65   33   63 1   
@<TRIPOS>SUBSTRUCTURE
     1 XAH         1 TEMP              0 ****  ****    0 ROOT
