@<TRIPOS>MOLECULE
XAH
   62    64     1     0     0
SMALL
bcc


@<TRIPOS>ATOM
      1 N1          3.1500    1.4760    3.2680 nz        1 XAH     -0.833600
      2 C2          3.7200    0.1340    2.9800 c3        1 XAH      0.107800
      3 C3          4.9530   -0.2090    3.8100 c3        1 XAH     -0.116400
      4 C4          6.2470    0.1790    3.1200 c3        1 XAH     -0.096400
      5 C5          7.4550    0.0560    4.0350 c3        1 XAH     -0.102400
      6 C6          7.5070    1.2250    5.0320 c3        1 XAH      0.067500
      7 N7          8.6820    2.1340    4.8830 nz        1 XAH     -0.837600
      8 C8          7.4250    0.7130    6.4760 c         1 XAH      0.510100
      9 O9          8.0270   -0.2400    6.9370 o         1 XAH     -0.360100
     10 N10         6.4890    1.4700    7.4050 ny        1 XAH     -0.351300
     11 O11         5.3670    1.7950    6.7910 os        1 XAH     -0.375700
     12 P12         5.1400    3.4500    6.2040 p5        1 XAH      1.516800
     13 O13         6.5890    3.7150    6.0280 o         1 XAH     -0.848000
     14 O14         4.2610    3.0700    5.0960 o         1 XAH     -0.848000
     15 O15         4.5600    4.1400    7.5080 os        1 XAH     -0.564200
     16 C16         5.3550    5.0690    8.2200 c3        1 XAH      0.153400
     17 C17         5.7110    4.5390    9.6090 c3        1 XAH      0.081100
     18 O18         6.5890    3.4040    9.5080 os        1 XAH     -0.502600
     19 C19         6.4130    5.6330   10.4420 c3        1 XAH      0.098100
     20 O20         5.6380    6.0270   11.5410 oh        1 XAH     -0.559800
     21 C21         7.7710    5.0300   10.8660 c3        1 XAH      0.086100
     22 O22         7.7850    4.8100   12.2610 oh        1 XAH     -0.581800
     23 C23         7.8220    3.6100   10.2290 c3        1 XAH      0.245800
     24 N24         8.9120    3.3760    9.3130 na        1 XAH     -0.292000
     25 C25         9.0000    3.7740    7.9580 cc        1 XAH      0.377700
     26 N26        10.0230    3.2090    7.2980 nd        1 XAH     -0.623100
     27 C27        10.6700    2.3930    8.2360 ca        1 XAH     -0.250200
     28 C28         9.9720    2.4660    9.5170 ca        1 XAH      0.465800
     29 N29        10.3330    1.7560   10.6190 nb        1 XAH     -0.704000
     30 C30        11.4390    0.9930   10.4140 ca        1 XAH      0.712900
     31 N31        12.2000    0.8590    9.2950 nb        1 XAH     -0.740000
     32 C32        11.8390    1.5620    8.1760 ca        1 XAH      0.730200
     33 N33        12.5200    1.4170    6.9740 nv        1 XAH     -0.922500
     34 HN1         3.8410    2.2210    3.1000 hn        1 XAH      0.475133
     35 HN1A        2.3220    1.6440    2.6910 hn        1 XAH      0.475133
     36 H2          2.9090   -0.6250    3.1910 hx        1 XAH      0.113700
     37 H2A         3.9670    0.0890    1.8790 hx        1 XAH      0.113700
     38 H3          4.9450   -1.3230    3.9690 hc        1 XAH      0.087700
     39 H3A         4.8910    0.2650    4.8280 hc        1 XAH      0.087700
     40 H4          6.1740    1.2250    2.7190 hc        1 XAH      0.073200
     41 H4A         6.4110   -0.5010    2.2380 hc        1 XAH      0.073200
     42 H5          8.3860    0.0200    3.4060 hc        1 XAH      0.103200
     43 H5A         7.4140   -0.9200    4.5930 hc        1 XAH      0.103200
     44 H6          6.5950    1.8880    4.8320 hx        1 XAH      0.150700
     45 HN7         9.5350    1.7280    5.2890 hn        1 XAH      0.492133
     46 HN7A        8.8440    2.3160    3.8870 hn        1 XAH      0.492133
     47 HN10        6.9850    2.3430    7.7320 hn        1 XAH      0.492800
     48 H16         4.7150    5.9900    8.3610 h1        1 XAH      0.081700
     49 H16A        6.2760    5.3140    7.6250 h1        1 XAH      0.081700
     50 H17         4.7820    4.1600   10.1230 h1        1 XAH      0.118700
     51 H19         6.5560    6.5770    9.8450 h1        1 XAH      0.105700
     52 HO20        5.6230    5.3030   12.1870 ho        1 XAH      0.433000
     53 H21         8.6260    5.6810   10.5480 h1        1 XAH      0.091700
     54 HO22        7.9870    5.6560   12.6870 ho        1 XAH      0.447000
     55 H23         7.8590    2.8230   11.0470 h2        1 XAH      0.151700
     56 H25         8.2940    4.5000    7.5200 h5        1 XAH      0.099800
     57 H30        11.7830    0.4000   11.2940 h5        1 XAH      0.089100
     58 HN33       12.5760    2.2520    6.4310 hn        1 XAH      0.430800
     59 HN3A       13.3740    0.8950    7.0120 hn        1 XAH      0.430800
     60 H13         2.8950    1.5630    4.2660 hn        1 XAH      0.475133
     61 H73         8.4640    3.0420    5.3560 hn        1 XAH      0.492133
     62 H102        6.2620    0.8720    8.2320 hn        1 XAH      0.492800
@<TRIPOS>BOND
     1    1    2 1   
     2    1   34 1   
     3    1   35 1   
     4    1   60 1   
     5    2    3 1   
     6    2   36 1   
     7    2   37 1   
     8    3    4 1   
     9    3   38 1   
    10    3   39 1   
    11    4    5 1   
    12    4   40 1   
    13    4   41 1   
    14    5    6 1   
    15    5   42 1   
    16    5   43 1   
    17    6    7 1   
    18    6    8 1   
    19    6   44 1   
    20    7   45 1   
    21    7   46 1   
    22    7   61 1   
    23    8    9 2   
    24    8   10 1   
    25   10   11 1   
    26   10   47 1   
    27   10   62 1   
    28   11   12 1   
    29   12   13 1   
    30   12   14 1   
    31   12   15 1   
    32   15   16 1   
    33   16   17 1   
    34   16   48 1   
    35   16   49 1   
    36   17   18 1   
    37   17   19 1   
    38   17   50 1   
    39   18   23 1   
    40   19   20 1   
    41   19   21 1   
    42   19   51 1   
    43   20   52 1   
    44   21   22 1   
    45   21   23 1   
    46   21   53 1   
    47   22   54 1   
    48   23   24 1   
    49   23   55 1   
    50   24   25 1   
    51   24   28 1   
    52   25   26 2   
    53   25   56 1   
    54   26   27 1   
    55   27   28 ar  
    56   27   32 ar  
    57   28   29 ar  
    58   29   30 ar  
    59   30   31 ar  
    60   30   57 1   
    61   31   32 ar  
    62   32   33 1   
    63   33   58 1   
    64   33   59 1   
@<TRIPOS>SUBSTRUCTURE
     1 XAH         1 TEMP              0 ****  ****    0 ROOT
