@<TRIPOS>MOLECULE
XAL
   37    39     1     0     0
SMALL
bcc


@<TRIPOS>ATOM
      1 P          -4.5400    0.6340    0.5660 p5        1 XAL      1.318900
      2 OP1        -3.9260    1.8520   -0.0650 o         1 XAL     -0.915833
      3 OP2        -6.0220    0.4550    0.4550 o         1 XAL     -0.915833
      4 O5'        -3.9300   -0.6300   -0.4760 os        1 XAL     -0.557200
      5 C5'        -2.6670   -0.4390   -0.9500 c3        1 XAL      0.235400
      6 C4'        -1.6590   -1.4070   -0.2590 c3        1 XAL     -0.154500
      7 C6'        -1.3160   -0.8790    1.0810 c2        1 XAL     -0.066200
      8 C7'        -0.0740   -0.8360    1.5790 c2        1 XAL     -0.346200
      9 C3'        -0.4270   -1.6390   -1.1320 c3        1 XAL      0.145100
     10 O3'        -0.6880   -2.5460   -2.2030 oh        1 XAL     -0.641800
     11 C2'         0.7180   -2.2420   -0.3250 c3        1 XAL     -0.091400
     12 C1'         1.1310   -1.3250    0.8370 c3        1 XAL      0.111200
     13 N9          1.9740   -0.2130    0.4030 na        1 XAL     -0.228000
     14 C8          1.5360    1.0650   -0.0090 cc        1 XAL      0.454700
     15 N7          2.5380    1.8950   -0.3590 nd        1 XAL     -0.591100
     16 C6          5.0930    1.4480   -0.3600 ca        1 XAL      0.701200
     17 N6          5.4680    2.6740   -0.9070 nh        1 XAL     -0.932500
     18 C5          3.7070    1.1460   -0.1790 ca        1 XAL     -0.206200
     19 C4          3.3670   -0.1970    0.3040 ca        1 XAL      0.425800
     20 N3          4.3140   -1.1460    0.5900 nb        1 XAL     -0.711000
     21 C2          5.5730   -0.7090    0.3890 ca        1 XAL      0.642900
     22 N1          6.0310    0.5010   -0.0470 nb        1 XAL     -0.806000
     23 OP3        -3.8980    0.2280    1.8750 o         1 XAL     -0.915833
     24 H5'        -2.3230    0.6250   -0.8030 h1        1 XAL     -0.001800
     25 H5''       -2.6320   -0.6810   -2.0560 h1        1 XAL     -0.001800
     26 H4'        -2.1940   -2.3890   -0.1100 hc        1 XAL      0.076700
     27 H6'        -2.2390   -0.4780    1.6340 ha        1 XAL      0.286000
     28 H7'         0.1250   -0.4300    2.5800 ha        1 XAL      0.118000
     29 H3'        -0.0970   -0.6630   -1.5920 h1        1 XAL      0.032700
     30 HO3'       -1.6280   -2.4660   -2.4110 ho        1 XAL      0.417000
     31 H2'         1.5840   -2.4610   -1.0000 hc        1 XAL      0.047200
     32 H2''        0.3780   -3.2130    0.1190 hc        1 XAL      0.047200
     33 H1'         1.7800   -1.9340    1.5390 h1        1 XAL      0.054700
     34 H8          0.4580    1.3110   -0.0130 h5        1 XAL      0.120800
     35 HN61        6.3990    2.9740   -0.7310 hn        1 XAL      0.409800
     36 HN62        4.7720    3.3820   -0.8500 hn        1 XAL      0.409800
     37 H2          6.3720   -1.4440    0.6150 h5        1 XAL      0.028100
@<TRIPOS>BOND
     1    1    2 1   
     2    1    3 1   
     3    1    4 1   
     4    1   23 1   
     5    4    5 1   
     6    5    6 1   
     7    5   24 1   
     8    5   25 1   
     9    6    7 1   
    10    6    9 1   
    11    6   26 1   
    12    7    8 2   
    13    7   27 1   
    14    8   12 1   
    15    8   28 1   
    16    9   10 1   
    17    9   11 1   
    18    9   29 1   
    19   10   30 1   
    20   11   12 1   
    21   11   31 1   
    22   11   32 1   
    23   12   13 1   
    24   12   33 1   
    25   13   14 1   
    26   13   19 1   
    27   14   15 2   
    28   14   34 1   
    29   15   18 1   
    30   16   17 1   
    31   16   18 ar  
    32   16   22 ar  
    33   17   35 1   
    34   17   36 1   
    35   18   19 ar  
    36   19   20 ar  
    37   20   21 ar  
    38   21   22 ar  
    39   21   37 1   
@<TRIPOS>SUBSTRUCTURE
     1 XAL         1 TEMP              0 ****  ****    0 ROOT
