@<TRIPOS>MOLECULE
XAL
   37    33     1     0     0
SMALL
bcc


@<TRIPOS>ATOM
      1 P           2.4310   -1.1150    5.3810 p3        1 XAL      2.519000
      2 OP1         3.8200   -1.1240    4.7950 o         1 XAL     -1.255500
      3 OP2         2.4770   -0.5250    6.7800 os        1 XAL     -1.228000
      4 O5'         1.4680   -0.2270    4.4560 os        1 XAL     -0.723000
      5 C5'         1.2210   -0.6620    3.1150 c3        1 XAL      0.112000
      6 C4'         0.3170    0.3700    2.3970 c3        1 XAL     -0.242000
      7 C6'        -0.9660   -0.1380    2.2190 c2        1 XAL     -0.008000
      8 C7'        -1.8490    0.5450    1.0010 c1        1 XAL     -0.334000
      9 C3'         1.0420    0.8990    0.8900 c3        1 XAL      0.078000
     10 O3'         2.3850    1.6280    1.2340 oh        1 XAL     -0.398000
     11 C2'         0.4110    1.6020    0.2600 c3        1 XAL     -0.187000
     12 C1'        -1.0710    1.0480   -0.1660 c2        1 XAL      0.088000
     13 N9         -0.9820    0.0330   -1.2380 n3        1 XAL     -0.140000
     14 C8         -1.0330   -1.3380   -1.1460 c1        1 XAL     -0.008000
     15 N7         -1.1710   -1.8300   -2.3850 n2        1 XAL     -0.164000
     16 C6         -1.3350   -0.6980   -4.6460 c1        1 XAL      0.180000
     17 N6         -1.2550   -1.7240   -5.6540 n2        1 XAL     -0.328000
     18 C5         -1.2080   -0.7620   -3.2680 c2        1 XAL     -0.216000
     19 C4         -1.0910    0.3730   -2.5530 c1        1 XAL      0.038000
     20 N3         -1.0980    1.5680   -3.1770 n1        1 XAL     -0.183000
     21 C2         -1.2240    1.6290   -4.5380 c1        1 XAL     -0.018000
     22 N1         -1.3410    0.4890   -5.2620 n1        1 XAL     -0.277000
     23 OP3         1.9040   -2.5280    5.4460 o         1 XAL     -1.255500
     24 H5'         2.0880   -0.7440    2.6260 h1        1 XAL      0.025000
     25 H5''        0.7570   -1.5620    3.1320 h1        1 XAL      0.025000
     26 H4'         0.3130    1.0970    3.0520 hc        1 XAL      0.213000
     27 H6'        -1.4130   -0.5790    2.9460 ha        1 XAL      0.141000
     28 H7'        -2.7970    0.3140    0.8950 ha        1 XAL      0.104000
     29 H3'         1.2450    0.1170    0.3590 h1        1 XAL      0.043000
     30 HO3'        3.0440    1.3130    0.7060 ho        1 XAL      0.306000
     31 H2'         0.2940    2.4450    0.7630 hc        1 XAL      0.090500
     32 H2''        0.9070    1.8010   -0.5600 hc        1 XAL      0.090500
     33 H1'        -1.5730    1.7560   -0.6230 h4        1 XAL      0.099000
     34 H8         -1.0360   -1.8730   -0.2950 DU        1 XAL      0.236000
     35 HN61       -1.2230   -2.6130   -5.4070 hn        1 XAL      0.204500
     36 HN62       -1.2310   -1.4960   -6.5370 hn        1 XAL      0.204500
     37 H2         -1.2290    2.5140   -4.9980 ha        1 XAL      0.167000
@<TRIPOS>BOND
     1    1    2 1   
     2    1    4 1   
     3    1   23 1   
     4    4    5 1   
     5    5    6 1   
     6    5   24 1   
     7    5   25 1   
     8    6    7 1   
     9    6    9 1   
    10    6   26 1   
    11    7    8 1   
    12    7   27 1   
    13    8   28 1   
    14    9   10 1   
    15    9   11 1   
    16    9   29 1   
    17   10   30 1   
    18   11   12 1   
    19   11   31 1   
    20   11   32 1   
    21   12   13 1   
    22   12   33 1   
    23   13   14 1   
    24   13   19 1   
    25   14   15 1   
    26   15   18 1   
    27   16   18 1   
    28   16   22 1   
    29   17   35 1   
    30   17   36 1   
    31   18   19 1   
    32   20   21 1   
    33   21   37 1   
@<TRIPOS>SUBSTRUCTURE
     1 XAL         1 TEMP              0 ****  ****    0 ROOT
