@<TRIPOS>MOLECULE
XAN
   15    16     1     0     0
SMALL
bcc


@<TRIPOS>ATOM
      1 N9         -1.4670    0.0010    1.8680 na        1 XAN     -0.336900
      2 C4         -0.8940    0.0010    0.5960 cc        1 XAN     -0.009000
      3 N3         -1.4770    0.0010   -0.6550 n         1 XAN     -0.450100
      4 C2         -0.6220    0.0010   -1.7860 c         1 XAN      0.822500
      5 O2         -1.1410    0.0020   -2.9220 o         1 XAN     -0.634500
      6 N1          0.7670    0.0000   -1.6090 n         1 XAN     -0.591500
      7 C6          1.4260   -0.0000   -0.3550 c         1 XAN      0.658000
      8 O6          2.6630   -0.0010   -0.3360 o         1 XAN     -0.575500
      9 C5          0.5280   -0.0000    0.7930 cd        1 XAN      0.191800
     10 N7          0.8180   -0.0010    2.1580 nd        1 XAN     -0.567000
     11 C8         -0.3780   -0.0000    2.7750 cc        1 XAN      0.389400
     12 HN9        -2.4260    0.0010    2.0900 hn        1 XAN      0.313700
     13 HN3        -2.4590    0.0020   -0.8000 hn        1 XAN      0.355500
     14 HN1         1.3190    0.0000   -2.4400 hn        1 XAN      0.358500
     15 H8         -0.5400   -0.0000    3.8580 h5        1 XAN      0.074100
@<TRIPOS>BOND
     1    1    2 1   
     2    1   11 1   
     3    1   12 1   
     4    2    3 1   
     5    2    9 2   
     6    3    4 1   
     7    3   13 1   
     8    4    5 2   
     9    4    6 1   
    10    6    7 1   
    11    6   14 1   
    12    7    8 2   
    13    7    9 1   
    14    9   10 1   
    15   10   11 2   
    16   11   15 1   
@<TRIPOS>SUBSTRUCTURE
     1 XAN         1 TEMP              0 ****  ****    0 ROOT
