@<TRIPOS>MOLECULE
XAO
   47    47     1     0     0
SMALL
bcc


@<TRIPOS>ATOM
      1 C1          1.0410   -0.0420   -0.0490 c3        1 XAO      0.141500
      2 N          -0.3390   -0.4570   -0.4730 nz        1 XAO     -0.832600
      3 C2          1.1040    0.1350    1.4880 c3        1 XAO      0.115100
      4 O2          0.0810    1.0620    1.8220 oh        1 XAO     -0.623800
      5 C3          0.8830   -1.1780    2.2790 c3        1 XAO      0.101100
      6 O3          0.8360   -2.2430    1.3350 oh        1 XAO     -0.659800
      7 C4          1.9810   -1.3750    3.3170 c3        1 XAO     -0.119400
      8 C5          1.6090   -2.4110    4.3700 c3        1 XAO     -0.067700
      9 C6          2.8630   -2.9350    5.0420 c3        1 XAO     -0.097600
     10 C7          0.6670   -1.8310    5.4050 c3        1 XAO     -0.097600
     11 C7'         1.4860    1.2490   -0.7360 c3        1 XAO     -0.114400
     12 C1'         1.3940    1.2340   -2.2540 c3        1 XAO     -0.077700
     13 C2'         1.9520    2.5510   -2.7910 c3        1 XAO     -0.075900
     14 C6'         2.1430    0.0610   -2.8680 c3        1 XAO     -0.075900
     15 C3'         1.8850    2.5940   -4.3030 c3        1 XAO     -0.078900
     16 C5'         2.0840    0.1040   -4.3820 c3        1 XAO     -0.078900
     17 C4'         2.6110    1.4180   -4.9200 c3        1 XAO     -0.081400
     18 H1          1.7360   -0.8930   -0.3290 hx        1 XAO      0.127700
     19 HN1        -0.5700   -1.3530   -0.0230 hn        1 XAO      0.465467
     20 HN2        -0.3700   -0.5560   -1.4910 hn        1 XAO      0.465467
     21 H2          2.1190    0.5620    1.7280 h1        1 XAO      0.090700
     22 HO2         0.2350    1.3550    2.7300 ho        1 XAO      0.447000
     23 H3         -0.1250   -1.1270    2.7870 h1        1 XAO      0.068700
     24 HO3         1.0780   -3.0610    1.7900 ho        1 XAO      0.451000
     25 H41         2.9220   -1.6910    2.7930 hc        1 XAO      0.065200
     26 H42         2.1870   -0.3960    3.8250 hc        1 XAO      0.065200
     27 H5          1.0920   -3.2750    3.8650 hc        1 XAO      0.039700
     28 H61         3.4270   -2.1010    5.5260 hc        1 XAO      0.045700
     29 H62         3.5310   -3.4310    4.2970 hc        1 XAO      0.045700
     30 H63         2.5930   -3.6810    5.8280 hc        1 XAO      0.045700
     31 H71         1.1560   -0.9920    5.9570 hc        1 XAO      0.045700
     32 H72        -0.2650   -1.4470    4.9260 hc        1 XAO      0.045700
     33 H73         0.3830   -2.6180    6.1460 hc        1 XAO      0.045700
     34 H7'1        0.8870    2.1100   -0.3330 hc        1 XAO      0.087700
     35 H7'2        2.5570    1.4170   -0.4380 hc        1 XAO      0.087700
     36 H1'         0.3130    1.1780   -2.5690 hc        1 XAO      0.031700
     37 H2'1        3.0170    2.6650   -2.4590 hc        1 XAO      0.042950
     38 H2'2        1.3670    3.4060   -2.3620 hc        1 XAO      0.042950
     39 H6'1        1.7030   -0.9080   -2.5130 hc        1 XAO      0.042950
     40 H6'2        3.2140    0.0880   -2.5340 hc        1 XAO      0.042950
     41 H3'1        0.8130    2.5910   -4.6330 hc        1 XAO      0.051700
     42 H3'2        2.3440    3.5510   -4.6650 hc        1 XAO      0.051700
     43 H5'1        2.6890   -0.7440   -4.8000 hc        1 XAO      0.051700
     44 H5'2        1.0240   -0.0400   -4.7210 hc        1 XAO      0.051700
     45 H4'1        2.4870    1.4420   -6.0340 hc        1 XAO      0.056200
     46 H4'2        3.7090    1.4980   -4.7030 hc        1 XAO      0.056200
     47 HN3        -1.0110    0.2580   -0.1730 hn        1 XAO      0.465467
@<TRIPOS>BOND
     1    1    2 1   
     2    1    3 1   
     3    1   11 1   
     4    1   18 1   
     5    2   19 1   
     6    2   20 1   
     7    2   47 1   
     8    3    4 1   
     9    3    5 1   
    10    3   21 1   
    11    4   22 1   
    12    5    6 1   
    13    5    7 1   
    14    5   23 1   
    15    6   24 1   
    16    7    8 1   
    17    7   25 1   
    18    7   26 1   
    19    8    9 1   
    20    8   10 1   
    21    8   27 1   
    22    9   28 1   
    23    9   29 1   
    24    9   30 1   
    25   10   31 1   
    26   10   32 1   
    27   10   33 1   
    28   11   12 1   
    29   11   34 1   
    30   11   35 1   
    31   12   13 1   
    32   12   14 1   
    33   12   36 1   
    34   13   15 1   
    35   13   37 1   
    36   13   38 1   
    37   14   16 1   
    38   14   39 1   
    39   14   40 1   
    40   15   17 1   
    41   15   41 1   
    42   15   42 1   
    43   16   17 1   
    44   16   43 1   
    45   16   44 1   
    46   17   45 1   
    47   17   46 1   
@<TRIPOS>SUBSTRUCTURE
     1 XAO         1 TEMP              0 ****  ****    0 ROOT
