@<TRIPOS>MOLECULE
XAO
   46    46     1     0     0
SMALL
bcc


@<TRIPOS>ATOM
      1 C1         -0.0680   -0.3750   -0.2770 c3        1 XAO      0.130500
      2 N           0.0340   -1.8210   -0.3050 n3        1 XAO     -0.905800
      3 C2         -0.7290    0.1290    1.0350 c3        1 XAO      0.118100
      4 O2         -1.9570   -0.5200    1.3000 oh        1 XAO     -0.594800
      5 C3          0.2540   -0.0000    2.2160 c3        1 XAO      0.104100
      6 O3          1.4140    0.7760    1.9660 oh        1 XAO     -0.589800
      7 C4         -0.4220    0.4060    3.5210 c3        1 XAO     -0.109400
      8 C5          0.4620    0.1440    4.7310 c3        1 XAO     -0.069700
      9 C6          0.0180    1.0000    5.8990 c3        1 XAO     -0.090100
     10 C7          0.4420   -1.3200    5.1200 c3        1 XAO     -0.090100
     11 C7'        -0.8220    0.2600   -1.4550 c3        1 XAO     -0.113400
     12 C1'        -0.3150   -0.1610   -2.8240 c3        1 XAO     -0.064700
     13 C2'        -1.1890    0.4700   -3.9020 c3        1 XAO     -0.074900
     14 C6'         1.1410    0.2310   -3.0320 c3        1 XAO     -0.074900
     15 C3'        -0.7120    0.0960   -5.2890 c3        1 XAO     -0.076400
     16 C5'         1.6190   -0.1360   -4.4220 c3        1 XAO     -0.076400
     17 C4'         0.7400    0.4770   -5.4920 c3        1 XAO     -0.076400
     18 H1          0.9900    0.0320   -0.2690 h1        1 XAO      0.079700
     19 HN1        -0.8680   -2.2290   -0.4640 hn        1 XAO      0.349300
     20 HN2         0.6500   -2.1050   -1.0410 hn        1 XAO      0.349300
     21 H2         -1.0140    1.2120    0.9010 h1        1 XAO      0.067700
     22 HO2        -1.7580   -1.4190    1.5900 ho        1 XAO      0.407000
     23 H3          0.6410   -1.0570    2.2790 h1        1 XAO      0.096700
     24 HO3         1.1550    1.7050    2.0140 ho        1 XAO      0.394000
     25 H41        -1.3880   -0.1560    3.6210 hc        1 XAO      0.051200
     26 H42        -0.6750    1.4980    3.4730 hc        1 XAO      0.051200
     27 H5          1.5190    0.4270    4.4570 hc        1 XAO      0.061700
     28 H61         0.6560    0.7940    6.7930 hc        1 XAO      0.033700
     29 H62         0.1050    2.0840    5.6460 hc        1 XAO      0.033700
     30 H63        -1.0440    0.7820    6.1650 hc        1 XAO      0.033700
     31 H71        -0.5890   -1.6360    5.4100 hc        1 XAO      0.033700
     32 H72         0.7830   -1.9570    4.2690 hc        1 XAO      0.033700
     33 H73         1.1220   -1.4960    5.9880 hc        1 XAO      0.033700
     34 H7'1       -1.9100   -0.0030   -1.3690 hc        1 XAO      0.050200
     35 H7'2       -0.7380    1.3750   -1.3640 hc        1 XAO      0.050200
     36 H1'        -0.3990   -1.2800   -2.9270 hc        1 XAO      0.040700
     37 H2'1       -2.2500    0.1330   -3.7660 hc        1 XAO      0.041700
     38 H2'2       -1.1720    1.5850   -3.7870 hc        1 XAO      0.041700
     39 H6'1        1.2540    1.3350   -2.8740 hc        1 XAO      0.041700
     40 H6'2        1.7830   -0.2860   -2.2720 hc        1 XAO      0.041700
     41 H3'1       -0.8330   -1.0080   -5.4420 hc        1 XAO      0.039200
     42 H3'2       -1.3470    0.6140   -6.0550 hc        1 XAO      0.039200
     43 H5'1        1.6190   -1.2520   -4.5340 hc        1 XAO      0.039200
     44 H5'2        2.6750    0.2150   -4.5560 hc        1 XAO      0.039200
     45 H4'1        1.0820    0.1330   -6.5030 hc        1 XAO      0.039200
     46 H4'2        0.8410    1.5940   -5.4640 hc        1 XAO      0.039200
@<TRIPOS>BOND
     1    1    2 1   
     2    1    3 1   
     3    1   11 1   
     4    1   18 1   
     5    2   19 1   
     6    2   20 1   
     7    3    4 1   
     8    3    5 1   
     9    3   21 1   
    10    4   22 1   
    11    5    6 1   
    12    5    7 1   
    13    5   23 1   
    14    6   24 1   
    15    7    8 1   
    16    7   25 1   
    17    7   26 1   
    18    8    9 1   
    19    8   10 1   
    20    8   27 1   
    21    9   28 1   
    22    9   29 1   
    23    9   30 1   
    24   10   31 1   
    25   10   32 1   
    26   10   33 1   
    27   11   12 1   
    28   11   34 1   
    29   11   35 1   
    30   12   13 1   
    31   12   14 1   
    32   12   36 1   
    33   13   15 1   
    34   13   37 1   
    35   13   38 1   
    36   14   16 1   
    37   14   39 1   
    38   14   40 1   
    39   15   17 1   
    40   15   41 1   
    41   15   42 1   
    42   16   17 1   
    43   16   43 1   
    44   16   44 1   
    45   17   45 1   
    46   17   46 1   
@<TRIPOS>SUBSTRUCTURE
     1 XAO         1 TEMP              0 ****  ****    0 ROOT
