@<TRIPOS>MOLECULE
XAO
   46    46     1     0     0
SMALL
bcc


@<TRIPOS>ATOM
      1 C1         -0.4530    0.1700   -0.1730 c3        1 XAO      0.140500
      2 N          -1.8740    0.1520   -0.2340 n3        1 XAO     -0.893800
      3 C2         -0.0110    0.1830    1.2720 c3        1 XAO      0.063100
      4 O2         -0.9930    0.8160    2.0580 oh        1 XAO     -0.600800
      5 C3          0.1810   -1.2370    1.7530 c3        1 XAO      0.136100
      6 O3          1.3310   -1.7850    1.1530 oh        1 XAO     -0.595800
      7 C4          0.3460   -1.2430    3.2560 c3        1 XAO     -0.105400
      8 C5          0.6440   -2.6500    3.7250 c3        1 XAO     -0.069700
      9 C6         -0.5160   -3.1630    4.5500 c3        1 XAO     -0.089600
     10 C7          1.9000   -2.6450    4.5680 c3        1 XAO     -0.089600
     11 C7'         0.0650    1.4080   -0.8690 c3        1 XAO     -0.071400
     12 C1'        -0.2560    1.3560   -2.1740 c3        1 XAO     -0.059700
     13 C2'        -0.8380    2.7390   -2.6970 c3        1 XAO     -0.072900
     14 C6'         1.0510    1.3360   -3.1150 c3        1 XAO     -0.072900
     15 C3'        -1.1840    2.7190   -4.1780 c3        1 XAO     -0.073900
     16 C5'         0.7210    1.3020   -4.5860 c3        1 XAO     -0.073900
     17 C4'        -0.5550    1.7080   -4.8200 c3        1 XAO     -0.075400
     18 H1         -0.0970   -0.6250   -0.6160 h1        1 XAO      0.069700
     19 HN1        -2.1490   -0.5760   -0.7170 hn        1 XAO      0.355800
     20 HN2        -2.2160    0.1020    0.6150 hn        1 XAO      0.355800
     21 H2          0.8330    0.6700    1.3510 h1        1 XAO      0.035700
     22 HO2        -0.6620    1.5680    2.3960 ho        1 XAO      0.406000
     23 H3         -0.6000   -1.7720    1.5080 h1        1 XAO      0.091700
     24 HO3         1.1580   -2.6140    0.8810 ho        1 XAO      0.400000
     25 H41        -0.4800   -0.9280    3.6750 hc        1 XAO      0.051700
     26 H42         1.0840   -0.6530    3.5050 hc        1 XAO      0.051700
     27 H5          0.7740   -3.2310    2.9510 hc        1 XAO      0.059700
     28 H61        -1.3250   -3.1870    3.9980 hc        1 XAO      0.034367
     29 H62        -0.6600   -2.5680    5.3160 hc        1 XAO      0.034367
     30 H63        -0.3130   -4.0660    4.8720 hc        1 XAO      0.034367
     31 H71         2.6530   -2.3240    4.0300 hc        1 XAO      0.034367
     32 H72         1.7730   -2.0530    5.3390 hc        1 XAO      0.034367
     33 H73         2.0870   -3.5540    4.8820 hc        1 XAO      0.034367
     34 H7'1       -0.3390    2.2040   -0.4640 hc        1 XAO      0.036700
     35 H7'2        1.0390    1.4530   -0.7740 hc        1 XAO      0.036700
     36 H1'        -0.8570    0.6120   -2.3760 hc        1 XAO      0.073700
     37 H2'1       -1.6460    2.9520   -2.1890 hc        1 XAO      0.036450
     38 H2'2       -0.1740    3.4390   -2.5390 hc        1 XAO      0.036450
     39 H6'1        1.5840    0.5450   -2.8950 hc        1 XAO      0.036450
     40 H6'2        1.5840    2.1350   -2.9300 hc        1 XAO      0.036450
     41 H3'1       -0.9140    3.5700   -4.5800 hc        1 XAO      0.037200
     42 H3'2       -2.1520    2.6090   -4.2790 hc        1 XAO      0.037200
     43 H5'1        1.3380    1.8940   -5.0650 hc        1 XAO      0.037200
     44 H5'2        0.8320    0.3870   -4.9170 hc        1 XAO      0.037200
     45 H4'1       -0.5960    1.9300   -5.7750 hc        1 XAO      0.039700
     46 H4'2       -1.1180    0.9150   -4.6900 hc        1 XAO      0.039700
@<TRIPOS>BOND
     1    1    2 1   
     2    1    3 1   
     3    1   11 1   
     4    1   18 1   
     5    2   19 1   
     6    2   20 1   
     7    3    4 1   
     8    3    5 1   
     9    3   21 1   
    10    4   22 1   
    11    5    6 1   
    12    5    7 1   
    13    5   23 1   
    14    6   24 1   
    15    7    8 1   
    16    7   25 1   
    17    7   26 1   
    18    8    9 1   
    19    8   10 1   
    20    8   27 1   
    21    9   28 1   
    22    9   29 1   
    23    9   30 1   
    24   10   31 1   
    25   10   32 1   
    26   10   33 1   
    27   11   12 1   
    28   11   34 1   
    29   11   35 1   
    30   12   13 1   
    31   12   14 1   
    32   12   36 1   
    33   13   15 1   
    34   13   37 1   
    35   13   38 1   
    36   14   16 1   
    37   14   39 1   
    38   14   40 1   
    39   15   17 1   
    40   15   41 1   
    41   15   42 1   
    42   16   17 1   
    43   16   43 1   
    44   16   44 1   
    45   17   45 1   
    46   17   46 1   
@<TRIPOS>SUBSTRUCTURE
     1 XAO         1 TEMP              0 ****  ****    0 ROOT
