@<TRIPOS>MOLECULE
XAO
   47    47     1     0     0
SMALL
bcc


@<TRIPOS>ATOM
      1 C1          0.5790    0.0510    0.0640 c3        1 XAO      0.141500
      2 N          -0.6650   -0.4120   -0.6380 n4        1 XAO     -0.830600
      3 C2          0.3080    0.3400    1.5640 c3        1 XAO      0.125100
      4 O2         -0.9250    1.0400    1.6270 oh        1 XAO     -0.623800
      5 C3          0.2750   -0.9360    2.4300 c3        1 XAO      0.107100
      6 O3         -0.4100   -1.9350    1.6820 oh        1 XAO     -0.659800
      7 C4          1.6820   -1.3950    2.7990 c3        1 XAO     -0.119400
      8 C5          1.6880   -2.3650    3.9730 c3        1 XAO     -0.064700
      9 C6          2.9870   -3.1460    3.9880 c3        1 XAO     -0.097100
     10 C7          1.5010   -1.6410    5.2900 c3        1 XAO     -0.097100
     11 C7'         1.1720    1.2960   -0.5980 c3        1 XAO     -0.115400
     12 C1'         1.4220    1.1750   -2.0930 c3        1 XAO     -0.078700
     13 C2'         2.0900    2.4590   -2.5830 c3        1 XAO     -0.075400
     14 C6'         2.2870   -0.0280   -2.4400 c3        1 XAO     -0.075400
     15 C3'         2.3630    2.3960   -4.0710 c3        1 XAO     -0.078900
     16 C5'         2.5680   -0.0910   -3.9280 c3        1 XAO     -0.078900
     17 C4'         3.2060    1.1890   -4.4260 c3        1 XAO     -0.081400
     18 H1          1.3180   -0.8070    0.0110 hx        1 XAO      0.115700
     19 HN1        -1.3830    0.3170   -0.5550 hn        1 XAO      0.468133
     20 HN2        -0.4590   -0.5870   -1.6240 hn        1 XAO      0.468133
     21 H2          1.1400    1.0020    1.9420 h1        1 XAO      0.088700
     22 HO2        -1.0760    1.2910    2.5480 ho        1 XAO      0.448000
     23 H3         -0.3170   -0.7140    3.3650 h1        1 XAO      0.070700
     24 HO3        -0.4250   -2.7410    2.2150 ho        1 XAO      0.448000
     25 H41         2.3120   -0.5050    3.0610 hc        1 XAO      0.060200
     26 H42         2.1450   -1.8920    1.9050 hc        1 XAO      0.060200
     27 H5          0.8390   -3.0970    3.8450 hc        1 XAO      0.038700
     28 H61         3.8590   -2.4550    4.0780 hc        1 XAO      0.045367
     29 H62         3.1000   -3.7420    3.0510 hc        1 XAO      0.045367
     30 H63         3.0020   -3.8480    4.8570 hc        1 XAO      0.045367
     31 H71         2.3380   -0.9230    5.4670 hc        1 XAO      0.045367
     32 H72         1.4860   -2.3760    6.1310 hc        1 XAO      0.045367
     33 H73         0.5390   -1.0750    5.3020 hc        1 XAO      0.045367
     34 H7'1        2.1510    1.5000   -0.0830 hc        1 XAO      0.086700
     35 H7'2        0.4990    2.1750   -0.4010 hc        1 XAO      0.086700
     36 H1'         0.4400    1.0840   -2.6380 hc        1 XAO      0.032700
     37 H2'1        3.0540    2.6100   -2.0300 hc        1 XAO      0.042450
     38 H2'2        1.4270    3.3340   -2.3570 hc        1 XAO      0.042450
     39 H6'1        1.7770   -0.9750   -2.1240 hc        1 XAO      0.042450
     40 H6'2        3.2560    0.0380   -1.8780 hc        1 XAO      0.042450
     41 H3'1        1.3930    2.3560   -4.6310 hc        1 XAO      0.051950
     42 H3'2        2.8950    3.3320   -4.3870 hc        1 XAO      0.051950
     43 H5'1        1.6110   -0.2720   -4.4830 hc        1 XAO      0.051950
     44 H5'2        3.2490   -0.9570   -4.1390 hc        1 XAO      0.051950
     45 H4'1        4.2280    1.2990   -3.9750 hc        1 XAO      0.056700
     46 H4'2        3.3340    1.1340   -5.5390 hc        1 XAO      0.056700
     47 HN3        -1.0110   -1.2690   -0.1860 hn        1 XAO      0.468133
@<TRIPOS>BOND
     1    1    2 1   
     2    1    3 1   
     3    1   11 1   
     4    1   18 1   
     5    2   19 1   
     6    2   20 1   
     7    2   47 1   
     8    3    4 1   
     9    3    5 1   
    10    3   21 1   
    11    4   22 1   
    12    5    6 1   
    13    5    7 1   
    14    5   23 1   
    15    6   24 1   
    16    7    8 1   
    17    7   25 1   
    18    7   26 1   
    19    8    9 1   
    20    8   10 1   
    21    8   27 1   
    22    9   28 1   
    23    9   29 1   
    24    9   30 1   
    25   10   31 1   
    26   10   32 1   
    27   10   33 1   
    28   11   12 1   
    29   11   34 1   
    30   11   35 1   
    31   12   13 1   
    32   12   14 1   
    33   12   36 1   
    34   13   15 1   
    35   13   37 1   
    36   13   38 1   
    37   14   16 1   
    38   14   39 1   
    39   14   40 1   
    40   15   17 1   
    41   15   41 1   
    42   15   42 1   
    43   16   17 1   
    44   16   43 1   
    45   16   44 1   
    46   17   45 1   
    47   17   46 1   
@<TRIPOS>SUBSTRUCTURE
     1 XAO         1 TEMP              0 ****  ****    0 ROOT
