@<TRIPOS>MOLECULE
XAO
   47    47     1     0     0
SMALL
bcc


@<TRIPOS>ATOM
      1 C1          1.0090   -0.0270   -0.0510 c3        1 XAO      0.141500
      2 N          -0.3940   -0.3660   -0.4680 n4        1 XAO     -0.832600
      3 C2          1.0910    0.1360    1.4870 c3        1 XAO      0.115100
      4 O2          0.1200    1.1110    1.8350 oh        1 XAO     -0.623800
      5 C3          0.8080   -1.1700    2.2710 c3        1 XAO      0.101100
      6 O3          0.6970   -2.2240    1.3200 oh        1 XAO     -0.659800
      7 C4          1.9030   -1.4310    3.2980 c3        1 XAO     -0.119400
      8 C5          1.4860   -2.4540    4.3480 c3        1 XAO     -0.067700
      9 C6          2.7160   -3.0470    5.0050 c3        1 XAO     -0.097600
     10 C7          0.5840   -1.8330    5.3940 c3        1 XAO     -0.097600
     11 C7'         1.5170    1.2430   -0.7320 c3        1 XAO     -0.114400
     12 C1'         1.4150    1.2440   -2.2490 c3        1 XAO     -0.077700
     13 C2'         2.0390    2.5330   -2.7810 c3        1 XAO     -0.075900
     14 C6'         2.0980    0.0370   -2.8760 c3        1 XAO     -0.075900
     15 C3'         1.9660    2.5900   -4.2920 c3        1 XAO     -0.078900
     16 C5'         2.0320    0.0930   -4.3890 c3        1 XAO     -0.078900
     17 C4'         2.6250    1.3810   -4.9220 c3        1 XAO     -0.081400
     18 H1          1.6570   -0.9110   -0.3410 hx        1 XAO      0.127700
     19 HN1        -0.6680   -1.2520   -0.0230 hn        1 XAO      0.465467
     20 HN2        -0.4360   -0.4570   -1.4870 hn        1 XAO      0.465467
     21 H2          2.1280    0.5080    1.7230 h1        1 XAO      0.090700
     22 HO2         0.2950    1.3910    2.7430 ho        1 XAO      0.447000
     23 H3         -0.1910   -1.0690    2.7880 h1        1 XAO      0.068700
     24 HO3         0.8990   -3.0570    1.7680 ho        1 XAO      0.451000
     25 H41         2.1640   -0.4680    3.8110 hc        1 XAO      0.065200
     26 H42         2.8210   -1.7930    2.7640 hc        1 XAO      0.065200
     27 H5          0.9190   -3.2870    3.8410 hc        1 XAO      0.039700
     28 H61         3.3510   -3.5720    4.2520 hc        1 XAO      0.045700
     29 H62         2.4130   -3.7840    5.7880 hc        1 XAO      0.045700
     30 H63         3.3260   -2.2480    5.4900 hc        1 XAO      0.045700
     31 H71         1.1200   -1.0240    5.9470 hc        1 XAO      0.045700
     32 H72        -0.3310   -1.3970    4.9260 hc        1 XAO      0.045700
     33 H73         0.2650   -2.6080    6.1320 hc        1 XAO      0.045700
     34 H7'1        2.5970    1.3540   -0.4400 hc        1 XAO      0.087700
     35 H7'2        0.9660    2.1320   -0.3190 hc        1 XAO      0.087700
     36 H1'         0.3310    1.2470   -2.5580 hc        1 XAO      0.031700
     37 H2'1        3.1110    2.5890   -2.4550 hc        1 XAO      0.042950
     38 H2'2        1.5030    3.4150   -2.3430 hc        1 XAO      0.042950
     39 H6'1        1.6090   -0.9100   -2.5240 hc        1 XAO      0.042950
     40 H6'2        3.1700    0.0050   -2.5480 hc        1 XAO      0.042950
     41 H3'1        0.8930    2.6450   -4.6160 hc        1 XAO      0.051700
     42 H3'2        2.4730    3.5240   -4.6510 hc        1 XAO      0.051700
     43 H5'1        2.5890   -0.7820   -4.8160 hc        1 XAO      0.051700
     44 H5'2        0.9640    0.0080   -4.7220 hc        1 XAO      0.051700
     45 H4'1        2.4960    1.4190   -6.0350 hc        1 XAO      0.056200
     46 H4'2        3.7270    1.4020   -4.7110 hc        1 XAO      0.056200
     47 HN3        -1.0250    0.3810   -0.1590 hn        1 XAO      0.465467
@<TRIPOS>BOND
     1    1    2 1   
     2    1    3 1   
     3    1   11 1   
     4    1   18 1   
     5    2   19 1   
     6    2   20 1   
     7    2   47 1   
     8    3    4 1   
     9    3    5 1   
    10    3   21 1   
    11    4   22 1   
    12    5    6 1   
    13    5    7 1   
    14    5   23 1   
    15    6   24 1   
    16    7    8 1   
    17    7   25 1   
    18    7   26 1   
    19    8    9 1   
    20    8   10 1   
    21    8   27 1   
    22    9   28 1   
    23    9   29 1   
    24    9   30 1   
    25   10   31 1   
    26   10   32 1   
    27   10   33 1   
    28   11   12 1   
    29   11   34 1   
    30   11   35 1   
    31   12   13 1   
    32   12   14 1   
    33   12   36 1   
    34   13   15 1   
    35   13   37 1   
    36   13   38 1   
    37   14   16 1   
    38   14   39 1   
    39   14   40 1   
    40   15   17 1   
    41   15   41 1   
    42   15   42 1   
    43   16   17 1   
    44   16   43 1   
    45   16   44 1   
    46   17   45 1   
    47   17   46 1   
@<TRIPOS>SUBSTRUCTURE
     1 XAO         1 TEMP              0 ****  ****    0 ROOT
