@<TRIPOS>MOLECULE
XAP
   16    15     1     0     0
SMALL
bcc


@<TRIPOS>ATOM
      1 N1         -2.5500    0.0010   -1.1680 n3        1 XAP     -0.915800
      2 C1         -1.1240    0.0010   -1.1680 c3        1 XAP      0.161800
      3 C2         -0.6200    0.0010    0.2590 c3        1 XAP     -0.093400
      4 C3          0.8930   -0.0010    0.2590 c3        1 XAP      0.142400
      5 O1          1.3620    0.0010    1.5870 os        1 XAP     -0.272100
      6 N2          2.7320   -0.0020    1.5950 n3        1 XAP     -0.659300
      7 HN11       -2.8540   -0.7440   -1.5980 hn        1 XAP      0.349800
      8 HN12       -2.8540    0.7460   -1.5970 hn        1 XAP      0.349800
      9 H11        -0.7990   -0.7960   -1.6280 h1        1 XAP      0.025200
     10 H12        -0.7990    0.7980   -1.6280 h1        1 XAP      0.025200
     11 H21        -0.9440    0.7980    0.7180 hc        1 XAP      0.059700
     12 H22        -0.9460   -0.7960    0.7190 hc        1 XAP      0.059700
     13 H31         1.2170   -0.7990   -0.2000 h1        1 XAP      0.040700
     14 H32         1.2190    0.7950   -0.2030 h1        1 XAP      0.040700
     15 HN21        3.0350    0.7440    2.0250 hn        1 XAP      0.342300
     16 HN22        3.0320   -0.7460    2.0290 hn        1 XAP      0.342300
@<TRIPOS>BOND
     1    1    2 1   
     2    1    7 1   
     3    1    8 1   
     4    2    3 1   
     5    2    9 1   
     6    2   10 1   
     7    3    4 1   
     8    3   11 1   
     9    3   12 1   
    10    4    5 1   
    11    4   13 1   
    12    4   14 1   
    13    5    6 1   
    14    6   15 1   
    15    6   16 1   
@<TRIPOS>SUBSTRUCTURE
     1 XAP         1 TEMP              0 ****  ****    0 ROOT
