@<TRIPOS>MOLECULE
XAP
   18    17     1     0     0
SMALL
bcc


@<TRIPOS>ATOM
      1 N1         -0.0530   -0.0050    0.0540 n4        1 XAP     -0.836600
      2 C1          1.4370    0.0080   -0.0030 c3        1 XAP      0.104800
      3 C2          2.0820    0.0040    1.3800 c3        1 XAP     -0.122400
      4 C3          3.5970    0.0180    1.2240 c3        1 XAP      0.106400
      5 O1          4.0670    0.0110    2.6120 os        1 XAP     -0.208100
      6 N2          5.4150    0.0220    2.8140 n4        1 XAP     -0.611100
      7 HN11       -0.3900   -0.8460    0.5390 hn        1 XAP      0.478467
      8 HN12       -0.4340   -0.0020   -0.9030 hn        1 XAP      0.478467
      9 H11         1.7480    0.9330   -0.5750 hx        1 XAP      0.125700
     10 H12         1.7640   -0.9030   -0.5880 hx        1 XAP      0.125700
     11 H21         1.7800   -0.9100    1.9620 hc        1 XAP      0.105700
     12 H22         1.7640    0.9040    1.9750 hc        1 XAP      0.105700
     13 H31         3.9570    0.9510    0.7160 h1        1 XAP      0.093700
     14 H32         3.9740   -0.9010    0.7020 h1        1 XAP      0.093700
     15 HN21        5.8590   -0.8220    2.4100 hn        1 XAP      0.493800
     16 HN22        5.5260    0.0150    3.8530 hn        1 XAP      0.493800
     17 H13        -0.4050    0.8220    0.5510 hn        1 XAP      0.478467
     18 H23         5.8450    0.8790    2.4230 hn        1 XAP      0.493800
@<TRIPOS>BOND
     1    1    2 1   
     2    1    7 1   
     3    1    8 1   
     4    1   17 1   
     5    2    3 1   
     6    2    9 1   
     7    2   10 1   
     8    3    4 1   
     9    3   11 1   
    10    3   12 1   
    11    4    5 1   
    12    4   13 1   
    13    4   14 1   
    14    5    6 1   
    15    6   15 1   
    16    6   16 1   
    17    6   18 1   
@<TRIPOS>SUBSTRUCTURE
     1 XAP         1 TEMP              0 ****  ****    0 ROOT
