@<TRIPOS>MOLECULE
XAP
   16    15     1     0     0
SMALL
bcc


@<TRIPOS>ATOM
      1 N1         -0.3770   -2.6460    0.6200 n3        1 XAP     -0.915800
      2 C1         -0.8830   -1.8830   -0.4960 c3        1 XAP      0.161800
      3 C2         -1.0390   -0.3960   -0.1850 c3        1 XAP     -0.093400
      4 C3         -1.6430    0.3060   -1.3870 c3        1 XAP      0.142400
      5 O1         -1.7030    1.7070   -1.0110 os        1 XAP     -0.272100
      6 N2         -2.2430    2.4900   -1.9670 n3        1 XAP     -0.659300
      7 HN11        0.4440   -2.2240    1.0040 hn        1 XAP      0.349800
      8 HN12       -0.1650   -3.5800    0.3330 hn        1 XAP      0.349800
      9 H11        -1.8940   -2.3080   -0.7590 h1        1 XAP      0.025200
     10 H12        -0.2340   -1.9800   -1.4180 h1        1 XAP      0.025200
     11 H21        -1.7000   -0.2480    0.7080 hc        1 XAP      0.059700
     12 H22        -0.0450    0.0630    0.0560 hc        1 XAP      0.059700
     13 H31        -1.0000    0.1890   -2.2970 h1        1 XAP      0.040700
     14 H32        -2.6740   -0.0730   -1.6050 h1        1 XAP      0.040700
     15 HN21       -1.5570    3.2140   -2.1660 hn        1 XAP      0.342300
     16 HN22       -3.0420    2.9540   -1.5420 hn        1 XAP      0.342300
@<TRIPOS>BOND
     1    1    2 1   
     2    1    7 1   
     3    1    8 1   
     4    2    3 1   
     5    2    9 1   
     6    2   10 1   
     7    3    4 1   
     8    3   11 1   
     9    3   12 1   
    10    4    5 1   
    11    4   13 1   
    12    4   14 1   
    13    5    6 1   
    14    6   15 1   
    15    6   16 1   
@<TRIPOS>SUBSTRUCTURE
     1 XAP         1 TEMP              0 ****  ****    0 ROOT
