@<TRIPOS>MOLECULE
XAP
   18    17     1     0     0
SMALL
bcc


@<TRIPOS>ATOM
      1 N1         -0.0540   -0.0010    0.0570 nz        1 XAP     -0.836600
      2 C1          1.4350    0.0070   -0.0020 c3        1 XAP      0.104800
      3 C2          2.0820    0.0060    1.3810 c3        1 XAP     -0.122400
      4 C3          3.5970    0.0140    1.2230 c3        1 XAP      0.106400
      5 O1          4.0690    0.0140    2.6110 os        1 XAP     -0.208100
      6 N2          5.4170    0.0200    2.8110 nz        1 XAP     -0.611100
      7 HN11       -0.3940   -0.8390    0.5450 hn        1 XAP      0.478467
      8 HN12       -0.4360    0.0010   -0.9000 hn        1 XAP      0.478467
      9 H11         1.7490    0.9290   -0.5770 hx        1 XAP      0.125700
     10 H12         1.7590   -0.9070   -0.5840 hx        1 XAP      0.125700
     11 H21         1.7770   -0.9050    1.9660 hc        1 XAP      0.105700
     12 H22         1.7680    0.9100    1.9730 hc        1 XAP      0.105700
     13 H31         3.9600    0.9440    0.7100 h1        1 XAP      0.093700
     14 H32         3.9700   -0.9090    0.7060 h1        1 XAP      0.093700
     15 HN21        5.8570   -0.8280    2.4110 hn        1 XAP      0.493800
     16 HN22        5.5290    0.0180    3.8490 hn        1 XAP      0.493800
     17 H13        -0.4030    0.8300    0.5520 hn        1 XAP      0.478467
     18 H23         5.8490    0.8730    2.4140 hn        1 XAP      0.493800
@<TRIPOS>BOND
     1    1    2 1   
     2    1    7 1   
     3    1    8 1   
     4    1   17 1   
     5    2    3 1   
     6    2    9 1   
     7    2   10 1   
     8    3    4 1   
     9    3   11 1   
    10    3   12 1   
    11    4    5 1   
    12    4   13 1   
    13    4   14 1   
    14    5    6 1   
    15    6   15 1   
    16    6   16 1   
    17    6   18 1   
@<TRIPOS>SUBSTRUCTURE
     1 XAP         1 TEMP              0 ****  ****    0 ROOT
