@<TRIPOS>MOLECULE
XAP
   18    17     1     0     0
SMALL
bcc


@<TRIPOS>ATOM
      1 N1         -0.0530   -0.0100    0.0550 n4        1 XAP     -0.836600
      2 C1          1.4360    0.0090   -0.0020 c3        1 XAP      0.104800
      3 C2          2.0820    0.0020    1.3800 c3        1 XAP     -0.122400
      4 C3          3.5970    0.0230    1.2240 c3        1 XAP      0.106400
      5 O1          4.0680    0.0070    2.6120 os        1 XAP     -0.208100
      6 N2          5.4160    0.0220    2.8120 n4        1 XAP     -0.611100
      7 HN11       -0.4080    0.8150    0.5560 hn        1 XAP      0.478467
      8 HN12       -0.4350   -0.0040   -0.9010 hn        1 XAP      0.478467
      9 H11         1.7660   -0.8980   -0.5910 hx        1 XAP      0.125700
     10 H12         1.7440    0.9370   -0.5710 hx        1 XAP      0.125700
     11 H21         1.7840   -0.9160    1.9590 hc        1 XAP      0.105700
     12 H22         1.7610    0.8980    1.9790 hc        1 XAP      0.105700
     13 H31         3.9770   -0.8900    0.6940 h1        1 XAP      0.093700
     14 H32         3.9540    0.9620    0.7240 h1        1 XAP      0.093700
     15 HN21        5.8650   -0.8150    2.4000 hn        1 XAP      0.493800
     16 HN22        5.5280    0.0060    3.8510 hn        1 XAP      0.493800
     17 H13        -0.3880   -0.8530    0.5380 hn        1 XAP      0.478467
     18 H23         5.8400    0.8850    2.4300 hn        1 XAP      0.493800
@<TRIPOS>BOND
     1    1    2 1   
     2    1    7 1   
     3    1    8 1   
     4    1   17 1   
     5    2    3 1   
     6    2    9 1   
     7    2   10 1   
     8    3    4 1   
     9    3   11 1   
    10    3   12 1   
    11    4    5 1   
    12    4   13 1   
    13    4   14 1   
    14    5    6 1   
    15    6   15 1   
    16    6   16 1   
    17    6   18 1   
@<TRIPOS>SUBSTRUCTURE
     1 XAP         1 TEMP              0 ****  ****    0 ROOT
