@<TRIPOS>MOLECULE
XAR
   37    39     1     0     0
SMALL
bcc


@<TRIPOS>ATOM
      1 O3P         5.9370   -4.3240   -1.8120 o         1 XAR     -0.931833
      2 O1P         6.9090   -1.9800   -2.2310 o         1 XAR     -0.931833
      3 P           5.8710   -2.8420   -1.5800 p5        1 XAR      1.331900
      4 O2P         5.4360   -2.4480   -0.1820 o         1 XAR     -0.931833
      5 O5'         4.4090   -2.4170   -2.4290 os        1 XAR     -0.564200
      6 C5'         3.3080   -3.1180   -2.0220 c3        1 XAR      0.250400
      7 C4'         2.3670   -2.2310   -1.1510 c3        1 XAR     -0.142500
      8 C3'         2.5840   -2.4940    0.3500 c3        1 XAR      0.180100
      9 O3'         3.1640   -1.3510    0.9590 oh        1 XAR     -0.695800
     10 C2'         1.2970   -2.7970    1.1270 c3        1 XAR     -0.094400
     11 C1'         0.1860   -1.8330    0.6760 c3        1 XAR      0.093200
     12 C7'        -0.0910   -2.1010   -0.7720 c2        1 XAR     -0.279200
     13 C6'         0.9540   -2.3110   -1.5860 c2        1 XAR     -0.069200
     14 N9         -0.9860   -1.8490    1.5400 na        1 XAR     -0.213000
     15 C8         -1.1210   -1.0270    2.6790 cc        1 XAR      0.413700
     16 N7         -2.2400   -1.2510    3.3940 nd        1 XAR     -0.589100
     17 C5         -2.8910   -2.2870    2.7160 ca        1 XAR     -0.220200
     18 C4         -2.1030   -2.6880    1.5430 ca        1 XAR      0.447800
     19 N3         -2.4980   -3.6950    0.7000 nb        1 XAR     -0.680000
     20 C6         -4.1140   -2.9880    2.9630 ca        1 XAR      0.700200
     21 N6         -4.9450   -2.5840    4.0090 nh        1 XAR     -0.929500
     22 N1         -4.4810   -4.0060    2.1290 nb        1 XAR     -0.801000
     23 C2         -3.6580   -4.2710    1.0690 ca        1 XAR      0.647900
     24 H5'1        2.7170   -3.4430   -2.9330 h1        1 XAR     -0.010800
     25 H5'2        3.6040   -4.0410   -1.4480 h1        1 XAR     -0.010800
     26 H4'         2.6980   -1.1630   -1.3440 hc        1 XAR      0.097700
     27 H3'         3.2860   -3.3690    0.4830 h1        1 XAR      0.099700
     28 H3T         4.1150   -1.3740    0.7010 ho        1 XAR      0.502000
     29 H2'1        1.5020   -2.6750    2.2200 hc        1 XAR      0.042200
     30 H2'2        0.9870   -3.8530    0.9330 hc        1 XAR      0.042200
     31 H1'         0.6050   -0.7790    0.7680 h1        1 XAR      0.082700
     32 H7'        -1.1310   -2.1270   -1.1170 ha        1 XAR      0.118000
     33 H6'         0.7910   -2.5100   -2.6590 ha        1 XAR      0.115000
     34 H8         -0.3520   -0.2820    2.9240 h5        1 XAR      0.079800
     35 HN61       -4.4790   -2.0790    4.7290 hn        1 XAR      0.406300
     36 HN62       -5.6060   -3.2540    4.3290 hn        1 XAR      0.406300
     37 H2         -4.0040   -5.0990    0.4170 h5        1 XAR      0.038100
@<TRIPOS>BOND
     1    1    3 1   
     2    2    3 1   
     3    3    4 1   
     4    3    5 1   
     5    5    6 1   
     6    6    7 1   
     7    6   24 1   
     8    6   25 1   
     9    7    8 1   
    10    7   13 1   
    11    7   26 1   
    12    8    9 1   
    13    8   10 1   
    14    8   27 1   
    15    9   28 1   
    16   10   11 1   
    17   10   29 1   
    18   10   30 1   
    19   11   12 1   
    20   11   14 1   
    21   11   31 1   
    22   12   13 2   
    23   12   32 1   
    24   13   33 1   
    25   14   15 1   
    26   14   18 1   
    27   15   16 2   
    28   15   34 1   
    29   16   17 1   
    30   17   18 ar  
    31   17   20 ar  
    32   18   19 ar  
    33   19   23 ar  
    34   20   21 1   
    35   20   22 ar  
    36   21   35 1   
    37   21   36 1   
    38   22   23 ar  
    39   23   37 1   
@<TRIPOS>SUBSTRUCTURE
     1 XAR         1 TEMP              0 ****  ****    0 ROOT
