@<TRIPOS>MOLECULE
XAR
   37    35     1     0     0
SMALL
bcc


@<TRIPOS>ATOM
      1 O3P        -2.8430   -3.2020    4.3460 o         1 XAR     -0.919833
      2 O1P        -4.2010   -3.8080    2.3880 o         1 XAR     -0.919833
      3 P          -2.8860   -4.0340    3.1040 p5        1 XAR      1.312900
      4 O2P        -2.7560   -5.5010    3.4720 o         1 XAR     -0.919833
      5 O5'        -1.6930   -3.6200    2.1540 os        1 XAR     -0.567200
      6 C5'        -1.5310   -2.2300    1.8230 c3        1 XAR      0.239400
      7 C4'        -0.8450   -2.1090    0.4740 c3        1 XAR     -0.237500
      8 C3'         0.8490   -1.7090    0.6710 c3        1 XAR      0.191100
      9 O3'         1.5290   -2.8730    1.4210 oh        1 XAR     -0.647800
     10 C2'         1.4300   -1.5240   -0.2950 c3        1 XAR     -0.103400
     11 C1'         0.8340   -0.3340   -1.2820 c3        1 XAR      0.114200
     12 C7'        -0.6280   -0.5050   -1.5650 c2        1 XAR     -0.348200
     13 C6'        -1.5260   -1.1840   -0.3540 c2        1 XAR     -0.000200
     14 N9          1.1210    0.9740   -0.7650 n3        1 XAR     -0.064400
     15 C8          2.4550    1.1650   -0.8940 c1        1 XAR      0.209400
     16 N7          2.6630    2.4610   -1.2300 ne        1 XAR     -0.439400
     17 C5          1.4470    3.0780   -1.3080 cg        1 XAR     -0.167000
     18 C4          0.4960    2.1640   -1.0220 c1        1 XAR      0.310500
     19 N3         -0.8210    2.5200   -1.0430 n1        1 XAR     -0.507800
     20 C6          1.0830    4.3780   -1.6230 c1        1 XAR      0.239800
     21 N6          1.8000    5.5720   -1.9080 n3        1 XAR     -0.798400
     22 N1         -0.2130    4.7250   -1.6430 n1        1 XAR     -0.604800
     23 C2         -1.1770    3.7940   -1.3520 c1        1 XAR      0.367300
     24 H5'1       -2.4260   -1.7920    1.7810 h1        1 XAR     -0.004800
     25 H5'2       -0.9780   -1.7880    2.5170 h1        1 XAR     -0.004800
     26 H4'        -0.9450   -3.0090    0.1360 hc        1 XAR      0.218700
     27 H3'         0.9130   -0.8870    1.2370 h1        1 XAR     -0.002300
     28 H3T         2.0100   -2.5430    2.1270 ho        1 XAR      0.474000
     29 H2'1        1.4500   -2.3530   -0.8000 hc        1 XAR      0.055200
     30 H2'2        2.3500   -1.2900   -0.0560 hc        1 XAR      0.055200
     31 H1'         1.3370   -0.3130   -2.1220 h1        1 XAR      0.062700
     32 H7'        -1.0650    0.0560   -2.2440 ha        1 XAR      0.103000
     33 H6'        -2.3200   -0.7260   -0.0210 ha        1 XAR      0.136000
     34 H8          3.1540    0.4870   -0.7450 DU        1 XAR      0.232000
     35 HN61        2.7090    5.6010   -1.7880 hn        1 XAR      0.411300
     36 HN62        1.3570    6.3060   -2.2240 hn        1 XAR      0.411300
     37 H2         -2.1330    4.0510   -1.3670 ha        1 XAR      0.110500
@<TRIPOS>BOND
     1    1    3 1   
     2    2    3 1   
     3    3    4 1   
     4    3    5 1   
     5    5    6 1   
     6    6    7 1   
     7    6   24 1   
     8    6   25 1   
     9    7    8 1   
    10    7   13 1   
    11    7   26 1   
    12    8    9 1   
    13    8   10 1   
    14    8   27 1   
    15    9   28 1   
    16   10   11 1   
    17   10   29 1   
    18   10   30 1   
    19   11   12 1   
    20   11   14 1   
    21   11   31 1   
    22   12   13 2   
    23   12   32 1   
    24   13   33 1   
    25   14   15 2   
    26   14   18 1   
    27   15   16 2   
    28   16   17 1   
    29   17   20 3   
    30   18   19 3   
    31   20   21 1   
    32   21   35 1   
    33   21   36 1   
    34   22   23 3   
    35   23   37 1   
@<TRIPOS>SUBSTRUCTURE
     1 XAR         1 TEMP              0 ****  ****    0 ROOT
