@<TRIPOS>MOLECULE
XAV
   32    34     1     0     0
SMALL
bcc


@<TRIPOS>ATOM
      1 N1         -0.0080    0.4070   -0.0180 nb        1 XAV     -0.764000
      2 C2          1.3190    0.0680    0.0140 cp        1 XAV      0.731500
      3 N3          2.0290   -0.2750    1.1330 nb        1 XAV     -0.704000
      4 C4          1.3540   -0.2870    2.3080 ca        1 XAV      0.463600
      5 C5         -0.0210    0.0380    2.4000 ca        1 XAV     -0.319900
      6 C6         -0.6550    0.3890    1.1760 ca        1 XAV      0.670600
      7 O6         -1.9850    0.7140    1.2340 oh        1 XAV     -0.604300
      8 FAB         3.9750    1.2710   -5.7640 f         1 XAV     -0.235967
      9 FAC         3.8190   -0.8860   -5.9060 f         1 XAV     -0.235967
     10 FAD         5.5320    0.0150   -4.9300 f         1 XAV     -0.235967
     11 CAE         1.4360   -0.4230   -2.4370 ca        1 XAV     -0.093000
     12 CAF         3.3560    0.5820   -1.3440 ca        1 XAV     -0.093000
     13 CAG         2.1230   -0.4140   -3.6500 ca        1 XAV     -0.093000
     14 CAH         4.0410    0.5910   -2.5580 ca        1 XAV     -0.093000
     15 CAI         1.8530    0.3930    4.6420 c3        1 XAV     -0.014300
     16 CAJ         2.0720   -0.6520    3.5760 c3        1 XAV     -0.134700
     17 CAK        -0.7420   -0.0030    3.6790 c3        1 XAV      0.052000
     18 SAN         0.1560    0.7140    5.0300 ss        1 XAV     -0.294200
     19 CAP         2.0510    0.0760   -1.2830 cp        1 XAV     -0.111500
     20 CAQ         3.4230    0.0940   -3.7060 ca        1 XAV     -0.153300
     21 CAU         4.1660    0.1200   -5.0370 c3        1 XAV      0.686200
     22 HO6        -2.3010    0.9620    0.3470 ho        1 XAV      0.450000
     23 HAE         0.4110   -0.8220   -2.3980 ha        1 XAV      0.157500
     24 HAF         3.8480    0.9720   -0.4390 ha        1 XAV      0.157500
     25 HAG         1.6470   -0.8100   -4.5610 ha        1 XAV      0.155000
     26 HAH         5.0690    0.9840   -2.6120 ha        1 XAV      0.155000
     27 HAI         2.3360    0.0610    5.5960 h1        1 XAV      0.079200
     28 HAIA        2.3290    1.3570    4.3350 h1        1 XAV      0.079200
     29 HAJ         1.6770   -1.6470    3.9210 hc        1 XAV      0.080200
     30 HAJA        3.1750   -0.7720    3.3970 hc        1 XAV      0.080200
     31 HAK        -1.7060    0.5670    3.6190 h1        1 XAV      0.092200
     32 HAKA       -0.9870   -1.0670    3.9350 h1        1 XAV      0.092200
@<TRIPOS>BOND
     1    1    2 ar  
     2    1    6 ar  
     3    2    3 ar  
     4    2   19 1   
     5    3    4 ar  
     6    4    5 ar  
     7    4   16 1   
     8    5    6 ar  
     9    5   17 1   
    10    6    7 1   
    11    7   22 1   
    12    8   21 1   
    13    9   21 1   
    14   10   21 1   
    15   11   13 ar  
    16   11   19 ar  
    17   11   23 1   
    18   12   14 ar  
    19   12   19 ar  
    20   12   24 1   
    21   13   20 ar  
    22   13   25 1   
    23   14   20 ar  
    24   14   26 1   
    25   15   16 1   
    26   15   18 1   
    27   15   27 1   
    28   15   28 1   
    29   16   29 1   
    30   16   30 1   
    31   17   18 1   
    32   17   31 1   
    33   17   32 1   
    34   20   21 1   
@<TRIPOS>SUBSTRUCTURE
     1 XAV         1 TEMP              0 ****  ****    0 ROOT
