@<TRIPOS>MOLECULE
XAV
   32    27     1     0     0
SMALL
bcc


@<TRIPOS>ATOM
      1 N1         -1.6770    0.0610   -0.1970 n1        1 XAV     -0.564800
      2 C2         -0.2210    0.0580   -0.2070 c1        1 XAV      0.422800
      3 N3          0.4980    0.0900    1.0070 n1        1 XAV     -0.510800
      4 C4         -0.1440    0.1210    2.1490 c1        1 XAV      0.076900
      5 C5         -1.6970    0.1240    2.1610 c1        1 XAV     -0.149100
      6 C6         -2.3680    0.0940    1.0060 c1        1 XAV      0.517400
      7 O6         -3.7730    0.1530    1.0090 oh        1 XAV     -0.463600
      8 FAB         2.9380    0.9590   -5.5440 f         1 XAV     -0.235967
      9 FAC         3.1090   -1.2140   -5.3680 f         1 XAV     -0.235967
     10 FAD         1.2910   -0.3240   -6.1950 f         1 XAV     -0.235967
     11 CAE         0.7280    1.1750   -2.1080 c1        1 XAV     -0.036500
     12 CAF         0.8000   -1.2200   -1.9640 c1        1 XAV     -0.035500
     13 CAG         1.3320    1.1180   -3.3540 c1        1 XAV     -0.035500
     14 CAH         1.4040   -1.2770   -3.2100 c1        1 XAV     -0.035500
     15 CAI        -0.1170   -0.2000    4.7800 c3        1 XAV     -0.022300
     16 CAJ         0.6760    0.0290    3.6570 c3        1 XAV     -0.070300
     17 CAK        -2.4300    0.2430    3.5700 c3        1 XAV      0.005800
     18 SAN        -1.5280    0.4790    4.7890 ss        1 XAV     -0.274200
     19 CAP         0.4620    0.0060   -1.4120 c1        1 XAV     -0.003000
     20 CAQ         1.6700   -0.1080   -3.9050 c1        1 XAV     -0.120100
     21 CAU         2.2700   -0.1730   -5.2930 c3        1 XAV      0.652000
     22 HO6        -4.0580    0.4690    0.2280 ho        1 XAV      0.449000
     23 HAE         0.4910    2.0390   -1.7190 ha        1 XAV      0.098500
     24 HAF         0.6120   -2.0430   -1.4750 ha        1 XAV      0.099000
     25 HAG         1.5200    1.9420   -3.8430 ha        1 XAV      0.097500
     26 HAH         1.6410   -2.1400   -3.5980 ha        1 XAV      0.099000
     27 HAI         0.3740    0.1340    5.5590 h1        1 XAV      0.081200
     28 HAIA       -0.2570   -1.1680    4.8490 h1        1 XAV      0.081200
     29 HAJ         1.3190   -0.7070    3.5970 hc        1 XAV      0.083200
     30 HAJA        1.1370    0.8830    3.7930 hc        1 XAV      0.083200
     31 HAK        -2.9330   -0.5830    3.7200 h1        1 XAV      0.091700
     32 HAKA       -3.0680    0.9830    3.5170 h1        1 XAV      0.091700
@<TRIPOS>BOND
     1    1    6 3   
     2    2    3 3   
     3    4    5 3   
     4    4   16 1   
     5    5   17 1   
     6    6    7 1   
     7    7   22 1   
     8    8   21 1   
     9    9   21 1   
    10   10   21 1   
    11   11   19 3   
    12   11   23 1   
    13   12   14 3   
    14   12   24 1   
    15   13   20 3   
    16   13   25 1   
    17   14   26 1   
    18   15   16 1   
    19   15   18 1   
    20   15   27 1   
    21   15   28 1   
    22   16   29 1   
    23   16   30 1   
    24   17   18 1   
    25   17   31 1   
    26   17   32 1   
    27   20   21 1   
@<TRIPOS>SUBSTRUCTURE
     1 XAV         1 TEMP              0 ****  ****    0 ROOT
