@<TRIPOS>MOLECULE
XAV
   32    34     1     0     0
SMALL
bcc


@<TRIPOS>ATOM
      1 N1          0.0050    0.4830    0.0300 nb        1 XAV     -0.764000
      2 C2          1.3180    0.0910    0.0490 cp        1 XAV      0.731500
      3 N3          2.0180   -0.3010    1.1580 nb        1 XAV     -0.704000
      4 C4          1.3480   -0.3080    2.3360 ca        1 XAV      0.463600
      5 C5         -0.0130    0.0690    2.4410 ca        1 XAV     -0.319900
      6 C6         -0.6370    0.4670    1.2270 ca        1 XAV      0.670600
      7 O6         -1.9540    0.8440    1.2970 oh        1 XAV     -0.604300
      8 FAB         3.3650    0.2560   -6.1140 f         1 XAV     -0.235967
      9 FAC         4.8360   -1.0820   -5.2540 f         1 XAV     -0.235967
     10 FAD         5.1190    1.0620   -5.1280 f         1 XAV     -0.235967
     11 CAE         1.4050   -0.3560   -2.4110 ca        1 XAV     -0.093000
     12 CAF         3.3670    0.5510   -1.3080 ca        1 XAV     -0.093000
     13 CAG         2.0880   -0.3530   -3.6260 ca        1 XAV     -0.093000
     14 CAH         4.0480    0.5540   -2.5240 ca        1 XAV     -0.093000
     15 CAI         1.8830    0.3050    4.6810 c3        1 XAV     -0.014300
     16 CAJ         2.0560   -0.7260    3.5930 c3        1 XAV     -0.134700
     17 CAK        -0.7290    0.0320    3.7230 c3        1 XAV      0.052000
     18 SAN         0.2020    0.6860    5.0820 ss        1 XAV     -0.294200
     19 CAP         2.0440    0.0960   -1.2500 cp        1 XAV     -0.111500
     20 CAQ         3.4070    0.1020   -3.6790 ca        1 XAV     -0.153300
     21 CAU         4.1580    0.0880   -5.0050 c3        1 XAV      0.686200
     22 HO6        -2.2630    1.1210    0.4170 ho        1 XAV      0.450000
     23 HAE         0.3640   -0.7130   -2.3750 ha        1 XAV      0.157500
     24 HAF         3.8770    0.9060   -0.3990 ha        1 XAV      0.157500
     25 HAG         1.5900   -0.7030   -4.5440 ha        1 XAV      0.155000
     26 HAH         5.0870    0.9160   -2.5780 ha        1 XAV      0.155000
     27 HAI         2.3560   -0.0630    5.6250 h1        1 XAV      0.079200
     28 HAIA        2.3960    1.2560    4.3900 h1        1 XAV      0.079200
     29 HAJ         3.1530   -0.8870    3.4070 hc        1 XAV      0.080200
     30 HAJA        1.6230   -1.7120    3.9210 hc        1 XAV      0.080200
     31 HAK        -1.6710    0.6400    3.6780 h1        1 XAV      0.092200
     32 HAKA       -1.0160   -1.0270    3.9600 h1        1 XAV      0.092200
@<TRIPOS>BOND
     1    1    2 ar  
     2    1    6 ar  
     3    2    3 ar  
     4    2   19 1   
     5    3    4 ar  
     6    4    5 ar  
     7    4   16 1   
     8    5    6 ar  
     9    5   17 1   
    10    6    7 1   
    11    7   22 1   
    12    8   21 1   
    13    9   21 1   
    14   10   21 1   
    15   11   13 ar  
    16   11   19 ar  
    17   11   23 1   
    18   12   14 ar  
    19   12   19 ar  
    20   12   24 1   
    21   13   20 ar  
    22   13   25 1   
    23   14   20 ar  
    24   14   26 1   
    25   15   16 1   
    26   15   18 1   
    27   15   27 1   
    28   15   28 1   
    29   16   29 1   
    30   16   30 1   
    31   17   18 1   
    32   17   31 1   
    33   17   32 1   
    34   20   21 1   
@<TRIPOS>SUBSTRUCTURE
     1 XAV         1 TEMP              0 ****  ****    0 ROOT
