@<TRIPOS>MOLECULE
XAV
   32    34     1     0     0
SMALL
bcc


@<TRIPOS>ATOM
      1 N1          1.1390    1.5210    0.3320 nb        1 XAV     -0.765000
      2 C2          0.6190    0.2720    0.1180 cp        1 XAV      0.731500
      3 N3          1.3440   -0.8760   -0.0520 nb        1 XAV     -0.704000
      4 C4          2.6930   -0.7640   -0.0030 ca        1 XAV      0.463600
      5 C5          3.3470    0.4720    0.2210 ca        1 XAV     -0.319900
      6 C6          2.4950    1.6000    0.3810 ca        1 XAV      0.670600
      7 O6          3.0980    2.8100    0.6020 oh        1 XAV     -0.604300
      8 FAB        -5.6110   -0.8910   -1.1920 f         1 XAV     -0.235967
      9 FAC        -5.8290    1.0040   -0.1660 f         1 XAV     -0.235967
     10 FAD        -5.7240   -0.8380    0.9710 f         1 XAV     -0.235967
     11 CAE        -1.6190    1.1330   -0.5950 ca        1 XAV     -0.093500
     12 CAF        -1.5010   -0.9290    0.6790 ca        1 XAV     -0.093500
     13 CAG        -3.0080    1.0220   -0.6440 ca        1 XAV     -0.093000
     14 CAH        -2.8900   -1.0380    0.6300 ca        1 XAV     -0.093000
     15 CAI         4.5980   -1.7440   -1.2560 c3        1 XAV     -0.014300
     16 CAJ         3.5500   -1.9820   -0.1970 c3        1 XAV     -0.134700
     17 CAK         4.8110    0.5710    0.2980 c3        1 XAV      0.052000
     18 SAN         5.6570   -0.3580   -0.9530 ss        1 XAV     -0.295200
     19 CAP        -0.8640    0.1570    0.0670 cp        1 XAV     -0.111500
     20 CAQ        -3.6390   -0.0620   -0.0310 ca        1 XAV     -0.153300
     21 CAU        -5.1560   -0.1920   -0.1000 c3        1 XAV      0.686200
     22 HO6         2.4210    3.5040    0.6840 ho        1 XAV      0.450000
     23 HAE        -1.1260    1.9910   -1.0780 ha        1 XAV      0.157000
     24 HAF        -0.9140   -1.7030    1.1980 ha        1 XAV      0.157000
     25 HAG        -3.6080    1.7890   -1.1590 ha        1 XAV      0.155000
     26 HAH        -3.3980   -1.8870    1.1140 ha        1 XAV      0.155000
     27 HAI         5.2660   -2.6390   -1.3310 h1        1 XAV      0.079700
     28 HAIA        4.1080   -1.5990   -2.2510 h1        1 XAV      0.079700
     29 HAJ         4.0410   -2.2200    0.7870 hc        1 XAV      0.079700
     30 HAJA        2.9290   -2.8730   -0.4860 hc        1 XAV      0.079700
     31 HAK         5.1520    1.6320    0.1720 h1        1 XAV      0.092200
     32 HAKA        5.1560    0.2160    1.3040 h1        1 XAV      0.092200
@<TRIPOS>BOND
     1    1    2 ar  
     2    1    6 ar  
     3    2    3 ar  
     4    2   19 1   
     5    3    4 ar  
     6    4    5 ar  
     7    4   16 1   
     8    5    6 ar  
     9    5   17 1   
    10    6    7 1   
    11    7   22 1   
    12    8   21 1   
    13    9   21 1   
    14   10   21 1   
    15   11   13 ar  
    16   11   19 ar  
    17   11   23 1   
    18   12   14 ar  
    19   12   19 ar  
    20   12   24 1   
    21   13   20 ar  
    22   13   25 1   
    23   14   20 ar  
    24   14   26 1   
    25   15   16 1   
    26   15   18 1   
    27   15   27 1   
    28   15   28 1   
    29   16   29 1   
    30   16   30 1   
    31   17   18 1   
    32   17   31 1   
    33   17   32 1   
    34   20   21 1   
@<TRIPOS>SUBSTRUCTURE
     1 XAV         1 TEMP              0 ****  ****    0 ROOT
