@<TRIPOS>MOLECULE
XAZ
   22    23     1     0     0
SMALL
bcc


@<TRIPOS>ATOM
      1 C1          3.4940   -1.2880   -0.0310 c3        1 XAZ     -0.154400
      2 C2          2.1100   -0.7240   -0.0130 cc        1 XAZ      0.455600
      3 C3          2.0020    0.7130    0.0140 cc        1 XAZ     -0.327300
      4 C4          0.7620    1.3280    0.0320 cd        1 XAZ      0.062400
      5 C5          0.6140    2.8090    0.0630 c3        1 XAZ     -0.060800
      6 N6         -0.3650    0.5120    0.0200 na        1 XAZ      0.046200
      7 N7         -1.6570    0.8700    0.0290 nc        1 XAZ     -0.621100
      8 C8         -2.3780   -0.3200    0.0320 cd        1 XAZ      0.559500
      9 N9         -3.7630   -0.4050    0.1430 nh        1 XAZ     -0.853800
     10 C10        -1.4900   -1.4680    0.0020 cd        1 XAZ     -0.352600
     11 C11        -0.1850   -0.9300   -0.0020 cd        1 XAZ      0.389500
     12 N12         1.0520   -1.5310   -0.0210 nd        1 XAZ     -0.649000
     13 H11C        4.0390   -0.9490    0.8840 hc        1 XAZ      0.058700
     14 H12C        3.4990   -2.4050   -0.0570 hc        1 XAZ      0.058700
     15 H13C        4.0330   -0.9070   -0.9340 hc        1 XAZ      0.058700
     16 H3          2.9160    1.3190    0.0210 ha        1 XAZ      0.156000
     17 H51C        1.6210    3.2920    0.0740 hc        1 XAZ      0.066367
     18 H52C        0.0500    3.1640   -0.8360 hc        1 XAZ      0.066367
     19 H53C        0.0480    3.1260    0.9760 hc        1 XAZ      0.066367
     20 H91N       -4.2560    0.4330   -0.0820 hn        1 XAZ      0.397300
     21 H92N       -4.1320   -1.2120   -0.3120 hn        1 XAZ      0.397300
     22 H10        -1.7670   -2.5150    0.0010 ha        1 XAZ      0.179000
@<TRIPOS>BOND
     1    1    2 1   
     2    1   13 1   
     3    1   14 1   
     4    1   15 1   
     5    2    3 1   
     6    2   12 2   
     7    3    4 2   
     8    3   16 1   
     9    4    5 1   
    10    4    6 1   
    11    5   17 1   
    12    5   18 1   
    13    5   19 1   
    14    6    7 1   
    15    6   11 1   
    16    7    8 2   
    17    8    9 1   
    18    8   10 1   
    19    9   20 1   
    20    9   21 1   
    21   10   11 2   
    22   10   22 1   
    23   11   12 1   
@<TRIPOS>SUBSTRUCTURE
     1 XAZ         1 TEMP              0 ****  ****    0 ROOT
