@<TRIPOS>MOLECULE
XAZ
   23    24     1     0     0
SMALL
bcc


@<TRIPOS>ATOM
      1 C1         -0.0180    0.0890    0.0270 c3        1 XAZ     -0.171400
      2 C2          1.4710    0.0480   -0.0620 cc        1 XAZ      0.491600
      3 C3          2.2000    0.0020    1.1880 cc        1 XAZ     -0.262300
      4 C4          3.5780   -0.0380    1.2190 cd        1 XAZ      0.049400
      5 C5          4.3580   -0.0860    2.4830 c3        1 XAZ     -0.072800
      6 N6          4.2450   -0.0340   -0.0220 na        1 XAZ      0.074200
      7 N7          5.5500   -0.0670   -0.2560 nc        1 XAZ     -0.524100
      8 C8          5.6650   -0.0430   -1.6460 cd        1 XAZ      0.335500
      9 N9          6.9490   -0.0670   -2.3180 n4        1 XAZ     -0.735600
     10 C10         4.3960    0.0060   -2.3040 cd        1 XAZ     -0.264600
     11 C11         3.4530    0.0130   -1.2360 cd        1 XAZ      0.400500
     12 N12         2.0830    0.0530   -1.2460 nd        1 XAZ     -0.626000
     13 H11C       -0.3240    0.9980    0.6050 hc        1 XAZ      0.081367
     14 H12C       -0.5070    0.1230   -0.9780 hc        1 XAZ      0.081367
     15 H13C       -0.3770   -0.8220    0.5700 hc        1 XAZ      0.081367
     16 H3          1.6310    0.0000    2.1310 ha        1 XAZ      0.187000
     17 H51C        4.9840   -1.0130    2.5270 hc        1 XAZ      0.083367
     18 H52C        3.6600   -0.0830    3.3570 hc        1 XAZ      0.083367
     19 H53C        5.0370    0.8010    2.5620 hc        1 XAZ      0.083367
     20 H91N        6.7840   -0.0430   -3.3320 hn        1 XAZ      0.472467
     21 H92N        7.5070    0.7500   -2.0380 hn        1 XAZ      0.472467
     22 H10         4.1670    0.0340   -3.3660 ha        1 XAZ      0.206000
     23 H93         7.4590   -0.9250   -2.0710 hn        1 XAZ      0.472467
@<TRIPOS>BOND
     1    1    2 1   
     2    1   13 1   
     3    1   14 1   
     4    1   15 1   
     5    2    3 1   
     6    2   12 2   
     7    3    4 2   
     8    3   16 1   
     9    4    5 1   
    10    4    6 1   
    11    5   17 1   
    12    5   18 1   
    13    5   19 1   
    14    6    7 1   
    15    6   11 1   
    16    7    8 2   
    17    8    9 1   
    18    8   10 1   
    19    9   20 1   
    20    9   21 1   
    21    9   23 1   
    22   10   11 2   
    23   10   22 1   
    24   11   12 1   
@<TRIPOS>SUBSTRUCTURE
     1 XAZ         1 TEMP              0 ****  ****    0 ROOT
