@<TRIPOS>MOLECULE
XAZ
   22    23     1     0     0
SMALL
bcc


@<TRIPOS>ATOM
      1 C1         -0.0060   -0.0650    0.0230 c3        1 XAZ     -0.154400
      2 C2          1.4870   -0.0310   -0.0650 cc        1 XAZ      0.455600
      3 C3          2.2040    0.0060    1.1850 cc        1 XAZ     -0.327300
      4 C4          3.5870    0.0400    1.2050 cd        1 XAZ      0.062400
      5 C5          4.3590    0.0810    2.4770 c3        1 XAZ     -0.060800
      6 N6          4.2520    0.0320   -0.0170 na        1 XAZ      0.046200
      7 N7          5.5720    0.0560   -0.2510 nc        1 XAZ     -0.621100
      8 C8          5.7100    0.0570   -1.6350 cd        1 XAZ      0.559500
      9 N9          6.9220    0.1790   -2.3090 nv        1 XAZ     -0.853800
     10 C10         4.4140    0.0110   -2.2890 cd        1 XAZ     -0.352600
     11 C11         3.4690   -0.0000   -1.2400 cd        1 XAZ      0.389500
     12 N12         2.0940   -0.0340   -1.2490 nd        1 XAZ     -0.649000
     13 H11C       -0.4910   -0.1010   -0.9830 hc        1 XAZ      0.058700
     14 H12C       -0.3610    0.8500    0.5590 hc        1 XAZ      0.058700
     15 H13C       -0.3170   -0.9670    0.6040 hc        1 XAZ      0.058700
     16 H3          1.6400    0.0100    2.1260 ha        1 XAZ      0.156000
     17 H51C        5.0300   -0.8110    2.5570 hc        1 XAZ      0.066367
     18 H52C        4.9960    1.0010    2.5180 hc        1 XAZ      0.066367
     19 H53C        3.6580    0.0870    3.3470 hc        1 XAZ      0.066367
     20 H91N        7.7300   -0.0360   -1.7650 hn        1 XAZ      0.397300
     21 H92N        6.9110   -0.2770   -3.1960 hn        1 XAZ      0.397300
     22 H10         4.2120    0.0060   -3.3520 ha        1 XAZ      0.179000
@<TRIPOS>BOND
     1    1    2 1   
     2    1   13 1   
     3    1   14 1   
     4    1   15 1   
     5    2    3 1   
     6    2   12 2   
     7    3    4 2   
     8    3   16 1   
     9    4    5 1   
    10    4    6 1   
    11    5   17 1   
    12    5   18 1   
    13    5   19 1   
    14    6    7 1   
    15    6   11 1   
    16    7    8 2   
    17    8    9 1   
    18    8   10 1   
    19    9   20 1   
    20    9   21 1   
    21   10   11 2   
    22   10   22 1   
    23   11   12 1   
@<TRIPOS>SUBSTRUCTURE
     1 XAZ         1 TEMP              0 ****  ****    0 ROOT
