@<TRIPOS>MOLECULE
XAZ
   22    23     1     0     0
SMALL
bcc


@<TRIPOS>ATOM
      1 C1         -0.0060    0.0100    0.0190 c3        1 XAZ     -0.154400
      2 C2          1.4860    0.0030   -0.0670 cc        1 XAZ      0.455600
      3 C3          2.2030    0.0010    1.1840 cc        1 XAZ     -0.327300
      4 C4          3.5860   -0.0060    1.2050 cd        1 XAZ      0.062400
      5 C5          4.3570   -0.0110    2.4790 c3        1 XAZ     -0.060800
      6 N6          4.2520   -0.0060   -0.0160 na        1 XAZ      0.046200
      7 N7          5.5730   -0.0090   -0.2490 nc        1 XAZ     -0.621100
      8 C8          5.7120   -0.0300   -1.6320 cd        1 XAZ      0.559500
      9 N9          6.9260   -0.1410   -2.3040 nh        1 XAZ     -0.853800
     10 C10         4.4160   -0.0210   -2.2880 cd        1 XAZ     -0.352600
     11 C11         3.4700   -0.0100   -1.2400 cd        1 XAZ      0.389500
     12 N12         2.0940   -0.0020   -1.2500 nd        1 XAZ     -0.649000
     13 H11C       -0.3450   -0.9020    0.5700 hc        1 XAZ      0.058700
     14 H12C       -0.3360    0.9160    0.5860 hc        1 XAZ      0.058700
     15 H13C       -0.4920    0.0210   -0.9870 hc        1 XAZ      0.058700
     16 H3          1.6380    0.0030    2.1240 ha        1 XAZ      0.156000
     17 H51C        3.6560   -0.0150    3.3480 hc        1 XAZ      0.066700
     18 H52C        5.0120    0.8940    2.5430 hc        1 XAZ      0.066700
     19 H53C        5.0120   -0.9180    2.5350 hc        1 XAZ      0.066700
     20 H91N        7.7300    0.0980   -1.7630 hn        1 XAZ      0.397300
     21 H92N        6.9080    0.2990   -3.1980 hn        1 XAZ      0.397300
     22 H10         4.2150   -0.0370   -3.3510 ha        1 XAZ      0.179000
@<TRIPOS>BOND
     1    1    2 1   
     2    1   13 1   
     3    1   14 1   
     4    1   15 1   
     5    2    3 1   
     6    2   12 2   
     7    3    4 2   
     8    3   16 1   
     9    4    5 1   
    10    4    6 1   
    11    5   17 1   
    12    5   18 1   
    13    5   19 1   
    14    6    7 1   
    15    6   11 1   
    16    7    8 2   
    17    8    9 1   
    18    8   10 1   
    19    9   20 1   
    20    9   21 1   
    21   10   11 2   
    22   10   22 1   
    23   11   12 1   
@<TRIPOS>SUBSTRUCTURE
     1 XAZ         1 TEMP              0 ****  ****    0 ROOT
