@<TRIPOS>MOLECULE
XBB
   17    17     1     0     0
SMALL
bcc


@<TRIPOS>ATOM
      1 C2          0.1580    0.0450   -1.8150 c2        1 XBB      0.411200
      2 N1          1.2640   -0.0500   -1.1730 n2        1 XBB     -0.582900
      3 C3         -1.2220    0.1170   -1.2360 c3        1 XBB     -0.173700
      4 C6          1.2730   -0.1140    0.2620 c3        1 XBB      0.093800
      5 C5         -0.0440    0.3180    0.9650 c3        1 XBB      0.144500
      6 C4         -1.2370   -0.3010    0.2210 c3        1 XBB     -0.080400
      7 N7         -0.0290   -0.0530    2.3690 n3        1 XBB     -0.910800
      8 HC2         0.2180    0.0850   -2.9210 h4        1 XBB      0.016800
      9 HC31       -1.9090   -0.5450   -1.8250 hc        1 XBB      0.059200
     10 HC32       -1.5960    1.1700   -1.3410 hc        1 XBB      0.059200
     11 HC61        2.1100    0.5520    0.6140 h1        1 XBB      0.071700
     12 HC62        1.5300   -1.1730    0.5520 h1        1 XBB      0.071700
     13 HC5        -0.1290    1.4440    0.8410 h1        1 XBB      0.011700
     14 HC41       -1.1850   -1.4190    0.2960 hc        1 XBB      0.052200
     15 HC42       -2.1990    0.0250    0.6950 hc        1 XBB      0.052200
     16 HN71        0.7470    0.3780    2.8310 hn        1 XBB      0.352300
     17 HN72       -0.8810    0.2290    2.8100 hn        1 XBB      0.352300
@<TRIPOS>BOND
     1    1    2 2   
     2    1    3 1   
     3    1    8 1   
     4    2    4 1   
     5    3    6 1   
     6    3    9 1   
     7    3   10 1   
     8    4    5 1   
     9    4   11 1   
    10    4   12 1   
    11    5    6 1   
    12    5    7 1   
    13    5   13 1   
    14    6   14 1   
    15    6   15 1   
    16    7   16 1   
    17    7   17 1   
@<TRIPOS>SUBSTRUCTURE
     1 XBB         1 TEMP              0 ****  ****    0 ROOT
