@<TRIPOS>MOLECULE
XBB
   18    18     1     0     0
SMALL
bcc


@<TRIPOS>ATOM
      1 C2          0.0220   -0.0460   -0.0110 c2        1 XBB      0.438200
      2 N1          1.3040   -0.0290   -0.0510 n2        1 XBB     -0.555900
      3 C3         -0.8410    0.0040    1.2130 c3        1 XBB     -0.180700
      4 C6          2.0830    0.0280    1.1510 c3        1 XBB      0.086800
      5 C5          1.2910    0.4150    2.4320 c3        1 XBB      0.072500
      6 C4         -0.0520   -0.3190    2.4700 c3        1 XBB     -0.105400
      7 N7          2.1030    0.1400    3.6660 nz        1 XBB     -0.835600
      8 HC2        -0.5110   -0.0940   -0.9850 h4        1 XBB      0.063800
      9 HC31       -1.3000    1.0270    1.2880 hc        1 XBB      0.097200
     10 HC32       -1.6830   -0.7330    1.1090 hc        1 XBB      0.097200
     11 HC61        2.8930    0.7940    0.9790 h1        1 XBB      0.087700
     12 HC62        2.5710   -0.9810    1.2840 h1        1 XBB      0.087700
     13 HC5         1.1010    1.5320    2.4210 hx        1 XBB      0.117700
     14 HC41        0.1170   -1.4280    2.5270 hc        1 XBB      0.073700
     15 HC42       -0.6470   -0.0120    3.3700 hc        1 XBB      0.073700
     16 HN71        2.9890    0.6520    3.6160 hn        1 XBB      0.460800
     17 HN72        2.3020   -0.8630    3.7370 hn        1 XBB      0.460800
     18 H73         1.5840    0.4350    4.4980 hn        1 XBB      0.460800
@<TRIPOS>BOND
     1    1    2 2   
     2    1    3 1   
     3    1    8 1   
     4    2    4 1   
     5    3    6 1   
     6    3    9 1   
     7    3   10 1   
     8    4    5 1   
     9    4   11 1   
    10    4   12 1   
    11    5    6 1   
    12    5    7 1   
    13    5   13 1   
    14    6   14 1   
    15    6   15 1   
    16    7   16 1   
    17    7   17 1   
    18    7   18 1   
@<TRIPOS>SUBSTRUCTURE
     1 XBB         1 TEMP              0 ****  ****    0 ROOT
