@<TRIPOS>MOLECULE
XBB
   18    18     1     0     0
SMALL
bcc


@<TRIPOS>ATOM
      1 C2          0.0200   -0.0290   -0.0110 c2        1 XBB      0.438200
      2 N1          1.3020   -0.0040   -0.0520 n2        1 XBB     -0.555900
      3 C3         -0.8410    0.0030    1.2150 c3        1 XBB     -0.180700
      4 C6          2.0820    0.0430    1.1490 c3        1 XBB      0.086800
      5 C5          1.2900    0.4110    2.4360 c3        1 XBB      0.072500
      6 C4         -0.0500   -0.3300    2.4670 c3        1 XBB     -0.105400
      7 N7          2.1050    0.1270    3.6650 n4        1 XBB     -0.835600
      8 HC2        -0.5140   -0.0680   -0.9850 h4        1 XBB      0.063800
      9 HC31       -1.3060    1.0230    1.3020 hc        1 XBB      0.097200
     10 HC32       -1.6800   -0.7370    1.1040 hc        1 XBB      0.097200
     11 HC61        2.8880    0.8150    0.9850 h1        1 XBB      0.087700
     12 HC62        2.5750   -0.9650    1.2700 h1        1 XBB      0.087700
     13 HC5         1.0940    1.5270    2.4380 hx        1 XBB      0.117700
     14 HC41       -0.6450   -0.0360    3.3720 hc        1 XBB      0.073700
     15 HC42        0.1250   -1.4380    2.5120 hc        1 XBB      0.073700
     16 HN71        1.5850    0.4110    4.5010 hn        1 XBB      0.460800
     17 HN72        2.9880    0.6440    3.6200 hn        1 XBB      0.460800
     18 H73         2.3090   -0.8760    3.7260 hn        1 XBB      0.460800
@<TRIPOS>BOND
     1    1    2 2   
     2    1    3 1   
     3    1    8 1   
     4    2    4 1   
     5    3    6 1   
     6    3    9 1   
     7    3   10 1   
     8    4    5 1   
     9    4   11 1   
    10    4   12 1   
    11    5    6 1   
    12    5    7 1   
    13    5   13 1   
    14    6   14 1   
    15    6   15 1   
    16    7   16 1   
    17    7   17 1   
    18    7   18 1   
@<TRIPOS>SUBSTRUCTURE
     1 XBB         1 TEMP              0 ****  ****    0 ROOT
