@<TRIPOS>MOLECULE
XBB
   18    18     1     0     0
SMALL
bcc


@<TRIPOS>ATOM
      1 C2          0.0210   -0.0380   -0.0100 c2        1 XBB      0.438200
      2 N1          1.3030   -0.0140   -0.0510 n2        1 XBB     -0.555900
      3 C3         -0.8410    0.0010    1.2150 c3        1 XBB     -0.180700
      4 C6          2.0830    0.0410    1.1490 c3        1 XBB      0.086800
      5 C5          1.2900    0.4170    2.4340 c3        1 XBB      0.072500
      6 C4         -0.0490   -0.3240    2.4700 c3        1 XBB     -0.105400
      7 N7          2.1060    0.1400    3.6650 n4        1 XBB     -0.835600
      8 HC2        -0.5130   -0.0840   -0.9840 h4        1 XBB      0.063800
      9 HC31       -1.3050    1.0210    1.2950 hc        1 XBB      0.097200
     10 HC32       -1.6790   -0.7400    1.1080 hc        1 XBB      0.097200
     11 HC61        2.5760   -0.9660    1.2770 h1        1 XBB      0.087700
     12 HC62        2.8890    0.8120    0.9800 h1        1 XBB      0.087700
     13 HC5         1.0950    1.5330    2.4290 hx        1 XBB      0.117700
     14 HC41        0.1260   -1.4320    2.5210 hc        1 XBB      0.073700
     15 HC42       -0.6440   -0.0240    3.3720 hc        1 XBB      0.073700
     16 HN71        2.3100   -0.8620    3.7310 hn        1 XBB      0.460800
     17 HN72        2.9890    0.6570    3.6160 hn        1 XBB      0.460800
     18 H73         1.5860    0.4290    4.4990 hn        1 XBB      0.460800
@<TRIPOS>BOND
     1    1    2 2   
     2    1    3 1   
     3    1    8 1   
     4    2    4 1   
     5    3    6 1   
     6    3    9 1   
     7    3   10 1   
     8    4    5 1   
     9    4   11 1   
    10    4   12 1   
    11    5    6 1   
    12    5    7 1   
    13    5   13 1   
    14    6   14 1   
    15    6   15 1   
    16    7   16 1   
    17    7   17 1   
    18    7   18 1   
@<TRIPOS>SUBSTRUCTURE
     1 XBB         1 TEMP              0 ****  ****    0 ROOT
