@<TRIPOS>MOLECULE
XBG
   23    24     1     0     0
SMALL
bcc


@<TRIPOS>ATOM
      1 NBB         0.1250   -0.9150   -1.1330 n3        1 XBG     -0.797200
      2 CAZ         1.0220    0.1320   -0.6260 c3        1 XBG      0.027500
      3 CAT         1.8450   -0.2610    0.6410 c         1 XBG      0.900600
      4 OAC         1.6880   -1.4160    1.1300 o         1 XBG     -0.842800
      5 CAN        -2.1270    1.1350    0.7080 c3        1 XBG     -0.072400
      6 OAF         2.6340    0.6090    1.1040 o         1 XBG     -0.842800
      7 CAQ         0.1990    1.4040   -0.3440 c3        1 XBG     -0.064400
      8 CAY        -1.2650    1.0270   -0.5430 c3        1 XBG     -0.076700
      9 CBA        -1.2580   -0.4720   -0.9700 c3        1 XBG      0.171500
     10 CAL        -2.9080   -0.1670    0.8240 c3        1 XBG     -0.071400
     11 CAO        -2.1170   -1.2210    0.0670 c3        1 XBG     -0.101400
     12 HBB         0.2920   -1.7590   -0.6030 hn        1 XBG      0.376800
     13 HBA        -1.7460   -0.5780   -1.9800 h1        1 XBG      0.029700
     14 HAZ         1.7670    0.3380   -1.4450 h1        1 XBG      0.045700
     15 HAO1       -2.7970   -1.9480   -0.4390 hc        1 XBG      0.044700
     16 HAO2       -1.4710   -1.7960    0.7800 hc        1 XBG      0.044700
     17 HAY        -1.7140    1.6460   -1.3610 hc        1 XBG      0.027700
     18 HAL1       -3.0450   -0.4580    1.8940 hc        1 XBG      0.022200
     19 HAL2       -3.9260   -0.0470    0.3750 hc        1 XBG      0.022200
     20 HAN1       -1.4850    1.2750    1.6150 hc        1 XBG      0.035700
     21 HAN2       -2.8180    2.0110    0.6450 hc        1 XBG      0.035700
     22 HAQ1        0.4090    1.7690    0.6920 hc        1 XBG      0.042200
     23 HAQ2        0.4900    2.2170   -1.0530 hc        1 XBG      0.042200
@<TRIPOS>BOND
     1    1    2 1   
     2    1    9 1   
     3    1   12 1   
     4    2    3 1   
     5    2    7 1   
     6    2   14 1   
     7    3    4 1   
     8    3    6 1   
     9    5    8 1   
    10    5   10 1   
    11    5   20 1   
    12    5   21 1   
    13    7    8 1   
    14    7   22 1   
    15    7   23 1   
    16    8    9 1   
    17    8   17 1   
    18    9   11 1   
    19    9   13 1   
    20   10   11 1   
    21   10   18 1   
    22   10   19 1   
    23   11   15 1   
    24   11   16 1   
@<TRIPOS>SUBSTRUCTURE
     1 XBG         1 TEMP              0 ****  ****    0 ROOT
