@<TRIPOS>MOLECULE
XBG
   23    24     1     0     0
SMALL
bcc


@<TRIPOS>ATOM
      1 NBB         0.1520    0.2510   -0.0910 n3        1 XBG     -0.783200
      2 CAZ         1.5800   -0.0430    0.0840 c3        1 XBG      0.048500
      3 CAT         1.9840   -1.4080   -0.5600 c         1 XBG      0.934600
      4 OAC         2.2520   -2.3780    0.1990 o         1 XBG     -0.839300
      5 CAN         0.0800    0.2210    3.4050 c3        1 XBG     -0.068400
      6 OAF         2.0670   -1.4290   -1.8190 o         1 XBG     -0.839300
      7 CAQ         1.8870    0.0280    1.5890 c3        1 XBG     -0.077400
      8 CAY         0.7620    0.8570    2.2040 c3        1 XBG     -0.074700
      9 CBA        -0.3140    0.9900    1.0810 c3        1 XBG      0.173500
     10 CAL        -1.4210    0.3170    3.1700 c3        1 XBG     -0.073400
     11 CAO        -1.6280    0.4410    1.6680 c3        1 XBG     -0.074400
     12 HBB         0.0040    0.7710   -0.9320 hn        1 XBG      0.347800
     13 HBA        -0.4690    2.0830    0.8470 h1        1 XBG     -0.003300
     14 HAZ         2.2060    0.7410   -0.4410 h1        1 XBG     -0.000300
     15 HAO1       -1.8730   -0.5600    1.2310 hc        1 XBG      0.041700
     16 HAO2       -2.4760    1.1310    1.4360 hc        1 XBG      0.041700
     17 HAY         1.1390    1.8740    2.4800 hc        1 XBG      0.023700
     18 HAL1       -1.8370    1.2150    3.6940 hc        1 XBG      0.020700
     19 HAL2       -1.9480   -0.5810    3.5750 hc        1 XBG      0.020700
     20 HAN1        0.3690    0.7390    4.3530 hc        1 XBG      0.035700
     21 HAN2        0.3820   -0.8540    3.5030 hc        1 XBG      0.035700
     22 HAQ1        2.8810    0.5010    1.7660 hc        1 XBG      0.054200
     23 HAQ2        1.9180   -1.0140    2.0010 hc        1 XBG      0.054200
@<TRIPOS>BOND
     1    1    2 1   
     2    1    9 1   
     3    1   12 1   
     4    2    3 1   
     5    2    7 1   
     6    2   14 1   
     7    3    4 1   
     8    3    6 1   
     9    5    8 1   
    10    5   10 1   
    11    5   20 1   
    12    5   21 1   
    13    7    8 1   
    14    7   22 1   
    15    7   23 1   
    16    8    9 1   
    17    8   17 1   
    18    9   11 1   
    19    9   13 1   
    20   10   11 1   
    21   10   18 1   
    22   10   19 1   
    23   11   15 1   
    24   11   16 1   
@<TRIPOS>SUBSTRUCTURE
     1 XBG         1 TEMP              0 ****  ****    0 ROOT
