@<TRIPOS>MOLECULE
XBG
   23    24     1     0     0
SMALL
bcc


@<TRIPOS>ATOM
      1 NBB         0.1560    0.2570   -0.0910 n7        1 XBG     -0.783200
      2 CAZ         1.5820   -0.0410    0.0850 c3        1 XBG      0.048500
      3 CAT         1.9820   -1.4060   -0.5630 c         1 XBG      0.934600
      4 OAC         2.2460   -2.3800    0.1930 o         1 XBG     -0.839300
      5 CAN         0.0770    0.2140    3.4050 c3        1 XBG     -0.068400
      6 OAF         2.0680   -1.4230   -1.8210 o         1 XBG     -0.839300
      7 CAQ         1.8860    0.0220    1.5920 c3        1 XBG     -0.077400
      8 CAY         0.7630    0.8530    2.2070 c3        1 XBG     -0.074700
      9 CBA        -0.3100    0.9940    1.0830 c3        1 XBG      0.173500
     10 CAL        -1.4230    0.3170    3.1670 c3        1 XBG     -0.073400
     11 CAO        -1.6280    0.4470    1.6660 c3        1 XBG     -0.074400
     12 HBB         0.0100    0.7810   -0.9300 hn        1 XBG      0.347800
     13 HBA        -0.4610    2.0890    0.8530 h1        1 XBG     -0.003300
     14 HAZ         2.2110    0.7420   -0.4360 h1        1 XBG     -0.000300
     15 HAO1       -1.8760   -0.5510    1.2240 hc        1 XBG      0.041700
     16 HAO2       -2.4720    1.1410    1.4350 hc        1 XBG      0.041700
     17 HAY         1.1430    1.8680    2.4880 hc        1 XBG      0.023700
     18 HAL1       -1.8370    1.2140    3.6950 hc        1 XBG      0.020700
     19 HAL2       -1.9550   -0.5810    3.5680 hc        1 XBG      0.020700
     20 HAN1        0.3660    0.7280    4.3550 hc        1 XBG      0.035700
     21 HAN2        0.3740   -0.8620    3.4980 hc        1 XBG      0.035700
     22 HAQ1        1.9130   -1.0220    1.9990 hc        1 XBG      0.054200
     23 HAQ2        2.8820    0.4920    1.7720 hc        1 XBG      0.054200
@<TRIPOS>BOND
     1    1    2 1   
     2    1    9 1   
     3    1   12 1   
     4    2    3 1   
     5    2    7 1   
     6    2   14 1   
     7    3    4 1   
     8    3    6 1   
     9    5    8 1   
    10    5   10 1   
    11    5   20 1   
    12    5   21 1   
    13    7    8 1   
    14    7   22 1   
    15    7   23 1   
    16    8    9 1   
    17    8   17 1   
    18    9   11 1   
    19    9   13 1   
    20   10   11 1   
    21   10   18 1   
    22   10   19 1   
    23   11   15 1   
    24   11   16 1   
@<TRIPOS>SUBSTRUCTURE
     1 XBG         1 TEMP              0 ****  ****    0 ROOT
