@<TRIPOS>MOLECULE
XBG
   23    24     1     0     0
SMALL
bcc


@<TRIPOS>ATOM
      1 NBB         0.0960    0.1870   -0.0890 n3        1 XBG     -0.783200
      2 CAZ         1.5380   -0.0590    0.0430 c3        1 XBG      0.048500
      3 CAT         1.9590   -1.4330   -0.5690 c         1 XBG      0.934600
      4 OAC         2.2840   -2.3680    0.2110 o         1 XBG     -0.839300
      5 CAN         0.1500    0.2740    3.4070 c3        1 XBG     -0.068400
      6 OAF         1.9970   -1.4960   -1.8290 o         1 XBG     -0.839300
      7 CAQ         1.8950    0.0720    1.5340 c3        1 XBG     -0.077400
      8 CAY         0.7690    0.8890    2.1610 c3        1 XBG     -0.074700
      9 CBA        -0.3500    0.9520    1.0750 c3        1 XBG      0.173500
     10 CAL        -1.3610    0.3200    3.2240 c3        1 XBG     -0.073400
     11 CAO        -1.6260    0.3860    1.7280 c3        1 XBG     -0.074400
     12 HBB        -0.0980    0.6730   -0.9400 hn        1 XBG      0.347800
     13 HBA        -0.5450    2.0320    0.8100 h1        1 XBG     -0.003300
     14 HAZ         2.1200    0.7250   -0.5300 h1        1 XBG     -0.000300
     15 HAO1       -1.8570   -0.6360    1.3330 hc        1 XBG      0.041700
     16 HAO2       -2.5010    1.0440    1.5040 hc        1 XBG      0.041700
     17 HAY         1.1250    1.9250    2.3900 hc        1 XBG      0.023700
     18 HAL1       -1.7840    1.2230    3.7340 hc        1 XBG      0.020700
     19 HAL2       -1.8470   -0.5790    3.6780 hc        1 XBG      0.020700
     20 HAN1        0.4870   -0.7880    3.5280 hc        1 XBG      0.036200
     21 HAN2        0.4580    0.8320    4.3260 hc        1 XBG      0.036200
     22 HAQ1        1.9740   -0.9540    1.9780 hc        1 XBG      0.054200
     23 HAQ2        2.8810    0.5810    1.6570 hc        1 XBG      0.054200
@<TRIPOS>BOND
     1    1    2 1   
     2    1    9 1   
     3    1   12 1   
     4    2    3 1   
     5    2    7 1   
     6    2   14 1   
     7    3    4 1   
     8    3    6 1   
     9    5    8 1   
    10    5   10 1   
    11    5   20 1   
    12    5   21 1   
    13    7    8 1   
    14    7   22 1   
    15    7   23 1   
    16    8    9 1   
    17    8   17 1   
    18    9   11 1   
    19    9   13 1   
    20   10   11 1   
    21   10   18 1   
    22   10   19 1   
    23   11   15 1   
    24   11   16 1   
@<TRIPOS>SUBSTRUCTURE
     1 XBG         1 TEMP              0 ****  ****    0 ROOT
