@<TRIPOS>MOLECULE
XBJ
   59    62     1     0     0
SMALL
bcc


@<TRIPOS>ATOM
      1 C01         0.0340    0.2530    0.0180 ca        1 XBJ     -0.159000
      2 C02         1.4110    0.2840   -0.0110 ca        1 XBJ      0.102100
      3 C03         2.1590    0.2740    1.2180 ca        1 XBJ      0.142100
      4 C04         1.5060    0.2450    2.4290 ca        1 XBJ     -0.252300
      5 C05         0.0750    0.2170    2.4760 ca        1 XBJ      0.450600
      6 N06        -0.5490    0.2030    3.7070 nb        1 XBJ     -0.696000
      7 C07        -1.8910    0.1700    3.6960 cp        1 XBJ      0.740500
      8 N08        -2.7150    0.1420    2.5830 nb        1 XBJ     -0.768000
      9 C09        -2.1150    0.1700    1.3700 ca        1 XBJ      0.693200
     10 C10        -0.6580    0.2090    1.2520 ca        1 XBJ     -0.279600
     11 N11        -2.8880    0.2320    0.2050 nu        1 XBJ     -0.820900
     12 C12        -4.3290    0.1020    0.2680 c3        1 XBJ      0.196500
     13 C13        -4.9950    0.3500   -1.1180 c3        1 XBJ     -0.088700
     14 C14        -5.5760   -1.0220   -1.5180 c3        1 XBJ      0.140800
     15 N15        -5.7030   -1.8640   -0.3350 n7        1 XBJ     -0.792200
     16 C16        -4.8370   -1.3150    0.7010 c3        1 XBJ      0.112800
     17 C17        -6.0660    1.4510   -1.0460 c3        1 XBJ      0.156800
     18 C18        -6.5280    1.8340   -2.4510 c3        1 XBJ     -0.126600
     19 C19        -7.2680    1.0500   -0.1980 c3        1 XBJ     -0.126600
     20 O20        -5.4110    2.5740   -0.4490 oh        1 XBJ     -0.591800
     21 C21        -2.5960    0.1580    5.0080 cp        1 XBJ     -0.127500
     22 C22        -2.4400   -0.9160    5.9060 ca        1 XBJ      0.145100
     23 C23        -3.0900   -0.9000    7.1500 ca        1 XBJ     -0.200000
     24 C24        -3.9000    0.1730    7.4990 ca        1 XBJ     -0.118000
     25 C25        -4.0710    1.2380    6.5980 ca        1 XBJ      0.079900
     26 C26        -3.4190    1.2290    5.3510 ca        1 XBJ     -0.098000
     27 F27        -4.8690    2.2830    6.9310 f         1 XBJ     -0.142900
     28 O28        -1.6600   -1.9730    5.5040 oh        1 XBJ     -0.478100
     29 O29         3.5260    0.2990    1.0550 os        1 XBJ     -0.301900
     30 C30         4.2980    0.2980    2.2520 c3        1 XBJ      0.106700
     31 O31         2.1870    0.3220   -1.1500 os        1 XBJ     -0.300900
     32 C32         1.4840    0.4070   -2.3840 c3        1 XBJ      0.108700
     33 H01        -0.5230    0.2810   -0.9290 ha        1 XBJ      0.140000
     34 H04         2.0620    0.2430    3.3780 ha        1 XBJ      0.163000
     35 H11        -2.4700   -0.2240   -0.5790 hn        1 XBJ      0.409800
     36 H12        -4.7000    0.8740    1.0030 h1        1 XBJ      0.107700
     37 H13        -4.2430    0.6800   -1.8820 hc        1 XBJ      0.074700
     38 H161       -3.9790   -2.0290    0.8370 h1        1 XBJ      0.061200
     39 H162       -5.3660   -1.2300    1.6880 h1        1 XBJ      0.061200
     40 H141       -4.8550   -1.5320   -2.2150 h1        1 XBJ      0.052200
     41 H142       -6.5560   -0.9210   -2.0550 h1        1 XBJ      0.052200
     42 H15        -6.6560   -1.8670   -0.0190 hn        1 XBJ      0.347800
     43 H181       -7.3280    2.6100   -2.3900 hc        1 XBJ      0.044867
     44 H182       -5.6710    2.2530   -3.0310 hc        1 XBJ      0.044867
     45 H183       -6.9320    0.9460   -2.9890 hc        1 XBJ      0.044867
     46 H191       -7.8520    0.2460   -0.7040 hc        1 XBJ      0.044867
     47 H192       -7.9360    1.9310   -0.0430 hc        1 XBJ      0.044867
     48 H193       -6.9310    0.6810    0.8010 hc        1 XBJ      0.044867
     49 H20        -6.0560    3.2900   -0.4200 ho        1 XBJ      0.400000
     50 H26        -3.5630    2.0670    4.6520 ha        1 XBJ      0.163000
     51 H23        -2.9560   -1.7380    7.8490 ha        1 XBJ      0.140000
     52 H28        -1.5800   -2.5840    6.2520 ho        1 XBJ      0.419000
     53 H24        -4.4120    0.1950    8.4730 ha        1 XBJ      0.149000
     54 H301        4.0760    1.2040    2.8660 h1        1 XBJ      0.048700
     55 H302        4.1080   -0.6320    2.8420 h1        1 XBJ      0.048700
     56 H303        5.3520    0.3210    1.8770 h1        1 XBJ      0.048700
     57 H321        0.8590   -0.5050   -2.5450 h1        1 XBJ      0.045367
     58 H322        2.3050    0.4600   -3.1440 h1        1 XBJ      0.045367
     59 H323        0.8530    1.3280   -2.4210 h1        1 XBJ      0.045367
@<TRIPOS>BOND
     1    1    2 ar  
     2    1   10 ar  
     3    1   33 1   
     4    2    3 ar  
     5    2   31 1   
     6    3    4 ar  
     7    3   29 1   
     8    4    5 ar  
     9    4   34 1   
    10    5    6 ar  
    11    5   10 ar  
    12    6    7 ar  
    13    7    8 ar  
    14    7   21 1   
    15    8    9 ar  
    16    9   10 ar  
    17    9   11 1   
    18   11   12 1   
    19   11   35 1   
    20   12   13 1   
    21   12   16 1   
    22   12   36 1   
    23   13   14 1   
    24   13   17 1   
    25   13   37 1   
    26   14   15 1   
    27   14   40 1   
    28   14   41 1   
    29   15   16 1   
    30   15   42 1   
    31   16   38 1   
    32   16   39 1   
    33   17   18 1   
    34   17   19 1   
    35   17   20 1   
    36   18   43 1   
    37   18   44 1   
    38   18   45 1   
    39   19   46 1   
    40   19   47 1   
    41   19   48 1   
    42   20   49 1   
    43   21   22 ar  
    44   21   26 ar  
    45   22   23 ar  
    46   22   28 1   
    47   23   24 ar  
    48   23   51 1   
    49   24   25 ar  
    50   24   53 1   
    51   25   26 ar  
    52   25   27 1   
    53   26   50 1   
    54   28   52 1   
    55   29   30 1   
    56   30   54 1   
    57   30   55 1   
    58   30   56 1   
    59   31   32 1   
    60   32   57 1   
    61   32   58 1   
    62   32   59 1   
@<TRIPOS>SUBSTRUCTURE
     1 XBJ         1 TEMP              0 ****  ****    0 ROOT
