@<TRIPOS>MOLECULE
XBJ
   59    62     1     0     0
SMALL
bcc


@<TRIPOS>ATOM
      1 C01         0.0130    0.2410    0.0280 ca        1 XBJ     -0.159000
      2 C02         1.3900    0.2720   -0.0050 ca        1 XBJ      0.101100
      3 C03         2.1420    0.2540    1.2200 ca        1 XBJ      0.142100
      4 C04         1.4930    0.2190    2.4330 ca        1 XBJ     -0.253300
      5 C05         0.0630    0.1940    2.4850 ca        1 XBJ      0.453600
      6 N06        -0.5560    0.1780    3.7190 nb        1 XBJ     -0.701000
      7 C07        -1.8990    0.1500    3.7130 cp        1 XBJ      0.744500
      8 N08        -2.7270    0.1270    2.6050 nb        1 XBJ     -0.773000
      9 C09        -2.1330    0.1520    1.3890 ca        1 XBJ      0.705200
     10 C10        -0.6750    0.1910    1.2640 ca        1 XBJ     -0.286600
     11 N11        -2.9120    0.1940    0.2360 nh        1 XBJ     -0.841900
     12 C12        -4.3520    0.0850    0.2820 c3        1 XBJ      0.202500
     13 C13        -5.0030    0.3510   -1.1090 c3        1 XBJ     -0.084700
     14 C14        -5.6690   -0.9830   -1.5140 c3        1 XBJ      0.141800
     15 N15        -5.3950   -2.0030   -0.5080 n3        1 XBJ     -0.794200
     16 C16        -4.8890   -1.3300    0.6800 c3        1 XBJ      0.114800
     17 C17        -5.9910    1.5270   -1.0690 c3        1 XBJ      0.160800
     18 C18        -6.4770    1.8440   -2.4820 c3        1 XBJ     -0.125600
     19 C19        -7.1880    1.2900   -0.1550 c3        1 XBJ     -0.125600
     20 O20        -5.2220    2.6310   -0.5790 oh        1 XBJ     -0.595800
     21 C21        -2.5970    0.1400    5.0290 cp        1 XBJ     -0.127500
     22 C22        -2.4470   -0.9410    5.9200 ca        1 XBJ      0.145100
     23 C23        -3.0900   -0.9250    7.1680 ca        1 XBJ     -0.199000
     24 C24        -3.8870    0.1540    7.5270 ca        1 XBJ     -0.118000
     25 C25        -4.0520    1.2260    6.6320 ca        1 XBJ      0.080900
     26 C26        -3.4070    1.2160    5.3820 ca        1 XBJ     -0.098000
     27 F27        -4.8360    2.2780    6.9760 f         1 XBJ     -0.141900
     28 O28        -1.6800   -2.0040    5.5090 oh        1 XBJ     -0.479100
     29 O29         3.5090    0.2770    1.0530 os        1 XBJ     -0.301900
     30 C30         4.2850    0.2710    2.2480 c3        1 XBJ      0.106700
     31 O31         2.1630    0.3130   -1.1480 os        1 XBJ     -0.300900
     32 C32         1.4570    0.4470   -2.3760 c3        1 XBJ      0.108700
     33 H01        -0.5440    0.2760   -0.9180 ha        1 XBJ      0.137000
     34 H04         2.0530    0.2120    3.3810 ha        1 XBJ      0.163000
     35 H11        -2.4760   -0.1590   -0.5860 hn        1 XBJ      0.415800
     36 H12        -4.7210    0.8490    1.0250 h1        1 XBJ      0.108700
     37 H13        -4.2240    0.6220   -1.8720 hc        1 XBJ      0.065700
     38 H161       -4.1170   -1.9470    1.2080 h1        1 XBJ      0.067200
     39 H162       -5.7550   -1.1860    1.3840 h1        1 XBJ      0.067200
     40 H141       -5.3080   -1.3000   -2.5290 h1        1 XBJ      0.050200
     41 H142       -6.7860   -0.8680   -1.5730 h1        1 XBJ      0.050200
     42 H15        -4.7170   -2.6580   -0.8530 hn        1 XBJ      0.346800
     43 H181       -6.9250    0.9360   -2.9500 hc        1 XBJ      0.045867
     44 H182       -5.6230    2.1950   -3.1090 hc        1 XBJ      0.045867
     45 H183       -7.2480    2.6500   -2.4480 hc        1 XBJ      0.045867
     46 H191       -7.9230    0.6040   -0.6390 hc        1 XBJ      0.045867
     47 H192       -7.7000    2.2600    0.0570 hc        1 XBJ      0.045867
     48 H193       -6.8630    0.8420    0.8140 hc        1 XBJ      0.045867
     49 H20        -5.8090    3.3960   -0.5660 ho        1 XBJ      0.401000
     50 H26        -3.5460    2.0590    4.6870 ha        1 XBJ      0.163000
     51 H23        -2.9610   -1.7680    7.8620 ha        1 XBJ      0.139000
     52 H28        -1.6010   -2.6190    6.2540 ho        1 XBJ      0.419000
     53 H24        -4.3930    0.1770    8.5040 ha        1 XBJ      0.149000
     54 H301        4.0660    1.1760    2.8650 h1        1 XBJ      0.049033
     55 H302        5.3380    0.2950    1.8680 h1        1 XBJ      0.049033
     56 H303        4.0970   -0.6610    2.8350 h1        1 XBJ      0.049033
     57 H321        0.8370    1.3760   -2.3800 h1        1 XBJ      0.045033
     58 H322        2.2760    0.5140   -3.1370 h1        1 XBJ      0.045033
     59 H323        0.8200   -0.4510   -2.5640 h1        1 XBJ      0.045033
@<TRIPOS>BOND
     1    1    2 ar  
     2    1   10 ar  
     3    1   33 1   
     4    2    3 ar  
     5    2   31 1   
     6    3    4 ar  
     7    3   29 1   
     8    4    5 ar  
     9    4   34 1   
    10    5    6 ar  
    11    5   10 ar  
    12    6    7 ar  
    13    7    8 ar  
    14    7   21 1   
    15    8    9 ar  
    16    9   10 ar  
    17    9   11 1   
    18   11   12 1   
    19   11   35 1   
    20   12   13 1   
    21   12   16 1   
    22   12   36 1   
    23   13   14 1   
    24   13   17 1   
    25   13   37 1   
    26   14   15 1   
    27   14   40 1   
    28   14   41 1   
    29   15   16 1   
    30   15   42 1   
    31   16   38 1   
    32   16   39 1   
    33   17   18 1   
    34   17   19 1   
    35   17   20 1   
    36   18   43 1   
    37   18   44 1   
    38   18   45 1   
    39   19   46 1   
    40   19   47 1   
    41   19   48 1   
    42   20   49 1   
    43   21   22 ar  
    44   21   26 ar  
    45   22   23 ar  
    46   22   28 1   
    47   23   24 ar  
    48   23   51 1   
    49   24   25 ar  
    50   24   53 1   
    51   25   26 ar  
    52   25   27 1   
    53   26   50 1   
    54   28   52 1   
    55   29   30 1   
    56   30   54 1   
    57   30   55 1   
    58   30   56 1   
    59   31   32 1   
    60   32   57 1   
    61   32   58 1   
    62   32   59 1   
@<TRIPOS>SUBSTRUCTURE
     1 XBJ         1 TEMP              0 ****  ****    0 ROOT
