@<TRIPOS>MOLECULE
XBJ
   59    62     1     0     0
SMALL
bcc


@<TRIPOS>ATOM
      1 C01        -2.1180   -1.9490    0.0340 ca        1 XBJ     -0.163000
      2 C02        -3.4890   -2.0520    0.1270 ca        1 XBJ      0.109100
      3 C03        -4.3050   -0.8670    0.1180 ca        1 XBJ      0.149100
      4 C04        -3.7230    0.3770    0.0320 ca        1 XBJ     -0.258300
      5 C05        -2.3000    0.5010   -0.0580 ca        1 XBJ      0.452600
      6 N06        -1.7450    1.7620   -0.1290 nb        1 XBJ     -0.732000
      7 C07        -0.4050    1.8340   -0.2190 cp        1 XBJ      0.733500
      8 N08         0.4720    0.7620   -0.2620 nb        1 XBJ     -0.772000
      9 C09        -0.0560   -0.4800   -0.1830 ca        1 XBJ      0.693200
     10 C10        -1.5000   -0.6800   -0.0710 ca        1 XBJ     -0.280600
     11 N11         0.7870   -1.5960   -0.1310 nh        1 XBJ     -0.828900
     12 C12         2.2070   -1.4640   -0.3720 c3        1 XBJ      0.175500
     13 C13         2.9770   -2.7970   -0.1580 c3        1 XBJ     -0.120700
     14 C14         4.0210   -2.8420   -1.2940 c3        1 XBJ      0.149800
     15 N15         3.8450   -1.7000   -2.1850 n3        1 XBJ     -0.792200
     16 C16         2.6090   -1.0260   -1.8190 c3        1 XBJ      0.121800
     17 C17         3.5790   -2.9420    1.2480 c3        1 XBJ      0.160800
     18 C18         4.3190   -4.2750    1.3620 c3        1 XBJ     -0.105600
     19 C19         4.5130   -1.7970    1.6270 c3        1 XBJ     -0.105600
     20 O20         2.5180   -3.0360    2.2000 oh        1 XBJ     -0.599800
     21 C21         0.2210    3.1810   -0.3260 cp        1 XBJ     -0.191500
     22 C22        -0.0870    4.2310    0.5570 ca        1 XBJ      0.160100
     23 C23         0.5310    5.4900    0.4060 ca        1 XBJ     -0.148000
     24 C24         1.4430    5.7030   -0.6140 ca        1 XBJ     -0.118000
     25 C25         1.7550    4.6520   -1.5000 ca        1 XBJ      0.074900
     26 C26         1.1470    3.3970   -1.3540 ca        1 XBJ     -0.094000
     27 F27         2.6490    4.8560   -2.5000 f         1 XBJ     -0.142900
     28 O28        -0.9470    4.1480    1.6200 oh        1 XBJ     -0.495100
     29 O29        -5.6570   -1.1040    0.2050 os        1 XBJ     -0.298900
     30 C30        -6.4980    0.0460    0.1920 c3        1 XBJ      0.105700
     31 O31        -4.1980   -3.2290    0.2300 os        1 XBJ     -0.298900
     32 C32        -3.4260   -4.4230    0.3130 c3        1 XBJ      0.106700
     33 H01        -1.5100   -2.8640    0.0610 ha        1 XBJ      0.143000
     34 H04        -4.3320    1.2940    0.0280 ha        1 XBJ      0.164000
     35 H11         0.3840   -2.4270   -0.5100 hn        1 XBJ      0.416800
     36 H12         2.5960   -0.6880    0.3500 h1        1 XBJ      0.085700
     37 H13         2.2800   -3.6710   -0.2890 hc        1 XBJ      0.067700
     38 H161        1.8220   -1.3390   -2.5580 h1        1 XBJ      0.062200
     39 H162        2.7090    0.0900   -1.8710 h1        1 XBJ      0.062200
     40 H141        5.0660   -2.8840   -0.8850 h1        1 XBJ      0.052700
     41 H142        3.8600   -3.7720   -1.9070 h1        1 XBJ      0.052700
     42 H15         4.6220   -1.0710   -2.1010 hn        1 XBJ      0.353800
     43 H181        5.2640   -4.2380    0.7710 hc        1 XBJ      0.046367
     44 H182        4.5620   -4.4750    2.4330 hc        1 XBJ      0.046367
     45 H183        3.6780   -5.1060    0.9850 hc        1 XBJ      0.046367
     46 H191        3.9330   -0.8830    1.9020 hc        1 XBJ      0.046367
     47 H192        5.1250   -2.0920    2.5140 hc        1 XBJ      0.046367
     48 H193        5.1970   -1.5500    0.7830 hc        1 XBJ      0.046367
     49 H20         2.0370   -2.2000    2.1770 ho        1 XBJ      0.409000
     50 H26         1.4050    2.5860   -2.0530 ha        1 XBJ      0.159000
     51 H23         0.2730    6.2940    1.1110 ha        1 XBJ      0.158000
     52 H28        -1.3880    3.2860    1.6160 ho        1 XBJ      0.441000
     53 H24         1.9260    6.6830   -0.7410 ha        1 XBJ      0.151000
     54 H301       -6.2830    0.7010    1.0710 h1        1 XBJ      0.050700
     55 H302       -6.3750    0.6140   -0.7620 h1        1 XBJ      0.050700
     56 H303       -7.5270   -0.3900    0.2650 h1        1 XBJ      0.050700
     57 H321       -2.8340   -4.5750   -0.6220 h1        1 XBJ      0.048033
     58 H322       -2.7540   -4.4000    1.2060 h1        1 XBJ      0.048033
     59 H323       -4.2030   -5.2220    0.4230 h1        1 XBJ      0.048033
@<TRIPOS>BOND
     1    1    2 ar  
     2    1   10 ar  
     3    1   33 1   
     4    2    3 ar  
     5    2   31 1   
     6    3    4 ar  
     7    3   29 1   
     8    4    5 ar  
     9    4   34 1   
    10    5    6 ar  
    11    5   10 ar  
    12    6    7 ar  
    13    7    8 ar  
    14    7   21 1   
    15    8    9 ar  
    16    9   10 ar  
    17    9   11 1   
    18   11   12 1   
    19   11   35 1   
    20   12   13 1   
    21   12   16 1   
    22   12   36 1   
    23   13   14 1   
    24   13   17 1   
    25   13   37 1   
    26   14   15 1   
    27   14   40 1   
    28   14   41 1   
    29   15   16 1   
    30   15   42 1   
    31   16   38 1   
    32   16   39 1   
    33   17   18 1   
    34   17   19 1   
    35   17   20 1   
    36   18   43 1   
    37   18   44 1   
    38   18   45 1   
    39   19   46 1   
    40   19   47 1   
    41   19   48 1   
    42   20   49 1   
    43   21   22 ar  
    44   21   26 ar  
    45   22   23 ar  
    46   22   28 1   
    47   23   24 ar  
    48   23   51 1   
    49   24   25 ar  
    50   24   53 1   
    51   25   26 ar  
    52   25   27 1   
    53   26   50 1   
    54   28   52 1   
    55   29   30 1   
    56   30   54 1   
    57   30   55 1   
    58   30   56 1   
    59   31   32 1   
    60   32   57 1   
    61   32   58 1   
    62   32   59 1   
@<TRIPOS>SUBSTRUCTURE
     1 XBJ         1 TEMP              0 ****  ****    0 ROOT
