@<TRIPOS>MOLECULE
XBJ
   60    63     1     0     0
SMALL
bcc


@<TRIPOS>ATOM
      1 C01        -0.0910    0.1730   -0.0030 ca        1 XBJ     -0.244000
      2 C02         1.2850    0.2230   -0.0330 ca        1 XBJ      0.182100
      3 C03         2.0480    0.0710    1.1920 ca        1 XBJ      0.164100
      4 C04         1.4070   -0.1210    2.3910 ca        1 XBJ     -0.249300
      5 C05        -0.0250   -0.1740    2.4470 ca        1 XBJ      0.457600
      6 N06        -0.6440   -0.3650    3.6560 nb        1 XBJ     -0.610000
      7 C07        -1.9900   -0.4090    3.6680 cp        1 XBJ      0.742500
      8 N08        -2.8090   -0.2890    2.5520 nb        1 XBJ     -0.676000
      9 C09        -2.1970   -0.1010    1.3780 ca        1 XBJ      0.517200
     10 C10        -0.7700   -0.0260    1.2250 ca        1 XBJ     -0.236600
     11 N11        -3.0240    0.0430    0.1560 n4        1 XBJ     -0.743700
     12 C12        -4.5100    0.0630    0.3440 c3        1 XBJ      0.116500
     13 C13        -5.2310    0.3760   -0.9940 c3        1 XBJ     -0.093700
     14 C14        -6.5260   -0.4550   -0.9230 c3        1 XBJ      0.158800
     15 N15        -6.3310   -1.5340    0.0390 n3        1 XBJ     -0.806200
     16 C16        -5.1220   -1.2890    0.8110 c3        1 XBJ      0.151800
     17 C17        -5.4250    1.8780   -1.2300 c3        1 XBJ      0.158800
     18 C18        -5.8930    2.1160   -2.6620 c3        1 XBJ     -0.128600
     19 C19        -6.3830    2.5510   -0.2570 c3        1 XBJ     -0.128600
     20 O20        -4.1040    2.4200   -1.0570 oh        1 XBJ     -0.664800
     21 C21        -2.6850   -0.5970    4.9660 cp        1 XBJ     -0.167500
     22 C22        -2.5760    0.3730    5.9790 ca        1 XBJ      0.155100
     23 C23        -3.2080    0.1740    7.2190 ca        1 XBJ     -0.186000
     24 C24        -3.9510   -0.9760    7.4440 ca        1 XBJ     -0.096000
     25 C25        -4.0740   -1.9410    6.4240 ca        1 XBJ      0.094900
     26 C26        -3.4390   -1.7510    5.1850 ca        1 XBJ     -0.104000
     27 F27        -4.8060   -3.0600    6.6380 f         1 XBJ     -0.126900
     28 O28        -1.8660    1.5120    5.6900 oh        1 XBJ     -0.491100
     29 O29         3.4020    0.1390    1.0140 os        1 XBJ     -0.284900
     30 C30         4.2090   -0.0060    2.1860 c3        1 XBJ      0.100700
     31 O31         2.0550    0.4090   -1.1460 os        1 XBJ     -0.275900
     32 C32         1.3720    0.5670   -2.3890 c3        1 XBJ      0.102700
     33 H01        -0.6500    0.2920   -0.9410 ha        1 XBJ      0.132000
     34 H04         1.9730   -0.2360    3.3300 ha        1 XBJ      0.186000
     35 H11        -2.7740   -0.7290   -0.4730 hn        1 XBJ      0.468800
     36 H12        -4.7270    0.8700    1.1020 hx        1 XBJ      0.128700
     37 H13        -4.6230   -0.0120   -1.8610 hc        1 XBJ      0.072700
     38 H161       -4.4180   -2.1460    0.6130 h1        1 XBJ      0.075200
     39 H162       -5.3150   -1.2530    1.9180 h1        1 XBJ      0.075200
     40 H141       -6.7370   -0.9230   -1.9250 h1        1 XBJ      0.069200
     41 H142       -7.4010    0.2020   -0.6600 h1        1 XBJ      0.069200
     42 H15        -7.1310   -1.6420    0.6330 hn        1 XBJ      0.387800
     43 H181       -6.1130    3.2000   -2.8180 hc        1 XBJ      0.058867
     44 H182       -6.8200    1.5280   -2.8610 hc        1 XBJ      0.058867
     45 H183       -5.1010    1.8070   -3.3860 hc        1 XBJ      0.058867
     46 H191       -6.1840    2.2440    0.7960 hc        1 XBJ      0.058867
     47 H192       -7.4400    2.2990   -0.5140 hc        1 XBJ      0.058867
     48 H193       -6.2650    3.6610   -0.3230 hc        1 XBJ      0.058867
     49 H20        -4.1440    3.3570   -1.2810 ho        1 XBJ      0.439000
     50 H26        -3.5340   -2.5170    4.4010 ha        1 XBJ      0.156000
     51 H23        -3.1110    0.9320    8.0110 ha        1 XBJ      0.155000
     52 H28        -1.7890    2.0340    6.5040 ho        1 XBJ      0.436000
     53 H24        -4.4470   -1.1440    8.4130 ha        1 XBJ      0.167000
     54 H301        5.2500    0.0830    1.7820 h1        1 XBJ      0.064033
     55 H302        4.0450   -1.0090    2.6500 h1        1 XBJ      0.064033
     56 H303        3.9910    0.8120    2.9140 h1        1 XBJ      0.064033
     57 H321        0.7800   -0.3490   -2.6310 h1        1 XBJ      0.058367
     58 H322        0.7190    1.4720   -2.3660 h1        1 XBJ      0.058367
     59 H323        2.2120    0.7010   -3.1200 h1        1 XBJ      0.058367
     60 H112       -2.7610    0.9420   -0.2880 hn        1 XBJ      0.468800
@<TRIPOS>BOND
     1    1    2 ar  
     2    1   10 ar  
     3    1   33 1   
     4    2    3 ar  
     5    2   31 1   
     6    3    4 ar  
     7    3   29 1   
     8    4    5 ar  
     9    4   34 1   
    10    5    6 ar  
    11    5   10 ar  
    12    6    7 ar  
    13    7    8 ar  
    14    7   21 1   
    15    8    9 ar  
    16    9   10 ar  
    17    9   11 1   
    18   11   12 1   
    19   11   35 1   
    20   11   60 1   
    21   12   13 1   
    22   12   16 1   
    23   12   36 1   
    24   13   14 1   
    25   13   17 1   
    26   13   37 1   
    27   14   15 1   
    28   14   40 1   
    29   14   41 1   
    30   15   16 1   
    31   15   42 1   
    32   16   38 1   
    33   16   39 1   
    34   17   18 1   
    35   17   19 1   
    36   17   20 1   
    37   18   43 1   
    38   18   44 1   
    39   18   45 1   
    40   19   46 1   
    41   19   47 1   
    42   19   48 1   
    43   20   49 1   
    44   21   22 ar  
    45   21   26 ar  
    46   22   23 ar  
    47   22   28 1   
    48   23   24 ar  
    49   23   51 1   
    50   24   25 ar  
    51   24   53 1   
    52   25   26 ar  
    53   25   27 1   
    54   26   50 1   
    55   28   52 1   
    56   29   30 1   
    57   30   54 1   
    58   30   55 1   
    59   30   56 1   
    60   31   32 1   
    61   32   57 1   
    62   32   58 1   
    63   32   59 1   
@<TRIPOS>SUBSTRUCTURE
     1 XBJ         1 TEMP              0 ****  ****    0 ROOT
