@<TRIPOS>MOLECULE
XBL
   41    45     1     0     0
SMALL
bcc


@<TRIPOS>ATOM
      1 C          -0.0940   -0.6610    0.8100 c3        1 XBL     -0.097400
      2 C1          1.3630   -0.5990    0.5750 cc        1 XBL      0.361800
      3 N2          2.3230   -0.3080    1.5800 na        1 XBL      0.067300
      4 N3          2.1610   -0.0700    2.8760 nc        1 XBL     -0.506800
      5 C3          3.2540    0.1960    3.6090 cd        1 XBL      0.596200
      6 C13         4.6220    0.2060    3.0350 ca        1 XBL     -0.137300
      7 C18         5.7670    0.5180    3.7870 ca        1 XBL     -0.090000
      8 C17         7.0220    0.5100    3.1920 ca        1 XBL     -0.133000
      9 C16         7.1670    0.1950    1.8360 ca        1 XBL     -0.109000
     10 C15         6.0500   -0.1020    1.0670 ca        1 XBL     -0.101000
     11 C14         4.7780   -0.0910    1.6580 ca        1 XBL      0.023000
     12 C2          3.5840   -0.3620    0.8950 cc        1 XBL     -0.108300
     13 N1          3.3440   -0.6640   -0.4170 nd        1 XBL     -0.060000
     14 N           2.0490   -0.8010   -0.5940 nd        1 XBL     -0.368700
     15 N4          3.1340    0.5320    4.9970 nh        1 XBL     -0.712300
     16 C8          3.5920   -0.5210    5.8990 c3        1 XBL      0.217100
     17 C7          2.5340   -1.4280    6.4540 ca        1 XBL     -0.113300
     18 C9          2.9250   -2.6230    7.0670 ca        1 XBL     -0.119000
     19 C10         1.9700   -3.4710    7.6230 ca        1 XBL     -0.129000
     20 C11         0.6180   -3.1290    7.5680 ca        1 XBL     -0.122000
     21 C12         0.2240   -1.9420    6.9570 ca        1 XBL     -0.127000
     22 C6          1.1770   -1.0830    6.3950 ca        1 XBL     -0.063300
     23 C5          0.7300    0.1660    5.7240 c3        1 XBL     -0.067100
     24 C4          1.8810    1.1280    5.4330 c3        1 XBL      0.178800
     25 HC1        -0.4660    0.3290    1.1730 hc        1 XBL      0.065367
     26 HC2        -0.3250   -1.4360    1.5840 hc        1 XBL      0.065367
     27 HC3        -0.6240   -0.9240   -0.1390 hc        1 XBL      0.065367
     28 H18         5.6800    0.7840    4.8520 ha        1 XBL      0.151000
     29 H17         7.9110    0.7570    3.7910 ha        1 XBL      0.139000
     30 H16         8.1680    0.1880    1.3790 ha        1 XBL      0.142000
     31 H15         6.1480   -0.3420   -0.0040 ha        1 XBL      0.164000
     32 H81C        4.0810    0.0150    6.7670 h1        1 XBL      0.068700
     33 H82C        4.3830   -1.1390    5.3850 h1        1 XBL      0.068700
     34 H41C        1.5470    1.8840    4.6700 h1        1 XBL      0.064200
     35 H42C        2.1360    1.6840    6.3820 h1        1 XBL      0.064200
     36 H9          3.9910   -2.8930    7.1070 ha        1 XBL      0.132000
     37 H10         2.2820   -4.4100    8.1040 ha        1 XBL      0.134000
     38 H11        -0.1360   -3.7980    8.0070 ha        1 XBL      0.133000
     39 H12        -0.8410   -1.6730    6.9100 ha        1 XBL      0.133000
     40 H51C        0.2060   -0.1070    4.7680 hc        1 XBL      0.065700
     41 H52C       -0.0180    0.6990    6.3700 hc        1 XBL      0.065700
@<TRIPOS>BOND
     1    1    2 1   
     2    1   25 1   
     3    1   26 1   
     4    1   27 1   
     5    2    3 1   
     6    2   14 2   
     7    3    4 1   
     8    3   12 1   
     9    4    5 2   
    10    5    6 1   
    11    5   15 1   
    12    6    7 ar  
    13    6   11 ar  
    14    7    8 ar  
    15    7   28 1   
    16    8    9 ar  
    17    8   29 1   
    18    9   10 ar  
    19    9   30 1   
    20   10   11 ar  
    21   10   31 1   
    22   11   12 1   
    23   12   13 2   
    24   13   14 1   
    25   15   16 1   
    26   15   24 1   
    27   16   17 1   
    28   16   32 1   
    29   16   33 1   
    30   17   18 ar  
    31   17   22 ar  
    32   18   19 ar  
    33   18   36 1   
    34   19   20 ar  
    35   19   37 1   
    36   20   21 ar  
    37   20   38 1   
    38   21   22 ar  
    39   21   39 1   
    40   22   23 1   
    41   23   24 1   
    42   23   40 1   
    43   23   41 1   
    44   24   34 1   
    45   24   35 1   
@<TRIPOS>SUBSTRUCTURE
     1 XBL         1 TEMP              0 ****  ****    0 ROOT
