@<TRIPOS>MOLECULE
XBL
   41    45     1     0     0
SMALL
bcc


@<TRIPOS>ATOM
      1 C          -0.1000   -0.6640    0.8150 c3        1 XBL     -0.097400
      2 C1          1.3570   -0.5990    0.5770 cc        1 XBL      0.361800
      3 N2          2.3180   -0.3060    1.5810 na        1 XBL      0.067300
      4 N3          2.1580   -0.0700    2.8780 nc        1 XBL     -0.506800
      5 C3          3.2510    0.1970    3.6090 cd        1 XBL      0.596200
      6 C13         4.6180    0.2110    3.0330 ca        1 XBL     -0.137300
      7 C18         5.7640    0.5250    3.7830 ca        1 XBL     -0.090000
      8 C17         7.0180    0.5200    3.1860 ca        1 XBL     -0.133000
      9 C16         7.1610    0.2060    1.8290 ca        1 XBL     -0.109000
     10 C15         6.0430   -0.0920    1.0610 ca        1 XBL     -0.101000
     11 C14         4.7720   -0.0850    1.6550 ca        1 XBL      0.023000
     12 C2          3.5780   -0.3570    0.8940 cc        1 XBL     -0.108300
     13 N1          3.3360   -0.6580   -0.4180 nd        1 XBL     -0.060000
     14 N           2.0410   -0.7980   -0.5930 nd        1 XBL     -0.368700
     15 N4          3.1330    0.5320    4.9980 nh        1 XBL     -0.712300
     16 C8          3.5950   -0.5210    5.8980 c3        1 XBL      0.217100
     17 C7          2.5410   -1.4310    6.4530 ca        1 XBL     -0.113300
     18 C9          2.9350   -2.6260    7.0650 ca        1 XBL     -0.119000
     19 C10         1.9840   -3.4760    7.6220 ca        1 XBL     -0.129000
     20 C11         0.6310   -3.1370    7.5700 ca        1 XBL     -0.122000
     21 C12         0.2330   -1.9510    6.9600 ca        1 XBL     -0.127000
     22 C6          1.1830   -1.0890    6.3980 ca        1 XBL     -0.063300
     23 C5          0.7320    0.1600    5.7290 c3        1 XBL     -0.067100
     24 C4          1.8790    1.1250    5.4360 c3        1 XBL      0.178800
     25 HC1        -0.3280   -1.4400    1.5890 hc        1 XBL      0.065367
     26 HC2        -0.6310   -0.9270   -0.1330 hc        1 XBL      0.065367
     27 HC3        -0.4730    0.3250    1.1800 hc        1 XBL      0.065367
     28 H18         5.6780    0.7900    4.8480 ha        1 XBL      0.151000
     29 H17         7.9080    0.7680    3.7840 ha        1 XBL      0.139000
     30 H16         8.1610    0.2030    1.3700 ha        1 XBL      0.142000
     31 H15         6.1400   -0.3310   -0.0100 ha        1 XBL      0.164000
     32 H81C        4.0850    0.0160    6.7650 h1        1 XBL      0.068700
     33 H82C        4.3860   -1.1370    5.3820 h1        1 XBL      0.068700
     34 H41C        2.1350    1.6800    6.3860 h1        1 XBL      0.064200
     35 H42C        1.5420    1.8810    4.6740 h1        1 XBL      0.064200
     36 H9          4.0020   -2.8930    7.1030 ha        1 XBL      0.132000
     37 H10         2.2990   -4.4150    8.1010 ha        1 XBL      0.134000
     38 H11        -0.1220   -3.8080    8.0100 ha        1 XBL      0.133000
     39 H12        -0.8340   -1.6840    6.9160 ha        1 XBL      0.133000
     40 H51C        0.2070   -0.1140    4.7730 hc        1 XBL      0.065700
     41 H52C       -0.0160    0.6910    6.3770 hc        1 XBL      0.065700
@<TRIPOS>BOND
     1    1    2 1   
     2    1   25 1   
     3    1   26 1   
     4    1   27 1   
     5    2    3 1   
     6    2   14 2   
     7    3    4 1   
     8    3   12 1   
     9    4    5 2   
    10    5    6 1   
    11    5   15 1   
    12    6    7 ar  
    13    6   11 ar  
    14    7    8 ar  
    15    7   28 1   
    16    8    9 ar  
    17    8   29 1   
    18    9   10 ar  
    19    9   30 1   
    20   10   11 ar  
    21   10   31 1   
    22   11   12 1   
    23   12   13 2   
    24   13   14 1   
    25   15   16 1   
    26   15   24 1   
    27   16   17 1   
    28   16   32 1   
    29   16   33 1   
    30   17   18 ar  
    31   17   22 ar  
    32   18   19 ar  
    33   18   36 1   
    34   19   20 ar  
    35   19   37 1   
    36   20   21 ar  
    37   20   38 1   
    38   21   22 ar  
    39   21   39 1   
    40   22   23 1   
    41   23   24 1   
    42   23   40 1   
    43   23   41 1   
    44   24   34 1   
    45   24   35 1   
@<TRIPOS>SUBSTRUCTURE
     1 XBL         1 TEMP              0 ****  ****    0 ROOT
