@<TRIPOS>MOLECULE
XBL
   41    45     1     0     0
SMALL
bcc


@<TRIPOS>ATOM
      1 C          -0.0900   -0.6900    0.8080 c3        1 XBL     -0.097400
      2 C1          1.3670   -0.6160    0.5740 cc        1 XBL      0.361800
      3 N2          2.3230   -0.3150    1.5800 na        1 XBL      0.067300
      4 N3          2.1580   -0.0770    2.8750 nc        1 XBL     -0.506800
      5 C3          3.2480    0.1980    3.6080 cd        1 XBL      0.596200
      6 C13         4.6170    0.2190    3.0360 ca        1 XBL     -0.137300
      7 C18         5.7580    0.5420    3.7890 ca        1 XBL     -0.090000
      8 C17         7.0140    0.5430    3.1950 ca        1 XBL     -0.133000
      9 C16         7.1620    0.2280    1.8390 ca        1 XBL     -0.109000
     10 C15         6.0490   -0.0790    1.0690 ca        1 XBL     -0.101000
     11 C14         4.7760   -0.0790    1.6600 ca        1 XBL      0.023000
     12 C2          3.5860   -0.3600    0.8950 cc        1 XBL     -0.108300
     13 N1          3.3490   -0.6650   -0.4160 nd        1 XBL     -0.060000
     14 N           2.0550   -0.8130   -0.5950 nd        1 XBL     -0.368700
     15 N4          3.1240    0.5350    4.9960 nh        1 XBL     -0.712300
     16 C8          3.5900   -0.5130    5.9000 c3        1 XBL      0.217100
     17 C7          2.5380   -1.4280    6.4540 ca        1 XBL     -0.113300
     18 C9          2.9370   -2.6190    7.0690 ca        1 XBL     -0.119000
     19 C10         1.9890   -3.4740    7.6250 ca        1 XBL     -0.129000
     20 C11         0.6340   -3.1430    7.5680 ca        1 XBL     -0.122000
     21 C12         0.2320   -1.9590    6.9550 ca        1 XBL     -0.127000
     22 C6          1.1790   -1.0930    6.3940 ca        1 XBL     -0.063300
     23 C5          0.7230    0.1520    5.7210 c3        1 XBL     -0.067100
     24 C4          1.8660    1.1230    5.4300 c3        1 XBL      0.178800
     25 HC1        -0.3160   -1.4660    1.5820 hc        1 XBL      0.065367
     26 HC2        -0.4710    0.2980    1.1700 hc        1 XBL      0.065367
     27 HC3        -0.6170   -0.9580   -0.1410 hc        1 XBL      0.065367
     28 H18         5.6680    0.8080    4.8540 ha        1 XBL      0.151000
     29 H17         7.9010    0.7980    3.7950 ha        1 XBL      0.139000
     30 H16         8.1640    0.2290    1.3830 ha        1 XBL      0.142000
     31 H15         6.1490   -0.3190   -0.0010 ha        1 XBL      0.164000
     32 H81C        4.0740    0.0280    6.7670 h1        1 XBL      0.068700
     33 H82C        4.3860   -1.1250    5.3880 h1        1 XBL      0.068700
     34 H41C        1.5270    1.8750    4.6650 h1        1 XBL      0.064200
     35 H42C        2.1160    1.6810    6.3790 h1        1 XBL      0.064200
     36 H9          4.0050   -2.8800    7.1110 ha        1 XBL      0.132000
     37 H10         2.3080   -4.4100    8.1070 ha        1 XBL      0.134000
     38 H11        -0.1160   -3.8170    8.0070 ha        1 XBL      0.133000
     39 H12        -0.8360   -1.6980    6.9070 ha        1 XBL      0.133000
     40 H51C        0.2020   -0.1260    4.7650 hc        1 XBL      0.065700
     41 H52C       -0.0300    0.6800    6.3660 hc        1 XBL      0.065700
@<TRIPOS>BOND
     1    1    2 1   
     2    1   25 1   
     3    1   26 1   
     4    1   27 1   
     5    2    3 1   
     6    2   14 2   
     7    3    4 1   
     8    3   12 1   
     9    4    5 2   
    10    5    6 1   
    11    5   15 1   
    12    6    7 ar  
    13    6   11 ar  
    14    7    8 ar  
    15    7   28 1   
    16    8    9 ar  
    17    8   29 1   
    18    9   10 ar  
    19    9   30 1   
    20   10   11 ar  
    21   10   31 1   
    22   11   12 1   
    23   12   13 2   
    24   13   14 1   
    25   15   16 1   
    26   15   24 1   
    27   16   17 1   
    28   16   32 1   
    29   16   33 1   
    30   17   18 ar  
    31   17   22 ar  
    32   18   19 ar  
    33   18   36 1   
    34   19   20 ar  
    35   19   37 1   
    36   20   21 ar  
    37   20   38 1   
    38   21   22 ar  
    39   21   39 1   
    40   22   23 1   
    41   23   24 1   
    42   23   40 1   
    43   23   41 1   
    44   24   34 1   
    45   24   35 1   
@<TRIPOS>SUBSTRUCTURE
     1 XBL         1 TEMP              0 ****  ****    0 ROOT
