@<TRIPOS>MOLECULE
XBP
   26    25     1     0     0
SMALL
bcc


@<TRIPOS>ATOM
      1 C1         -0.1340   -0.0860   -2.3720 c3        1 XBP      0.133400
      2 C2          0.9830    0.1700   -1.3720 c         1 XBP      0.529100
      3 C3          0.8340   -0.5520   -0.0210 c3        1 XBP      0.021100
      4 C4          0.3970    0.3650    1.1470 c3        1 XBP      0.103100
      5 C5         -0.3300   -0.4460    2.2500 c3        1 XBP      0.197400
      6 O1          0.0020    0.6040   -3.5480 os        1 XBP     -0.559200
      7 O2          1.9960    0.8480   -1.5810 o         1 XBP     -0.579100
      8 O3          2.0670   -1.1920    0.2850 oh        1 XBP     -0.625800
      9 O4          1.5510    1.0040    1.6610 oh        1 XBP     -0.676800
     10 O5         -0.7610    0.3740    3.2680 os        1 XBP     -0.579200
     11 P1         -0.4950   -0.2210   -4.9940 p5        1 XBP      1.322900
     12 P2         -0.0450    0.1010    4.8120 p5        1 XBP      1.324900
     13 O1P        -1.9710    0.0810   -5.0650 o         1 XBP     -0.941833
     14 O2P         0.3340    0.4310   -6.0710 o         1 XBP     -0.941833
     15 O3P        -0.1640   -1.6650   -4.7050 o         1 XBP     -0.941833
     16 O4P         1.3890    0.4740    4.5140 o         1 XBP     -0.938500
     17 O5P        -0.7920    1.0410    5.7220 o         1 XBP     -0.938500
     18 O6P        -0.2850   -1.3640    5.0710 o         1 XBP     -0.938500
     19 H11        -0.1660   -1.2000   -2.5700 h1        1 XBP      0.022700
     20 H12        -1.0810    0.2210   -1.8280 h1        1 XBP      0.022700
     21 H3          0.0960   -1.3930   -0.1330 h1        1 XBP      0.061700
     22 H4         -0.2860    1.1630    0.7480 h1        1 XBP      0.028700
     23 H51        -1.2180   -0.9480    1.7650 h1        1 XBP     -0.001800
     24 H52         0.3710   -1.2370    2.6400 h1        1 XBP     -0.001800
     25 HO3         2.6550   -0.4940    0.6080 ho        1 XBP      0.417000
     26 HO4         1.5290    0.9030    2.6450 ho        1 XBP      0.483000
@<TRIPOS>BOND
     1    1    2 1   
     2    1    6 1   
     3    1   19 1   
     4    1   20 1   
     5    2    3 1   
     6    2    7 2   
     7    3    4 1   
     8    3    8 1   
     9    3   21 1   
    10    4    5 1   
    11    4    9 1   
    12    4   22 1   
    13    5   10 1   
    14    5   23 1   
    15    5   24 1   
    16    6   11 1   
    17    8   25 1   
    18    9   26 1   
    19   10   12 1   
    20   11   13 1   
    21   11   14 1   
    22   11   15 1   
    23   12   16 1   
    24   12   17 1   
    25   12   18 1   
@<TRIPOS>SUBSTRUCTURE
     1 XBP         1 TEMP              0 ****  ****    0 ROOT
