@<TRIPOS>MOLECULE
XBR
   43    46     1     0     0
SMALL
bcc


@<TRIPOS>ATOM
      1 C1          0.2090   -0.1970   -0.0160 ca        1 XBR     -0.166000
      2 C2          1.6100   -0.2200    0.0800 ca        1 XBR     -0.126000
      3 C3          2.2560   -0.1590    1.3070 ca        1 XBR     -0.147000
      4 C4          1.4650   -0.0670    2.4600 ca        1 XBR     -0.048200
      5 C5          0.0160   -0.0350    2.3690 ca        1 XBR     -0.074800
      6 C6         -0.5900   -0.1070    1.1160 ca        1 XBR     -0.087000
      7 C7         -0.4680    0.0710    3.7250 cc        1 XBR     -0.127400
      8 C8          0.6490    0.0930    4.5630 cd        1 XBR     -0.055300
      9 N9          1.8270   -0.0380    3.8130 na        1 XBR     -0.179400
     10 C11         0.5900    0.1800    6.0630 c3        1 XBR      0.287000
     11 N12        -0.7660    0.5260    6.5290 n3        1 XBR     -0.725600
     12 C13        -1.8170   -0.1420    5.7720 c3        1 XBR      0.166800
     13 C14        -1.8260    0.1680    4.2680 c3        1 XBR     -0.009200
     14 C15        -0.8850    0.2820    7.9730 c3        1 XBR      0.165800
     15 C16        -2.1330    0.8530    8.6230 c3        1 XBR     -0.198400
     16 C17        -2.1150    0.5470   10.1360 c         1 XBR      0.909600
     17 O18        -1.6140   -0.5480   10.5230 o         1 XBR     -0.845300
     18 O19        -2.6270    1.4070   10.9070 o         1 XBR     -0.845300
     19 C20         1.6460    1.1600    6.5300 ca        1 XBR     -0.068300
     20 C21         2.9500    0.6870    6.7280 ca        1 XBR     -0.109000
     21 C22         3.9700    1.5540    7.1130 ca        1 XBR     -0.130000
     22 C23         3.6820    2.9080    7.3050 ca        1 XBR      0.014400
     23 C24         2.3830    3.3900    7.1250 ca        1 XBR     -0.130000
     24 C25         1.3690    2.5150    6.7370 ca        1 XBR     -0.109000
     25 Cl          4.9280    3.9760    7.7660 cl        1 XBR     -0.119400
     26 H1         -0.2580   -0.2510   -1.0100 ha        1 XBR      0.119000
     27 H2          2.2080   -0.2890   -0.8410 ha        1 XBR      0.119000
     28 H6         -1.6860   -0.0920    1.0340 ha        1 XBR      0.130000
     29 H3          3.3520   -0.1810    1.3730 ha        1 XBR      0.126000
     30 H9          2.7250    0.1860    4.1540 hn        1 XBR      0.295700
     31 H141       -2.5160   -0.5550    3.7580 hc        1 XBR      0.046700
     32 H142       -2.2290    1.2020    4.0950 hc        1 XBR      0.046700
     33 H11         0.8850   -0.8470    6.4620 h1        1 XBR      0.046700
     34 H131       -1.7660   -1.2640    5.8990 h1        1 XBR      0.041700
     35 H132       -2.7990    0.2050    6.2020 h1        1 XBR      0.041700
     36 H151       -0.8420   -0.8230    8.2070 h1        1 XBR      0.049700
     37 H152        0.0090    0.7650    8.4630 h1        1 XBR      0.049700
     38 H161       -3.0600    0.3870    8.2050 hc        1 XBR      0.028700
     39 H162       -2.1970    1.9570    8.4680 hc        1 XBR      0.028700
     40 H21         3.1710   -0.3840    6.5980 ha        1 XBR      0.152000
     41 H25         0.3420    2.8960    6.6080 ha        1 XBR      0.152000
     42 H22         4.9880    1.1720    7.2750 ha        1 XBR      0.141000
     43 H24         2.1540    4.4530    7.2970 ha        1 XBR      0.141000
@<TRIPOS>BOND
     1    1    2 ar  
     2    1    6 ar  
     3    1   26 1   
     4    2    3 ar  
     5    2   27 1   
     6    3    4 ar  
     7    3   29 1   
     8    4    5 ar  
     9    4    9 1   
    10    5    6 ar  
    11    5    7 1   
    12    6   28 1   
    13    7    8 2   
    14    7   13 1   
    15    8    9 1   
    16    8   10 1   
    17    9   30 1   
    18   10   11 1   
    19   10   19 1   
    20   10   33 1   
    21   11   12 1   
    22   11   14 1   
    23   12   13 1   
    24   12   34 1   
    25   12   35 1   
    26   13   31 1   
    27   13   32 1   
    28   14   15 1   
    29   14   36 1   
    30   14   37 1   
    31   15   16 1   
    32   15   38 1   
    33   15   39 1   
    34   16   17 1   
    35   16   18 1   
    36   19   20 ar  
    37   19   24 ar  
    38   20   21 ar  
    39   20   40 1   
    40   21   22 ar  
    41   21   42 1   
    42   22   23 ar  
    43   22   25 1   
    44   23   24 ar  
    45   23   43 1   
    46   24   41 1   
@<TRIPOS>SUBSTRUCTURE
     1 XBR         1 TEMP              0 ****  ****    0 ROOT
