@<TRIPOS>MOLECULE
XBR
   43    46     1     0     0
SMALL
bcc


@<TRIPOS>ATOM
      1 C1          0.2060   -0.1950   -0.0160 ca        1 XBR     -0.166000
      2 C2          1.6070   -0.2240    0.0800 ca        1 XBR     -0.126000
      3 C3          2.2530   -0.1650    1.3060 ca        1 XBR     -0.147000
      4 C4          1.4620   -0.0710    2.4600 ca        1 XBR     -0.048200
      5 C5          0.0130   -0.0330    2.3690 ca        1 XBR     -0.074800
      6 C6         -0.5930   -0.1030    1.1160 ca        1 XBR     -0.087000
      7 C7         -0.4700    0.0730    3.7250 cc        1 XBR     -0.127400
      8 C8          0.6470    0.0910    4.5630 cd        1 XBR     -0.055300
      9 N9          1.8240   -0.0440    3.8120 na        1 XBR     -0.179400
     10 C11         0.5880    0.1780    6.0630 c3        1 XBR      0.287000
     11 N12        -0.7660    0.5290    6.5290 n3        1 XBR     -0.725600
     12 C13        -1.8200   -0.1350    5.7720 c3        1 XBR      0.166800
     13 C14        -1.8280    0.1750    4.2680 c3        1 XBR     -0.009200
     14 C15        -0.8850    0.2840    7.9730 c3        1 XBR      0.165800
     15 C16        -2.1340    0.8540    8.6240 c3        1 XBR     -0.198400
     16 C17        -2.1140    0.5500   10.1370 c         1 XBR      0.909600
     17 O18        -1.6070   -0.5420   10.5250 o         1 XBR     -0.845300
     18 O19        -2.6310    1.4080   10.9060 o         1 XBR     -0.845300
     19 C20         1.6480    1.1540    6.5300 ca        1 XBR     -0.068300
     20 C21         2.9500    0.6760    6.7280 ca        1 XBR     -0.109000
     21 C22         3.9730    1.5400    7.1140 ca        1 XBR     -0.130000
     22 C23         3.6900    2.8950    7.3050 ca        1 XBR      0.014400
     23 C24         2.3930    3.3820    7.1250 ca        1 XBR     -0.130000
     24 C25         1.3760    2.5100    6.7370 ca        1 XBR     -0.109000
     25 CL          4.9390    3.9590    7.7660 cl        1 XBR     -0.119400
     26 H1         -0.2620   -0.2480   -1.0100 ha        1 XBR      0.119000
     27 H2          2.2040   -0.2950   -0.8410 ha        1 XBR      0.119000
     28 H6         -1.6890   -0.0840    1.0340 ha        1 XBR      0.130000
     29 H3          3.3490   -0.1920    1.3720 ha        1 XBR      0.126000
     30 H9          2.7240    0.1770    4.1540 hn        1 XBR      0.295700
     31 H141       -2.5200   -0.5440    3.7580 hc        1 XBR      0.046700
     32 H142       -2.2270    1.2110    4.0960 hc        1 XBR      0.046700
     33 H11         0.8800   -0.8500    6.4620 h1        1 XBR      0.046700
     34 H131       -2.8000    0.2160    6.2020 h1        1 XBR      0.041700
     35 H132       -1.7730   -1.2570    5.8980 h1        1 XBR      0.041700
     36 H151       -0.8410   -0.8210    8.2070 h1        1 XBR      0.049700
     37 H152        0.0080    0.7670    8.4630 h1        1 XBR      0.049700
     38 H161       -3.0600    0.3850    8.2070 hc        1 XBR      0.028200
     39 H162       -2.2000    1.9570    8.4670 hc        1 XBR      0.028200
     40 H21         3.1680   -0.3950    6.5980 ha        1 XBR      0.152000
     41 H25         0.3500    2.8950    6.6080 ha        1 XBR      0.152000
     42 H22         4.9900    1.1540    7.2750 ha        1 XBR      0.141000
     43 H24         2.1680    4.4450    7.2970 ha        1 XBR      0.141000
@<TRIPOS>BOND
     1    1    2 ar  
     2    1    6 ar  
     3    1   26 1   
     4    2    3 ar  
     5    2   27 1   
     6    3    4 ar  
     7    3   29 1   
     8    4    5 ar  
     9    4    9 1   
    10    5    6 ar  
    11    5    7 1   
    12    6   28 1   
    13    7    8 2   
    14    7   13 1   
    15    8    9 1   
    16    8   10 1   
    17    9   30 1   
    18   10   11 1   
    19   10   19 1   
    20   10   33 1   
    21   11   12 1   
    22   11   14 1   
    23   12   13 1   
    24   12   34 1   
    25   12   35 1   
    26   13   31 1   
    27   13   32 1   
    28   14   15 1   
    29   14   36 1   
    30   14   37 1   
    31   15   16 1   
    32   15   38 1   
    33   15   39 1   
    34   16   17 1   
    35   16   18 1   
    36   19   20 ar  
    37   19   24 ar  
    38   20   21 ar  
    39   20   40 1   
    40   21   22 ar  
    41   21   42 1   
    42   22   23 ar  
    43   22   25 1   
    44   23   24 ar  
    45   23   43 1   
    46   24   41 1   
@<TRIPOS>SUBSTRUCTURE
     1 XBR         1 TEMP              0 ****  ****    0 ROOT
