@<TRIPOS>MOLECULE
XBT
   22    21     1     0     0
SMALL
bcc


@<TRIPOS>ATOM
      1 S1         -1.9500   -0.4450    0.4360 ss        1 XBT      0.108000
      2 C2         -0.4960   -0.4450    0.4360 c2        1 XBT     -0.127000
      3 N3          0.0870   -0.4450    1.7900 n1        1 XBT     -0.168000
      4 C4         -0.8210    0.1040    2.8450 c2        1 XBT     -0.113000
      5 C5         -2.3420    0.0400    2.0310 c3        1 XBT     -0.306000
      6 C6          0.2600    0.1840   -0.7130 c3        1 XBT     -0.055000
      7 C7          1.3200   -0.7770   -1.2060 c3        1 XBT     -0.154000
      8 C8          2.6160   -0.0290   -1.4260 c3        1 XBT     -0.211000
      9 C9         -0.7010    0.4950   -1.8390 c3        1 XBT     -0.218000
     10 H4         -0.8780   -0.4040    3.6760 ha        1 XBT      0.115500
     11 H5         -2.9270   -0.6170    2.4540 h1        1 XBT      0.117000
     12 H6          0.6850    1.0090   -0.4110 hc        1 XBT      0.117000
     13 H7          1.0290   -1.1790   -2.0470 hc        1 XBT      0.090500
     14 H7A         1.4570   -1.4780   -0.5410 hc        1 XBT      0.090500
     15 H8          3.2940   -0.6460   -1.7620 hc        1 XBT      0.074667
     16 H8A         2.9170    0.3560   -0.5810 hc        1 XBT      0.074667
     17 H8B         2.4740    0.6840   -2.0770 hc        1 XBT      0.074667
     18 H9         -1.3490    1.1610   -1.5400 hc        1 XBT      0.086000
     19 H9A        -0.2050    0.8460   -2.6030 hc        1 XBT      0.086000
     20 H9B        -1.1700   -0.3200   -2.1020 hc        1 XBT      0.086000
     21 H12        -0.5350    0.9860    3.1530 ha        1 XBT      0.115500
     22 H13        -2.7640    0.9200    2.0260 h1        1 XBT      0.117000
@<TRIPOS>BOND
     1    1    2 1   
     2    1    5 1   
     3    2    3 1   
     4    2    6 1   
     5    4    5 1   
     6    4   10 1   
     7    4   21 1   
     8    5   11 1   
     9    5   22 1   
    10    6    7 1   
    11    6    9 1   
    12    6   12 1   
    13    7    8 1   
    14    7   13 1   
    15    7   14 1   
    16    8   15 1   
    17    8   16 1   
    18    8   17 1   
    19    9   18 1   
    20    9   19 1   
    21    9   20 1   
@<TRIPOS>SUBSTRUCTURE
     1 XBT         1 TEMP              0 ****  ****    0 ROOT
