@<TRIPOS>MOLECULE
XBT
   22    22     1     0     0
SMALL
bcc


@<TRIPOS>ATOM
      1 S1          0.2030    0.4100   -0.0610 ss        1 XBT     -0.304300
      2 C2          1.8680   -0.1220    0.1100 c2        1 XBT      0.459200
      3 N3          2.2690   -0.4070    1.3080 n2        1 XBT     -0.575900
      4 C4          1.2390   -0.2280    2.3100 c3        1 XBT      0.089800
      5 C5         -0.0860    0.2590    1.6950 c3        1 XBT     -0.040300
      6 C6          2.6870   -0.2050   -1.1430 c3        1 XBT     -0.087000
      7 C7          3.9070    0.7030   -1.0350 c3        1 XBT     -0.073400
      8 C8          4.5340    0.9710   -2.3790 c3        1 XBT     -0.094100
      9 C9          3.0820   -1.6430   -1.4150 c3        1 XBT     -0.088100
     10 H4          1.0880   -1.2120    2.8350 h1        1 XBT      0.076700
     11 H5         -0.9080   -0.4690    1.8780 h1        1 XBT      0.078700
     12 H6          2.0420    0.1610   -1.9940 hc        1 XBT      0.064700
     13 H7          4.6590    0.2310   -0.3490 hc        1 XBT      0.051700
     14 H7A         3.5990    1.6780   -0.5720 hc        1 XBT      0.051700
     15 H8          4.8990    0.0240   -2.8450 hc        1 XBT      0.035033
     16 H8A         5.4030    1.6630   -2.2640 hc        1 XBT      0.035033
     17 H8B         3.7970    1.4430   -3.0740 hc        1 XBT      0.035033
     18 H9          3.7480   -2.0290   -0.6060 hc        1 XBT      0.044033
     19 H9A         2.1750   -2.2920   -1.4700 hc        1 XBT      0.044033
     20 H9B         3.6260   -1.7090   -2.3880 hc        1 XBT      0.044033
     21 H12         1.6140    0.5140    3.0690 h1        1 XBT      0.076700
     22 H13        -0.3850    1.2470    2.1120 h1        1 XBT      0.078700
@<TRIPOS>BOND
     1    1    2 1   
     2    1    5 1   
     3    2    3 2   
     4    2    6 1   
     5    3    4 1   
     6    4    5 1   
     7    4   10 1   
     8    4   21 1   
     9    5   11 1   
    10    5   22 1   
    11    6    7 1   
    12    6    9 1   
    13    6   12 1   
    14    7    8 1   
    15    7   13 1   
    16    7   14 1   
    17    8   15 1   
    18    8   16 1   
    19    8   17 1   
    20    9   18 1   
    21    9   19 1   
    22    9   20 1   
@<TRIPOS>SUBSTRUCTURE
     1 XBT         1 TEMP              0 ****  ****    0 ROOT
