@<TRIPOS>MOLECULE
XBT
   22    22     1     0     0
SMALL
bcc


@<TRIPOS>ATOM
      1 S1          1.2890   -0.7910    0.9100 ss        1 XBT     -0.304300
      2 C2          0.1530    0.0820   -0.1080 c2        1 XBT      0.459200
      3 N3          0.6290    1.0670   -0.8010 n2        1 XBT     -0.575900
      4 C4          2.0500    1.2690   -0.6020 c3        1 XBT      0.089800
      5 C5          2.6430    0.2530    0.3920 c3        1 XBT     -0.040300
      6 C6         -1.2720   -0.3840   -0.0910 c3        1 XBT     -0.087000
      7 C7         -2.1890    0.7450    0.3640 c3        1 XBT     -0.073400
      8 C8         -3.5450    0.2370    0.7820 c3        1 XBT     -0.094100
      9 C9         -1.6650   -0.9090   -1.4580 c3        1 XBT     -0.088100
     10 H4          2.5590    1.1790   -1.6010 h1        1 XBT      0.076700
     11 H5          3.0810    0.7640    1.2780 h1        1 XBT      0.078700
     12 H6         -1.3430   -1.2280    0.6540 hc        1 XBT      0.064700
     13 H7         -1.7130    1.2780    1.2290 hc        1 XBT      0.051700
     14 H7A        -2.2990    1.4900   -0.4680 hc        1 XBT      0.051700
     15 H8         -4.1770    1.0860    1.1380 hc        1 XBT      0.035033
     16 H8A        -4.0690   -0.2550   -0.0730 hc        1 XBT      0.035033
     17 H8B        -3.4540   -0.5050    1.6110 hc        1 XBT      0.035033
     18 H9         -0.9670   -1.7200   -1.7800 hc        1 XBT      0.044033
     19 H9A        -2.7000   -1.3250   -1.4200 hc        1 XBT      0.044033
     20 H9B        -1.6360   -0.0920   -2.2180 hc        1 XBT      0.044033
     21 H12         2.2050    2.3180   -0.2270 h1        1 XBT      0.076700
     22 H13         3.4320   -0.3680   -0.0870 h1        1 XBT      0.078700
@<TRIPOS>BOND
     1    1    2 1   
     2    1    5 1   
     3    2    3 2   
     4    2    6 1   
     5    3    4 1   
     6    4    5 1   
     7    4   10 1   
     8    4   21 1   
     9    5   11 1   
    10    5   22 1   
    11    6    7 1   
    12    6    9 1   
    13    6   12 1   
    14    7    8 1   
    15    7   13 1   
    16    7   14 1   
    17    8   15 1   
    18    8   16 1   
    19    8   17 1   
    20    9   18 1   
    21    9   19 1   
    22    9   20 1   
@<TRIPOS>SUBSTRUCTURE
     1 XBT         1 TEMP              0 ****  ****    0 ROOT
