@<TRIPOS>MOLECULE
XBT
   22    22     1     0     0
SMALL
bcc


@<TRIPOS>ATOM
      1 S1          0.2220    0.4920   -0.0490 ss        1 XBT     -0.304300
      2 C2          1.8650   -0.1090    0.1120 c2        1 XBT      0.459200
      3 N3          2.2510   -0.4410    1.3030 n2        1 XBT     -0.575900
      4 C4          1.2240   -0.2500    2.3070 c3        1 XBT      0.089800
      5 C5         -0.0790    0.3040    1.7010 c3        1 XBT     -0.040300
      6 C6          2.6850   -0.1890   -1.1410 c3        1 XBT     -0.087000
      7 C7          3.9380    0.6700   -1.0050 c3        1 XBT     -0.073400
      8 C8          4.5790    0.9490   -2.3400 c3        1 XBT     -0.094100
      9 C9          3.0270   -1.6330   -1.4500 c3        1 XBT     -0.088100
     10 H4          1.6240    0.4560    3.0860 h1        1 XBT      0.076700
     11 H5         -0.3420    1.2910    2.1440 h1        1 XBT      0.078700
     12 H6          2.0570    0.2220   -1.9840 hc        1 XBT      0.064700
     13 H7          3.6640    1.6430   -0.5180 hc        1 XBT      0.051700
     14 H7A         4.6690    0.1530   -0.3300 hc        1 XBT      0.051700
     15 H8          4.9100    0.0020   -2.8300 hc        1 XBT      0.035033
     16 H8A         3.8630    1.4660   -3.0250 hc        1 XBT      0.035033
     17 H8B         5.4720    1.6050   -2.2040 hc        1 XBT      0.035033
     18 H9          3.6760   -2.0650   -0.6500 hc        1 XBT      0.044033
     19 H9A         2.0970   -2.2470   -1.5240 hc        1 XBT      0.044033
     20 H9B         3.5710   -1.6930   -2.4230 hc        1 XBT      0.044033
     21 H12         1.0330   -1.2410    2.8040 h1        1 XBT      0.076700
     22 H13        -0.9280   -0.3960    1.8620 h1        1 XBT      0.078700
@<TRIPOS>BOND
     1    1    2 1   
     2    1    5 1   
     3    2    3 2   
     4    2    6 1   
     5    3    4 1   
     6    4    5 1   
     7    4   10 1   
     8    4   21 1   
     9    5   11 1   
    10    5   22 1   
    11    6    7 1   
    12    6    9 1   
    13    6   12 1   
    14    7    8 1   
    15    7   13 1   
    16    7   14 1   
    17    8   15 1   
    18    8   16 1   
    19    8   17 1   
    20    9   18 1   
    21    9   19 1   
    22    9   20 1   
@<TRIPOS>SUBSTRUCTURE
     1 XBT         1 TEMP              0 ****  ****    0 ROOT
