@<TRIPOS>MOLECULE
XBT
   22    22     1     0     0
SMALL
bcc


@<TRIPOS>ATOM
      1 S1          0.2000    0.3900   -0.0460 ss        1 XBT     -0.304300
      2 C2          1.8710   -0.1290    0.1140 c2        1 XBT      0.459200
      3 N3          2.2820   -0.4140    1.3080 n2        1 XBT     -0.575900
      4 C4          1.2560   -0.2480    2.3170 c3        1 XBT      0.089800
      5 C5         -0.0770    0.2300    1.7110 c3        1 XBT     -0.040300
      6 C6          2.6840   -0.2000   -1.1450 c3        1 XBT     -0.087000
      7 C7          3.8980    0.7170   -1.0390 c3        1 XBT     -0.073400
      8 C8          4.5140    0.9950   -2.3860 c3        1 XBT     -0.094100
      9 C9          3.0870   -1.6340   -1.4250 c3        1 XBT     -0.088100
     10 H4          1.6280    0.4940    3.0760 h1        1 XBT      0.076700
     11 H5         -0.8920   -0.5060    1.8960 h1        1 XBT      0.078700
     12 H6          2.0310    0.1650   -1.9910 hc        1 XBT      0.064700
     13 H7          4.6570    0.2470   -0.3600 hc        1 XBT      0.051700
     14 H7A         3.5850    1.6870   -0.5700 hc        1 XBT      0.051700
     15 H8          4.8830    0.0530   -2.8590 hc        1 XBT      0.035033
     16 H8A         3.7710    1.4660   -3.0740 hc        1 XBT      0.035033
     17 H8B         5.3790    1.6920   -2.2720 hc        1 XBT      0.035033
     18 H9          3.7610   -2.0190   -0.6220 hc        1 XBT      0.044033
     19 H9A         2.1850   -2.2890   -1.4780 hc        1 XBT      0.044033
     20 H9B         3.6260   -1.6910   -2.4010 hc        1 XBT      0.044033
     21 H12         1.1150   -1.2350    2.8390 h1        1 XBT      0.076700
     22 H13        -0.3830    1.2130    2.1330 h1        1 XBT      0.078700
@<TRIPOS>BOND
     1    1    2 1   
     2    1    5 1   
     3    2    3 2   
     4    2    6 1   
     5    3    4 1   
     6    4    5 1   
     7    4   10 1   
     8    4   21 1   
     9    5   11 1   
    10    5   22 1   
    11    6    7 1   
    12    6    9 1   
    13    6   12 1   
    14    7    8 1   
    15    7   13 1   
    16    7   14 1   
    17    8   15 1   
    18    8   16 1   
    19    8   17 1   
    20    9   18 1   
    21    9   19 1   
    22    9   20 1   
@<TRIPOS>SUBSTRUCTURE
     1 XBT         1 TEMP              0 ****  ****    0 ROOT
