@<TRIPOS>MOLECULE
XBV
   57    60     1     0     0
SMALL
bcc


@<TRIPOS>ATOM
      1 C1          1.6510    1.4670    0.1640 c3        1 XBV     -0.171700
      2 C2          0.7700    2.1040   -0.9230 c3        1 XBV     -0.152700
      3 C3          1.2210    3.5800   -1.0060 c3        1 XBV      0.160800
      4 N4          2.3150    3.8130   -0.0560 n3        1 XBV     -0.701600
      5 C5          2.7690    2.5040    0.4100 c3        1 XBV      0.151800
      6 C6          2.1480    0.0890   -0.2530 c         1 XBV      0.684100
      7 C7         -0.7090    1.9670   -0.5780 c         1 XBV      0.671100
      8 N8         -1.2140    0.6790   -0.6680 n         1 XBV     -0.464100
      9 O9         -1.3920    2.9480   -0.2290 o         1 XBV     -0.597100
     10 O10         1.5270   -0.5770   -1.0980 o         1 XBV     -0.566100
     11 N11         3.2590   -0.3910    0.4300 n         1 XBV     -0.558400
     12 C12         3.9810   -1.5650    0.1250 ca        1 XBV      0.531200
     13 N13         3.9960   -2.0490   -1.1560 nb        1 XBV     -0.656000
     14 C14         5.4280   -3.8580   -0.4020 ca        1 XBV     -0.131900
     15 C15         5.4270   -3.3540    0.9020 ca        1 XBV     -0.065000
     16 C16         4.6960   -3.1660   -1.3910 ca        1 XBV      0.435200
     17 C17         4.7020   -2.2000    1.1800 ca        1 XBV     -0.272300
     18 CL1         6.2840   -5.2610   -0.7970 cl        1 XBV     -0.068400
     19 C19        -2.5370    0.2800   -0.4340 ca        1 XBV      0.042600
     20 C20        -3.4940    1.0930    0.2040 ca        1 XBV     -0.132000
     21 C21        -5.1950   -0.6370    0.0240 ca        1 XBV      0.026600
     22 C22        -4.2560   -1.4790   -0.5980 ca        1 XBV     -0.160000
     23 C23        -4.7920    0.6500    0.4260 ca        1 XBV     -0.094000
     24 C24        -2.9510   -1.0300   -0.8340 ca        1 XBV      0.081900
     25 N25        -6.5290   -1.0910    0.2370 n         1 XBV     -0.256200
     26 C26        -7.1640   -1.7870   -0.7780 cc        1 XBV      0.014600
     27 C27        -9.1330   -2.1080    0.5850 cd        1 XBV     -0.038000
     28 C28        -8.5460   -1.4250    1.6000 cc        1 XBV     -0.255200
     29 C29        -8.4300   -2.2930   -0.6440 cd        1 XBV     -0.248000
     30 C30        -7.1980   -0.8640    1.4740 c         1 XBV      0.691700
     31 O31        -6.6380   -0.2170    2.3780 o         1 XBV     -0.629500
     32 F32        -2.0770   -1.8700   -1.4450 f         1 XBV     -0.136900
     33 C33         1.9820    4.7530    0.9950 c3        1 XBV      0.113800
     34 C34         3.2220    5.3910    1.6920 c3        1 XBV      0.400900
     35 F35         3.9860    4.4770    2.3830 f         1 XBV     -0.242800
     36 F36         4.1230    5.9530    0.8210 f         1 XBV     -0.242800
     37 H1          1.0570    1.3250    1.1100 hc        1 XBV      0.089700
     38 H2          0.9600    1.6090   -1.9160 hc        1 XBV      0.107700
     39 H51C        3.0620    2.5220    1.4940 h1        1 XBV      0.069700
     40 H52C        3.6790    2.2510   -0.2020 h1        1 XBV      0.069700
     41 H31C        1.6390    3.7810   -2.0310 h1        1 XBV      0.078700
     42 H32C        0.3510    4.2720   -0.8380 h1        1 XBV      0.078700
     43 H331        1.4090    5.6090    0.5390 h1        1 XBV      0.062700
     44 H332        1.3560    4.2980    1.8150 h1        1 XBV      0.062700
     45 H11         3.6470    0.1700    1.1550 hn        1 XBV      0.328500
     46 H8         -0.5980   -0.0340   -1.0160 hn        1 XBV      0.356500
     47 H17         4.6860   -1.7940    2.2000 ha        1 XBV      0.148000
     48 H16         4.6720   -3.5240   -2.4380 h4        1 XBV      0.043100
     49 H15         5.9870   -3.8610    1.7030 ha        1 XBV      0.155000
     50 H20        -3.2230    2.1100    0.5380 ha        1 XBV      0.181000
     51 H23        -5.5010    1.3140    0.9510 ha        1 XBV      0.169000
     52 H22        -4.5180   -2.5040   -0.9050 ha        1 XBV      0.154000
     53 H26        -6.5910   -1.9030   -1.7180 h4        1 XBV      0.159000
     54 H29        -8.9040   -2.8330   -1.4730 ha        1 XBV      0.153000
     55 H27       -10.1460   -2.5270    0.6850 ha        1 XBV      0.141000
     56 H28        -9.0330   -1.2480    2.5690 ha        1 XBV      0.164000
     57 H34         2.8410    6.1820    2.4100 h2        1 XBV      0.063700
@<TRIPOS>BOND
     1    1    2 1   
     2    1    5 1   
     3    1    6 1   
     4    1   37 1   
     5    2    3 1   
     6    2    7 1   
     7    2   38 1   
     8    3    4 1   
     9    3   41 1   
    10    3   42 1   
    11    4    5 1   
    12    4   33 1   
    13    5   39 1   
    14    5   40 1   
    15    6   10 2   
    16    6   11 1   
    17    7    8 1   
    18    7    9 2   
    19    8   19 1   
    20    8   46 1   
    21   11   12 1   
    22   11   45 1   
    23   12   13 ar  
    24   12   17 ar  
    25   13   16 ar  
    26   14   15 ar  
    27   14   16 ar  
    28   14   18 1   
    29   15   17 ar  
    30   15   49 1   
    31   16   48 1   
    32   17   47 1   
    33   19   20 ar  
    34   19   24 ar  
    35   20   23 ar  
    36   20   50 1   
    37   21   22 ar  
    38   21   23 ar  
    39   21   25 1   
    40   22   24 ar  
    41   22   52 1   
    42   23   51 1   
    43   24   32 1   
    44   25   26 1   
    45   25   30 1   
    46   26   29 2   
    47   26   53 1   
    48   27   28 2   
    49   27   29 1   
    50   27   55 1   
    51   28   30 1   
    52   28   56 1   
    53   29   54 1   
    54   30   31 2   
    55   33   34 1   
    56   33   43 1   
    57   33   44 1   
    58   34   35 1   
    59   34   36 1   
    60   34   57 1   
@<TRIPOS>SUBSTRUCTURE
     1 XBV         1 TEMP              0 ****  ****    0 ROOT
