@<TRIPOS>MOLECULE
XBV
   57    60     1     0     0
SMALL
bcc


@<TRIPOS>ATOM
      1 C1          0.4100   -0.2280    0.6430 c3        1 XBV     -0.171700
      2 C2          1.8920   -0.1880    1.0500 c3        1 XBV     -0.152700
      3 C3          1.9110   -0.4770    2.5690 c3        1 XBV      0.160800
      4 N4          0.5410   -0.7040    3.0420 n3        1 XBV     -0.701600
      5 C5         -0.3050   -0.8580    1.8590 c3        1 XBV      0.151800
      6 C6          0.2090   -0.9790   -0.6670 c         1 XBV      0.684100
      7 C7          2.5160    1.1620    0.7080 c         1 XBV      0.671100
      8 N8          2.6950    1.3970   -0.6460 n         1 XBV     -0.464100
      9 O9          2.8210    1.9830    1.5930 o         1 XBV     -0.597100
     10 O10         1.1390   -1.0830   -1.4840 o         1 XBV     -0.566100
     11 N11        -1.0780   -1.4400   -0.9130 n         1 XBV     -0.558400
     12 C12        -1.4730   -2.2780   -1.9790 ca        1 XBV      0.531200
     13 N13        -0.5700   -3.1350   -2.5500 nb        1 XBV     -0.656000
     14 C14        -2.3190   -3.8980   -4.0500 ca        1 XBV     -0.131900
     15 C15        -3.2450   -3.0360   -3.4560 ca        1 XBV     -0.065000
     16 C16        -0.9960   -3.9060   -3.5580 ca        1 XBV      0.435200
     17 C17        -2.8310   -2.2150   -2.4120 ca        1 XBV     -0.272300
     18 CL1        -2.7630   -4.9120   -5.3270 cl        1 XBV     -0.068400
     19 C19         3.2670    2.5360   -1.2290 ca        1 XBV      0.042600
     20 C20         3.4900    3.7400   -0.5320 ca        1 XBV     -0.132000
     21 C21         4.4080    4.8080   -2.5150 ca        1 XBV      0.026600
     22 C22         4.1790    3.6260   -3.2430 ca        1 XBV     -0.160000
     23 C23         4.0490    4.8480   -1.1550 ca        1 XBV     -0.094000
     24 C24         3.6270    2.5040   -2.6130 ca        1 XBV      0.081900
     25 N25         4.9950    5.9370   -3.1560 n         1 XBV     -0.256200
     26 C26         6.0630    5.7340   -4.0140 cc        1 XBV      0.014600
     27 C27         6.1720    8.0900   -4.5400 cd        1 XBV     -0.038000
     28 C28         5.1340    8.3290   -3.7010 cc        1 XBV     -0.255200
     29 C29         6.6610    6.7570   -4.7020 cd        1 XBV     -0.248000
     30 C30         4.4870    7.2510   -2.9470 c         1 XBV      0.691700
     31 O31         3.5440    7.4390   -2.1560 o         1 XBV     -0.629500
     32 F32         3.4300    1.3800   -3.3490 f         1 XBV     -0.136900
     33 C33         0.0830    0.2870    3.9930 c3        1 XBV      0.113800
     34 C34        -1.1190   -0.1820    4.8700 c3        1 XBV      0.400900
     35 F35        -2.2670   -0.4050    4.1410 f         1 XBV     -0.242800
     36 F36        -0.9130   -1.3850    5.4990 f         1 XBV     -0.242800
     37 H1          0.0240    0.8160    0.4820 hc        1 XBV      0.089700
     38 H2          2.4640   -0.9980    0.5180 hc        1 XBV      0.107700
     39 H51C       -1.3190   -0.3990    2.0050 h1        1 XBV      0.069700
     40 H52C       -0.4330   -1.9660    1.7060 h1        1 XBV      0.069700
     41 H31C        2.4760   -1.4320    2.7550 h1        1 XBV      0.078700
     42 H32C        2.4260    0.3530    3.1250 h1        1 XBV      0.078700
     43 H331       -0.2370    1.2540    3.5090 h1        1 XBV      0.062700
     44 H332        0.9220    0.5060    4.7120 h1        1 XBV      0.062700
     45 H11        -1.7880   -1.2400   -0.2450 hn        1 XBV      0.328500
     46 H8          2.4710    0.6490   -1.2770 hn        1 XBV      0.356500
     47 H17        -3.5450   -1.5270   -1.9380 ha        1 XBV      0.148000
     48 H16        -0.2300   -4.5760   -3.9930 h4        1 XBV      0.043100
     49 H15        -4.2880   -3.0000   -3.8070 ha        1 XBV      0.155000
     50 H20         3.2230    3.8180    0.5360 ha        1 XBV      0.181000
     51 H23         4.1840    5.7770   -0.5740 ha        1 XBV      0.169000
     52 H22         4.4180    3.5560   -4.3160 ha        1 XBV      0.154000
     53 H26         6.4170    4.6900   -4.1080 h4        1 XBV      0.159000
     54 H29         7.5090    6.5590   -5.3680 ha        1 XBV      0.153000
     55 H27         6.6550    8.9030   -5.1030 ha        1 XBV      0.141000
     56 H28         4.7120    9.3300   -3.5330 ha        1 XBV      0.164000
     57 H34        -1.3140    0.6240    5.6420 h2        1 XBV      0.063700
@<TRIPOS>BOND
     1    1    2 1   
     2    1    5 1   
     3    1    6 1   
     4    1   37 1   
     5    2    3 1   
     6    2    7 1   
     7    2   38 1   
     8    3    4 1   
     9    3   41 1   
    10    3   42 1   
    11    4    5 1   
    12    4   33 1   
    13    5   39 1   
    14    5   40 1   
    15    6   10 2   
    16    6   11 1   
    17    7    8 1   
    18    7    9 2   
    19    8   19 1   
    20    8   46 1   
    21   11   12 1   
    22   11   45 1   
    23   12   13 ar  
    24   12   17 ar  
    25   13   16 ar  
    26   14   15 ar  
    27   14   16 ar  
    28   14   18 1   
    29   15   17 ar  
    30   15   49 1   
    31   16   48 1   
    32   17   47 1   
    33   19   20 ar  
    34   19   24 ar  
    35   20   23 ar  
    36   20   50 1   
    37   21   22 ar  
    38   21   23 ar  
    39   21   25 1   
    40   22   24 ar  
    41   22   52 1   
    42   23   51 1   
    43   24   32 1   
    44   25   26 1   
    45   25   30 1   
    46   26   29 2   
    47   26   53 1   
    48   27   28 2   
    49   27   29 1   
    50   27   55 1   
    51   28   30 1   
    52   28   56 1   
    53   29   54 1   
    54   30   31 2   
    55   33   34 1   
    56   33   43 1   
    57   33   44 1   
    58   34   35 1   
    59   34   36 1   
    60   34   57 1   
@<TRIPOS>SUBSTRUCTURE
     1 XBV         1 TEMP              0 ****  ****    0 ROOT
