@<TRIPOS>MOLECULE
XBV
   57    54     1     0     0
SMALL
bcc


@<TRIPOS>ATOM
      1 C1         -1.9390   -0.7180    1.4400 c3        1 XBV     -0.143000
      2 C2         -0.5790   -0.7790    1.4640 c3        1 XBV     -0.156000
      3 C3         -0.2580   -0.8300    3.0670 c3        1 XBV     -0.074000
      4 N4         -1.5540   -0.4520    3.8020 n3        1 XBV     -0.242000
      5 C5         -2.3360    0.0140    2.9220 c3        1 XBV     -0.083000
      6 C6         -2.6240   -2.0940    1.2190 c2        1 XBV      0.316000
      7 C7          0.1400    0.4140    0.6920 c2        1 XBV      0.327000
      8 N8          1.2590    0.1270   -0.2260 n         1 XBV     -0.310000
      9 O9         -0.2010    1.5720    0.8980 o         1 XBV     -0.378000
     10 O10        -2.8770   -2.8050    2.1700 o         1 XBV     -0.301000
     11 N11        -2.8990   -2.5640   -0.1370 n         1 XBV     -0.334000
     12 C12        -3.4720   -3.8790   -0.3470 c2        1 XBV      0.132000
     13 N13        -3.4920   -4.7820    0.6750 n2        1 XBV     -0.138000
     14 C14        -4.7420   -6.2900   -0.6940 c1        1 XBV     -0.152000
     15 C15        -4.7230   -5.3830   -1.7220 c1        1 XBV     -0.063000
     16 C16        -4.1200   -5.9850    0.5130 c1        1 XBV     -0.029000
     17 C17        -4.0950   -4.1820   -1.5600 c1        1 XBV     -0.215000
     18 CL1        -5.4490   -7.8720   -0.9360 cl        1 XBV      0.004000
     19 C19         1.9650    1.2280   -0.8920 c2        1 XBV      0.040000
     20 C20         1.3700    1.8890   -1.9630 c2        1 XBV     -0.125000
     21 C21         3.3880    3.1680   -2.2960 c1        1 XBV      0.044000
     22 C22         3.9870    2.5060   -1.2220 c1        1 XBV     -0.117000
     23 C23         2.0800    2.8580   -2.6640 c1        1 XBV     -0.135000
     24 C24         3.2810    1.5400   -0.5210 c1        1 XBV      0.049000
     25 N25         4.1420    4.1280   -3.0640 n3        1 XBV     -0.198000
     26 C26         3.8910    5.5580   -2.8930 c2        1 XBV      0.009000
     27 C27         5.6410    6.1120   -4.7200 c1        1 XBV     -0.135000
     28 C28         5.8940    4.6710   -4.8890 c1        1 XBV     -0.135000
     29 C29         4.6280    6.5700   -3.7550 c1        1 XBV     -0.243000
     30 C30         5.1530    3.6670   -4.0260 c1        1 XBV      0.330000
     31 O31         5.3610    2.4760   -4.1650 o         1 XBV     -0.351000
     32 F32         3.9050    0.8010    0.4080 f         1 XBV     -0.107000
     33 C33        -2.1410   -1.6410    4.3870 c3        1 XBV     -0.130000
     34 C34        -2.2100   -1.4820    5.8830 c3        1 XBV      0.216000
     35 F35        -2.4820   -0.2010    6.1850 f         1 XBV     -0.174500
     36 F36        -3.1740   -2.2690    6.3710 f         1 XBV     -0.174500
     37 H1         -2.2700   -0.2040    0.6770 hc        1 XBV      0.140000
     38 H2         -0.2370   -1.5550    0.9960 hc        1 XBV      0.138000
     39 H51C       -2.2200    0.9880    2.8560 h1        1 XBV      0.123500
     40 H52C       -3.2590   -0.1950    3.1580 h1        1 XBV      0.123500
     41 H31C        0.0200   -1.7330    3.3240 h1        1 XBV      0.100500
     42 H32C        0.4510   -0.1880    3.2870 h1        1 XBV      0.100500
     43 H331       -1.5960   -2.4120    4.1680 h1        1 XBV      0.106000
     44 H332       -3.0420   -1.7680    4.0310 h1        1 XBV      0.106000
     45 H11        -2.6950   -2.0310   -0.8590 hn        1 XBV      0.262000
     46 H8          1.4910   -0.7370   -0.4040 hn        1 XBV      0.246000
     47 H17        -4.0800   -3.5340   -2.2940 ha        1 XBV      0.150000
     48 H16        -4.1340   -6.6320    1.2460 ha        1 XBV      0.177000
     49 H15        -5.1580   -5.5970   -2.5700 ha        1 XBV      0.153000
     50 H20         0.4530    1.6710   -2.2230 ha        1 XBV      0.179000
     51 H23         1.6590    3.3240   -3.4210 ha        1 XBV      0.146000
     52 H22         4.9040    2.7240   -0.9640 ha        1 XBV      0.183000
     53 H26         3.2140    5.8630   -2.2490 h4        1 XBV      0.158000
     54 H29         4.4560    7.5340   -3.6390 ha        1 XBV      0.154000
     55 H27         6.1160    6.7600   -5.2750 ha        1 XBV      0.155000
     56 H28         6.5650    4.3640   -5.5280 ha        1 XBV      0.155000
     57 H34        -1.3550   -1.7340    6.2770 h2        1 XBV      0.119000
@<TRIPOS>BOND
     1    1    2 1   
     2    1    5 1   
     3    1    6 1   
     4    1   37 1   
     5    2    3 1   
     6    2    7 1   
     7    2   38 1   
     8    3    4 1   
     9    3   41 1   
    10    3   42 1   
    11    4    5 1   
    12    4   33 1   
    13    5   39 1   
    14    5   40 1   
    15    6   10 1   
    16    6   11 1   
    17    7    8 1   
    18    7    9 1   
    19    8   19 1   
    20    8   46 1   
    21   11   12 1   
    22   11   45 1   
    23   12   13 1   
    24   12   17 1   
    25   13   16 1   
    26   14   15 1   
    27   14   18 1   
    28   15   49 1   
    29   16   48 1   
    30   17   47 1   
    31   19   20 1   
    32   19   24 1   
    33   20   23 1   
    34   20   50 1   
    35   21   22 1   
    36   21   25 1   
    37   22   52 1   
    38   23   51 1   
    39   24   32 1   
    40   25   26 1   
    41   25   30 1   
    42   26   29 1   
    43   26   53 1   
    44   27   28 1   
    45   27   55 1   
    46   28   56 1   
    47   29   54 1   
    48   30   31 1   
    49   33   34 1   
    50   33   43 1   
    51   33   44 1   
    52   34   35 1   
    53   34   36 1   
    54   34   57 1   
@<TRIPOS>SUBSTRUCTURE
     1 XBV         1 TEMP              0 ****  ****    0 ROOT
