@<TRIPOS>MOLECULE
XBV
   57    60     1     0     0
SMALL
bcc


@<TRIPOS>ATOM
      1 C1          0.4030   -0.2210    0.6440 c3        1 XBV     -0.171700
      2 C2          1.8790   -0.1670    1.0690 c3        1 XBV     -0.152700
      3 C3          1.8790   -0.4410    2.5910 c3        1 XBV      0.160800
      4 N4          0.5050   -0.6710    3.0490 n3        1 XBV     -0.701600
      5 C5         -0.3250   -0.8420    1.8570 c3        1 XBV      0.151800
      6 C6          0.2230   -0.9860   -0.6600 c         1 XBV      0.684100
      7 C7          2.4990    1.1830    0.7220 c         1 XBV      0.671100
      8 N8          2.6930    1.4060   -0.6320 ns        1 XBV     -0.464100
      9 O9          2.7890    2.0140    1.6020 o         1 XBV     -0.597100
     10 O10         1.1630   -1.0930   -1.4640 o         1 XBV     -0.566100
     11 N11        -1.0590   -1.4580   -0.9180 ns        1 XBV     -0.558400
     12 C12        -1.4350   -2.3090   -1.9800 ca        1 XBV      0.531200
     13 N13        -0.5200   -3.1670   -2.5310 nb        1 XBV     -0.656000
     14 C14        -2.2450   -3.9570   -4.0440 ca        1 XBV     -0.131900
     15 C15        -3.1840   -3.0940   -3.4700 ca        1 XBV     -0.065000
     16 C16        -0.9280   -3.9510   -3.5350 ca        1 XBV      0.435200
     17 C17        -2.7880   -2.2600   -2.4300 ca        1 XBV     -0.272300
     18 Cl1        -2.6660   -4.9870   -5.3160 cl        1 XBV     -0.068400
     19 C19         3.2650    2.5420   -1.2200 ca        1 XBV      0.042600
     20 C20         3.4760    3.7530   -0.5320 ca        1 XBV     -0.132000
     21 C21         4.4080    4.8080   -2.5160 ca        1 XBV      0.026600
     22 C22         4.1910    3.6180   -3.2350 ca        1 XBV     -0.160000
     23 C23         4.0360    4.8580   -1.1590 ca        1 XBV     -0.094000
     24 C24         3.6390    2.4990   -2.6000 ca        1 XBV      0.081900
     25 N25         4.9960    5.9340   -3.1610 n         1 XBV     -0.256200
     26 C26         6.0720    5.7280   -4.0080 cc        1 XBV      0.014600
     27 C27         6.1760    8.0790   -4.5530 cd        1 XBV     -0.038000
     28 C28         5.1290    8.3220   -3.7260 cc        1 XBV     -0.255200
     29 C29         6.6720    6.7480   -4.6980 cd        1 XBV     -0.248000
     30 C30         4.4800    7.2470   -2.9680 c         1 XBV      0.691700
     31 O31         3.5290    7.4380   -2.1880 o         1 XBV     -0.629500
     32 F32         3.4540    1.3680   -3.3270 f         1 XBV     -0.136900
     33 C33         0.0290    0.3280    3.9840 c3        1 XBV      0.113800
     34 C34        -1.1810   -0.1400    4.8500 c3        1 XBV      0.400900
     35 F35        -2.3180   -0.3760    4.1090 f         1 XBV     -0.242800
     36 F36        -0.9770   -1.3350    5.4940 f         1 XBV     -0.242800
     37 H1          0.0120    0.8200    0.4670 hc        1 XBV      0.089700
     38 H2          2.4620   -0.9800    0.5530 hc        1 XBV      0.107700
     39 H51C       -1.3430   -0.3870    1.9850 h1        1 XBV      0.069700
     40 H52C       -0.4450   -1.9520    1.7150 h1        1 XBV      0.069700
     41 H31C        2.3830    0.3980    3.1460 h1        1 XBV      0.078700
     42 H32C        2.4470   -1.3910    2.7940 h1        1 XBV      0.078700
     43 H331       -0.2900    1.2870    3.4860 h1        1 XBV      0.062700
     44 H332        0.8580    0.5580    4.7110 h1        1 XBV      0.062700
     45 H11        -1.7790   -1.2550   -0.2620 hn        1 XBV      0.328500
     46 H8          2.4810    0.6500   -1.2590 hn        1 XBV      0.356500
     47 H17        -3.5120   -1.5720   -1.9720 ha        1 XBV      0.148000
     48 H16        -0.1520   -4.6210   -3.9540 h4        1 XBV      0.043100
     49 H15        -4.2220   -3.0680   -3.8350 ha        1 XBV      0.155000
     50 H20         3.1980    3.8400    0.5330 ha        1 XBV      0.181000
     51 H23         4.1610    5.7930   -0.5850 ha        1 XBV      0.169000
     52 H22         4.4410    3.5400   -4.3050 ha        1 XBV      0.154000
     53 H26         6.4320    4.6850   -4.0880 h4        1 XBV      0.159000
     54 H29         7.5270    6.5480   -5.3550 ha        1 XBV      0.153000
     55 H27         6.6600    8.8900   -5.1190 ha        1 XBV      0.141000
     56 H28         4.7010    9.3220   -3.5700 ha        1 XBV      0.164000
     57 H34        -1.3900    0.6740    5.6120 h2        1 XBV      0.063700
@<TRIPOS>BOND
     1    1    2 1   
     2    1    5 1   
     3    1    6 1   
     4    1   37 1   
     5    2    3 1   
     6    2    7 1   
     7    2   38 1   
     8    3    4 1   
     9    3   41 1   
    10    3   42 1   
    11    4    5 1   
    12    4   33 1   
    13    5   39 1   
    14    5   40 1   
    15    6   10 2   
    16    6   11 1   
    17    7    8 1   
    18    7    9 2   
    19    8   19 1   
    20    8   46 1   
    21   11   12 1   
    22   11   45 1   
    23   12   13 ar  
    24   12   17 ar  
    25   13   16 ar  
    26   14   15 ar  
    27   14   16 ar  
    28   14   18 1   
    29   15   17 ar  
    30   15   49 1   
    31   16   48 1   
    32   17   47 1   
    33   19   20 ar  
    34   19   24 ar  
    35   20   23 ar  
    36   20   50 1   
    37   21   22 ar  
    38   21   23 ar  
    39   21   25 1   
    40   22   24 ar  
    41   22   52 1   
    42   23   51 1   
    43   24   32 1   
    44   25   26 1   
    45   25   30 1   
    46   26   29 2   
    47   26   53 1   
    48   27   28 2   
    49   27   29 1   
    50   27   55 1   
    51   28   30 1   
    52   28   56 1   
    53   29   54 1   
    54   30   31 2   
    55   33   34 1   
    56   33   43 1   
    57   33   44 1   
    58   34   35 1   
    59   34   36 1   
    60   34   57 1   
@<TRIPOS>SUBSTRUCTURE
     1 XBV         1 TEMP              0 ****  ****    0 ROOT
