@<TRIPOS>MOLECULE
XBV
   59    62     1     0     0
SMALL
bcc


@<TRIPOS>ATOM
      1 C1          0.1580   -0.5900   -0.4680 c3        1 XBV     -0.134700
      2 C2          1.6590   -0.1990   -0.4740 c3        1 XBV     -0.144700
      3 C3          1.7700    1.0300    0.4700 c3        1 XBV      0.165800
      4 N4          0.4850    1.1760    1.1450 n3        1 XBV     -0.725600
      5 C5         -0.5370    0.5480    0.3150 c3        1 XBV      0.149800
      6 C6         -0.0250   -1.9350    0.1910 c         1 XBV      0.577100
      7 C7          2.1240    0.1250   -1.8700 c         1 XBV      0.544100
      8 N8          3.6180    0.3000   -2.0720 n4        1 XBV     -0.516200
      9 O9          1.4360    0.2300   -2.8730 o         1 XBV     -0.389100
     10 O10         0.8440   -2.6970    0.5820 o         1 XBV     -0.407100
     11 N11        -1.4500   -2.4100    0.3870 n4        1 XBV     -0.648500
     12 C12        -1.8870   -3.3320   -0.6890 ca        1 XBV      0.421200
     13 N13        -1.5490   -2.9860   -1.9680 nb        1 XBV     -0.672000
     14 C14        -2.7250   -4.9750   -2.7170 ca        1 XBV     -0.048900
     15 C15        -3.0480   -5.3130   -1.3990 ca        1 XBV     -0.071000
     16 C16        -1.9650   -3.7920   -2.9460 ca        1 XBV      0.437200
     17 C17        -2.6240   -4.4840   -0.3530 ca        1 XBV     -0.164300
     18 CL1        -3.2070   -5.9230   -4.0080 cl        1 XBV      0.045600
     19 C19         4.0330    1.6980   -1.9880 ca        1 XBV     -0.171400
     20 C20         4.5110    2.2300   -0.7730 ca        1 XBV     -0.073000
     21 C21         4.8220    4.4160   -1.8170 ca        1 XBV      0.169600
     22 C22         4.3920    3.8730   -3.0490 ca        1 XBV     -0.193000
     23 C23         4.8950    3.5520   -0.6860 ca        1 XBV     -0.122000
     24 C24         4.0070    2.5300   -3.1400 ca        1 XBV      0.205900
     25 N25         5.1580    5.7740   -1.7040 n         1 XBV     -0.281200
     26 C26         5.7820    6.4260   -2.7760 cc        1 XBV     -0.032400
     27 C27         5.7930    8.5250   -1.5650 cd        1 XBV     -0.025000
     28 C28         5.1900    7.9350   -0.5070 cc        1 XBV     -0.230200
     29 C29         6.1000    7.7500   -2.7330 cd        1 XBV     -0.171000
     30 C30         4.8270    6.5170   -0.5200 c         1 XBV      0.704700
     31 O31         4.2400    5.9340    0.4090 o         1 XBV     -0.627500
     32 F32         3.6000    2.0260   -4.3260 f         1 XBV     -0.107900
     33 C33         0.1880    2.5170    1.6020 c3        1 XBV      0.107800
     34 C34        -1.1590    2.6320    2.3870 c3        1 XBV      0.401900
     35 F35        -2.2460    2.4330    1.5640 f         1 XBV     -0.240800
     36 F36        -1.3220    1.6540    3.3380 f         1 XBV     -0.240800
     37 H1         -0.2600   -0.6490   -1.5150 hc        1 XBV      0.154700
     38 H2          2.2870   -1.0420   -0.0640 hc        1 XBV      0.127700
     39 H51C       -1.0110    1.2610   -0.4210 h1        1 XBV      0.081700
     40 H52C       -1.3480    0.2000    1.0110 h1        1 XBV      0.081700
     41 H31C        2.5480    0.8400    1.2610 h1        1 XBV      0.078700
     42 H32C        2.0690    1.9490   -0.1110 h1        1 XBV      0.078700
     43 H331        1.0120    2.8150    2.3110 h1        1 XBV      0.083700
     44 H332        0.1370    3.2650    0.7600 h1        1 XBV      0.083700
     45 H11        -1.5140   -2.9180    1.2830 hn        1 XBV      0.478300
     46 H8          3.8600   -0.0450   -3.0170 hn        1 XBV      0.473300
     47 H17        -2.8750   -4.7470    0.6880 ha        1 XBV      0.181000
     48 H16        -1.6840   -3.4860   -3.9770 h4        1 XBV      0.076100
     49 H15        -3.6330   -6.2240   -1.1730 ha        1 XBV      0.203000
     50 H20         4.5950    1.5930    0.1240 ha        1 XBV      0.155000
     51 H23         5.2570    3.9450    0.2840 ha        1 XBV      0.207000
     52 H22         4.3290    4.4930   -3.9610 ha        1 XBV      0.195000
     53 H26         6.0330    5.7970   -3.6500 h4        1 XBV      0.165000
     54 H29         6.6030    8.2300   -3.5880 ha        1 XBV      0.179000
     55 H27         6.0630    9.5950   -1.5540 ha        1 XBV      0.174000
     56 H28         4.9340    8.4690    0.4220 ha        1 XBV      0.188000
     57 H34        -1.2060    3.6590    2.8610 h2        1 XBV      0.111700
     58 H82         4.1340   -0.2440   -1.3710 hn        1 XBV      0.473300
     59 H112       -2.0920   -1.6060    0.4050 hn        1 XBV      0.478300
@<TRIPOS>BOND
     1    1    2 1   
     2    1    5 1   
     3    1    6 1   
     4    1   37 1   
     5    2    3 1   
     6    2    7 1   
     7    2   38 1   
     8    3    4 1   
     9    3   41 1   
    10    3   42 1   
    11    4    5 1   
    12    4   33 1   
    13    5   39 1   
    14    5   40 1   
    15    6   10 2   
    16    6   11 1   
    17    7    8 1   
    18    7    9 2   
    19    8   19 1   
    20    8   46 1   
    21    8   58 1   
    22   11   12 1   
    23   11   45 1   
    24   11   59 1   
    25   12   13 ar  
    26   12   17 ar  
    27   13   16 ar  
    28   14   15 ar  
    29   14   16 ar  
    30   14   18 1   
    31   15   17 ar  
    32   15   49 1   
    33   16   48 1   
    34   17   47 1   
    35   19   20 ar  
    36   19   24 ar  
    37   20   23 ar  
    38   20   50 1   
    39   21   22 ar  
    40   21   23 ar  
    41   21   25 1   
    42   22   24 ar  
    43   22   52 1   
    44   23   51 1   
    45   24   32 1   
    46   25   26 1   
    47   25   30 1   
    48   26   29 2   
    49   26   53 1   
    50   27   28 2   
    51   27   29 1   
    52   27   55 1   
    53   28   30 1   
    54   28   56 1   
    55   29   54 1   
    56   30   31 2   
    57   33   34 1   
    58   33   43 1   
    59   33   44 1   
    60   34   35 1   
    61   34   36 1   
    62   34   57 1   
@<TRIPOS>SUBSTRUCTURE
     1 XBV         1 TEMP              0 ****  ****    0 ROOT
