@<TRIPOS>MOLECULE
XC2
   61    66     1     0     0
SMALL
bcc


@<TRIPOS>ATOM
      1 S6         -0.0040    0.5400   -0.0590 ss        1 XC2     -0.242700
      2 C5          1.7400    0.9470    0.0340 c3        1 XC2     -0.014300
      3 C11         2.2480    0.4540    1.3910 c3        1 XC2     -0.062300
      4 N10         1.2770   -0.5030    1.9240 n         1 XC2     -0.304000
      5 C6          0.0110   -0.4250    1.3720 cc        1 XC2      0.206200
      6 C7         -1.0750   -1.0920    1.9130 cd        1 XC2     -0.197200
      7 C8         -0.8850   -1.8130    3.1460 cd        1 XC2      0.032800
      8 C9          0.3560   -1.8850    3.7210 cc        1 XC2     -0.256400
      9 C10         1.5340   -1.2970    3.0570 c         1 XC2      0.722700
     10 O25         2.7100   -1.5330    3.3970 o         1 XC2     -0.645500
     11 C26         0.6640   -2.5410    5.0370 c3        1 XC2      0.230000
     12 N5          0.7480   -1.6990    6.2160 n3        1 XC2     -0.729600
     13 C1          1.6830   -0.5840    6.0790 c3        1 XC2      0.121800
     14 C2          1.7880    0.2460    7.3600 c3        1 XC2      0.133400
     15 O3          0.5180    0.6500    7.8650 os        1 XC2     -0.421600
     16 C34        -0.3870   -0.4330    8.0120 c3        1 XC2      0.133400
     17 C4         -0.5390   -1.2450    6.7200 c3        1 XC2      0.121800
     18 C24        -2.0790   -2.4480    3.7830 c3        1 XC2     -0.015900
     19 C15        -2.3600   -3.8450    3.3410 ca        1 XC2     -0.046300
     20 C20        -1.5990   -4.4680    2.3740 ca        1 XC2     -0.123000
     21 C19        -1.8770   -5.7930    1.9680 ca        1 XC2     -0.117000
     22 C18        -2.9170   -6.4890    2.5290 ca        1 XC2     -0.138000
     23 C17        -3.7290   -5.8800    3.5250 ca        1 XC2     -0.036000
     24 C21        -4.8140   -6.5860    4.1150 ca        1 XC2     -0.122000
     25 C27        -5.5960   -5.9940    5.0740 ca        1 XC2     -0.135000
     26 C28        -5.3280   -4.6670    5.4860 ca        1 XC2     -0.139000
     27 C29        -4.2860   -3.9640    4.9320 ca        1 XC2     -0.112000
     28 C16        -3.4540   -4.5500    3.9370 ca        1 XC2     -0.035000
     29 C22        -2.3890   -1.1100    1.2630 cx        1 XC2     -0.051500
     30 C31        -2.9120    0.0260    0.4220 cx        1 XC2     -0.135900
     31 C30        -3.5240   -0.2430    1.7620 cx        1 XC2     -0.135900
     32 C23         2.5390    1.6990    2.3300 c         1 XC2      0.928600
     33 O33         3.1590    2.6390    1.7660 o         1 XC2     -0.804800
     34 O32         2.1630    1.6590    3.5250 o         1 XC2     -0.804800
     35 H5C1        2.2730    0.4560   -0.8100 h1        1 XC2      0.088200
     36 H5C2        1.8790    2.0540   -0.0380 h1        1 XC2      0.088200
     37 H11         3.2290   -0.0880    1.2820 h1        1 XC2      0.088700
     38 H22        -2.6590   -2.1400    0.9370 hc        1 XC2      0.072700
     39 H241       -1.9480   -2.4460    4.9020 hc        1 XC2      0.067700
     40 H242       -2.9890   -1.8180    3.5660 hc        1 XC2      0.067700
     41 H261        1.6790   -3.0340    4.9400 h1        1 XC2      0.058200
     42 H262       -0.0920   -3.3500    5.2430 h1        1 XC2      0.058200
     43 H1C1        2.6960   -1.0150    5.8370 h1        1 XC2      0.058950
     44 H1C2        1.4080    0.1060    5.2230 h1        1 XC2      0.058950
     45 H4C1       -1.0900   -0.6120    5.9650 h1        1 XC2      0.058950
     46 H4C2       -1.1690   -2.1500    6.9460 h1        1 XC2      0.058950
     47 H2C1        2.3150    1.2120    7.1390 h1        1 XC2      0.040700
     48 H2C2        2.3320   -0.3210    8.1620 h1        1 XC2      0.040700
     49 H341       -1.3630    0.0500    8.2790 h1        1 XC2      0.040700
     50 H342       -0.0460   -1.0930    8.8540 h1        1 XC2      0.040700
     51 H20        -0.7570   -3.9330    1.9030 ha        1 XC2      0.157000
     52 H19        -1.2430   -6.2550    1.1960 ha        1 XC2      0.129000
     53 H18        -3.1420   -7.5210    2.2230 ha        1 XC2      0.124000
     54 H21        -5.0100   -7.6170    3.7850 ha        1 XC2      0.124000
     55 H27        -6.4340   -6.5380    5.5320 ha        1 XC2      0.123000
     56 H28        -5.9660   -4.2070    6.2550 ha        1 XC2      0.126000
     57 H29        -4.0850   -2.9320    5.2570 ha        1 XC2      0.137000
     58 H311       -2.3050    0.9430    0.2920 hc        1 XC2      0.071450
     59 H312       -3.4820   -0.2220   -0.4910 hc        1 XC2      0.071450
     60 H301       -4.5370   -0.6790    1.8170 hc        1 XC2      0.071450
     61 H302       -3.3300    0.4660    2.5860 hc        1 XC2      0.071450
@<TRIPOS>BOND
     1    1    2 1   
     2    1    5 1   
     3    2    3 1   
     4    2   35 1   
     5    2   36 1   
     6    3    4 1   
     7    3   32 1   
     8    3   37 1   
     9    4    5 1   
    10    4    9 1   
    11    5    6 2   
    12    6    7 1   
    13    6   29 1   
    14    7    8 2   
    15    7   18 1   
    16    8    9 1   
    17    8   11 1   
    18    9   10 2   
    19   11   12 1   
    20   11   41 1   
    21   11   42 1   
    22   12   13 1   
    23   12   17 1   
    24   13   14 1   
    25   13   43 1   
    26   13   44 1   
    27   14   15 1   
    28   14   47 1   
    29   14   48 1   
    30   15   16 1   
    31   16   17 1   
    32   16   49 1   
    33   16   50 1   
    34   17   45 1   
    35   17   46 1   
    36   18   19 1   
    37   18   39 1   
    38   18   40 1   
    39   19   20 ar  
    40   19   28 ar  
    41   20   21 ar  
    42   20   51 1   
    43   21   22 ar  
    44   21   52 1   
    45   22   23 ar  
    46   22   53 1   
    47   23   24 ar  
    48   23   28 ar  
    49   24   25 ar  
    50   24   54 1   
    51   25   26 ar  
    52   25   55 1   
    53   26   27 ar  
    54   26   56 1   
    55   27   28 ar  
    56   27   57 1   
    57   29   30 1   
    58   29   31 1   
    59   29   38 1   
    60   30   31 1   
    61   30   58 1   
    62   30   59 1   
    63   31   60 1   
    64   31   61 1   
    65   32   33 1   
    66   32   34 1   
@<TRIPOS>SUBSTRUCTURE
     1 XC2         1 TEMP              0 ****  ****    0 ROOT
