@<TRIPOS>MOLECULE
XC2
   61    66     1     0     0
SMALL
bcc


@<TRIPOS>ATOM
      1 S6          0.0810    0.4690   -0.0820 ss        1 XC2     -0.242700
      2 C5          1.8260    0.8650    0.0350 c3        1 XC2     -0.014300
      3 C11         2.3070    0.3910    1.4090 c3        1 XC2     -0.062300
      4 N10         1.3190   -0.5490    1.9410 n         1 XC2     -0.304000
      5 C6          0.0640   -0.4710    1.3650 cc        1 XC2      0.206200
      6 C7         -1.0370   -1.1210    1.8990 cd        1 XC2     -0.197200
      7 C8         -0.8740   -1.8210    3.1470 cd        1 XC2      0.032800
      8 C9          0.3560   -1.8920    3.7450 cc        1 XC2     -0.255400
      9 C10         1.5500   -1.3250    3.0910 c         1 XC2      0.722700
     10 O25         2.7190   -1.5630    3.4560 o         1 XC2     -0.645500
     11 C26         0.6360   -2.5280    5.0770 c3        1 XC2      0.230000
     12 N5          0.7070   -1.6660    6.2430 n3        1 XC2     -0.729600
     13 C1          1.6530   -0.5610    6.1030 c3        1 XC2      0.121800
     14 C2          1.7420    0.2900    7.3710 c3        1 XC2      0.133400
     15 O3          0.4660    0.7130    7.8470 os        1 XC2     -0.421600
     16 C34        -0.4500   -0.3610    7.9970 c3        1 XC2      0.133400
     17 C4         -0.5860   -1.1940    6.7170 c3        1 XC2      0.121800
     18 C24        -2.0840   -2.4360    3.7750 c3        1 XC2     -0.015900
     19 C15        -2.3680   -3.8390    3.3510 ca        1 XC2     -0.046300
     20 C20        -1.5970   -4.4830    2.4070 ca        1 XC2     -0.123000
     21 C19        -1.8780   -5.8130    2.0190 ca        1 XC2     -0.117000
     22 C18        -2.9320   -6.4920    2.5760 ca        1 XC2     -0.138000
     23 C17        -3.7550   -5.8610    3.5480 ca        1 XC2     -0.036000
     24 C21        -4.8540   -6.5480    4.1320 ca        1 XC2     -0.122000
     25 C27        -5.6470   -5.9340    5.0680 ca        1 XC2     -0.135000
     26 C28        -5.3770   -4.6020    5.4620 ca        1 XC2     -0.139000
     27 C29        -4.3210   -3.9170    4.9130 ca        1 XC2     -0.112000
     28 C16        -3.4770   -4.5250    3.9420 ca        1 XC2     -0.035000
     29 C22        -2.3400   -1.1400    1.2260 cx        1 XC2     -0.051500
     30 C31        -2.8400   -0.0150    0.3570 cx        1 XC2     -0.135900
     31 C30        -3.4770   -0.2570    1.6900 cx        1 XC2     -0.135900
     32 C23         2.5900    1.6510    2.3310 c         1 XC2      0.928600
     33 O33         3.2270    2.5760    1.7620 o         1 XC2     -0.804800
     34 O32         2.1940    1.6340    3.5190 o         1 XC2     -0.804800
     35 H5C1        2.3700    0.3550   -0.7910 h1        1 XC2      0.088200
     36 H5C2        1.9740    1.9700   -0.0540 h1        1 XC2      0.088200
     37 H11         3.2850   -0.1600    1.3260 h1        1 XC2      0.088700
     38 H22        -2.6110   -2.1740    0.9140 hc        1 XC2      0.072700
     39 H241       -2.9850   -1.8040    3.5310 hc        1 XC2      0.067700
     40 H242       -1.9720   -2.4160    4.8960 hc        1 XC2      0.067700
     41 H261        1.6490   -3.0300    5.0060 h1        1 XC2      0.058200
     42 H262       -0.1300   -3.3280    5.2840 h1        1 XC2      0.058200
     43 H1C1        1.3970    0.1170    5.2310 h1        1 XC2      0.058950
     44 H1C2        2.6660   -1.0040    5.8860 h1        1 XC2      0.058950
     45 H4C1       -1.1180   -0.5700    5.9410 h1        1 XC2      0.058950
     46 H4C2       -1.2260   -2.0910    6.9470 h1        1 XC2      0.058950
     47 H2C1        2.2670   -0.2670    8.1920 h1        1 XC2      0.040700
     48 H2C2        2.2800    1.2480    7.1430 h1        1 XC2      0.040700
     49 H341       -0.1280   -1.0090    8.8560 h1        1 XC2      0.040700
     50 H342       -1.4270    0.1340    8.2380 h1        1 XC2      0.040700
     51 H20        -0.7430   -3.9630    1.9410 ha        1 XC2      0.157000
     52 H19        -1.2350   -6.2920    1.2660 ha        1 XC2      0.129000
     53 H18        -3.1590   -7.5270    2.2830 ha        1 XC2      0.124000
     54 H21        -5.0530   -7.5830    3.8170 ha        1 XC2      0.124000
     55 H27        -6.4970   -6.4640    5.5220 ha        1 XC2      0.123000
     56 H28        -6.0230   -4.1250    6.2120 ha        1 XC2      0.126000
     57 H29        -4.1170   -2.8800    5.2230 ha        1 XC2      0.137000
     58 H311       -2.2230    0.8950    0.2220 hc        1 XC2      0.071450
     59 H312       -3.3950   -0.2760   -0.5610 hc        1 XC2      0.071450
     60 H301       -3.2920    0.4660    2.5050 hc        1 XC2      0.071450
     61 H302       -4.4940   -0.6840    1.7350 hc        1 XC2      0.071450
@<TRIPOS>BOND
     1    1    2 1   
     2    1    5 1   
     3    2    3 1   
     4    2   35 1   
     5    2   36 1   
     6    3    4 1   
     7    3   32 1   
     8    3   37 1   
     9    4    5 1   
    10    4    9 1   
    11    5    6 2   
    12    6    7 1   
    13    6   29 1   
    14    7    8 2   
    15    7   18 1   
    16    8    9 1   
    17    8   11 1   
    18    9   10 2   
    19   11   12 1   
    20   11   41 1   
    21   11   42 1   
    22   12   13 1   
    23   12   17 1   
    24   13   14 1   
    25   13   43 1   
    26   13   44 1   
    27   14   15 1   
    28   14   47 1   
    29   14   48 1   
    30   15   16 1   
    31   16   17 1   
    32   16   49 1   
    33   16   50 1   
    34   17   45 1   
    35   17   46 1   
    36   18   19 1   
    37   18   39 1   
    38   18   40 1   
    39   19   20 ar  
    40   19   28 ar  
    41   20   21 ar  
    42   20   51 1   
    43   21   22 ar  
    44   21   52 1   
    45   22   23 ar  
    46   22   53 1   
    47   23   24 ar  
    48   23   28 ar  
    49   24   25 ar  
    50   24   54 1   
    51   25   26 ar  
    52   25   55 1   
    53   26   27 ar  
    54   26   56 1   
    55   27   28 ar  
    56   27   57 1   
    57   29   30 1   
    58   29   31 1   
    59   29   38 1   
    60   30   31 1   
    61   30   58 1   
    62   30   59 1   
    63   31   60 1   
    64   31   61 1   
    65   32   33 1   
    66   32   34 1   
@<TRIPOS>SUBSTRUCTURE
     1 XC2         1 TEMP              0 ****  ****    0 ROOT
