@<TRIPOS>MOLECULE
XC2
   61    66     1     0     0
SMALL
bcc


@<TRIPOS>ATOM
      1 S6         -2.8080   -7.0950   -1.3410 ss        1 XC2     -0.242700
      2 C5         -1.5510   -8.0330   -2.2100 c3        1 XC2     -0.014300
      3 C11        -0.3980   -7.0730   -2.5140 c3        1 XC2     -0.062300
      4 N10        -0.5440   -5.8960   -1.6570 n         1 XC2     -0.304000
      5 C6         -1.8110   -5.7010   -1.1370 cc        1 XC2      0.206200
      6 C7         -2.1780   -4.5270   -0.5010 cd        1 XC2     -0.197200
      7 C8         -1.2270   -3.4460   -0.4680 cd        1 XC2      0.032800
      8 C9          0.0260   -3.6100   -0.9950 cc        1 XC2     -0.255400
      9 C10         0.4550   -4.9130   -1.5350 c         1 XC2      0.722700
     10 O25         1.6400   -5.1960   -1.8030 o         1 XC2     -0.645500
     11 C26         1.0750   -2.5390   -1.0860 c3        1 XC2      0.230000
     12 N5          1.2160   -1.8260   -2.3430 n3        1 XC2     -0.729600
     13 C1          1.4140   -2.7010   -3.4970 c3        1 XC2      0.121800
     14 C2          1.6170   -1.9130   -4.7930 c3        1 XC2      0.133400
     15 O3          0.6040   -0.9330   -5.0110 os        1 XC2     -0.421600
     16 C34         0.4200   -0.0740   -3.8970 c3        1 XC2      0.133400
     17 C4          0.1680   -0.8500   -2.5980 c3        1 XC2      0.121800
     18 C24        -1.6580   -2.1440    0.1290 c3        1 XC2     -0.015900
     19 C15        -1.4230   -2.0170    1.5970 ca        1 XC2     -0.046300
     20 C20        -0.9020   -3.0540    2.3420 ca        1 XC2     -0.123000
     21 C19        -0.6840   -2.9160    3.7320 ca        1 XC2     -0.117000
     22 C18        -0.9920   -1.7420    4.3710 ca        1 XC2     -0.138000
     23 C17        -1.5360   -0.6510    3.6400 ca        1 XC2     -0.036000
     24 C21        -1.8640    0.5720    4.2880 ca        1 XC2     -0.122000
     25 C27        -2.3920    1.6210    3.5780 ca        1 XC2     -0.135000
     26 C28        -2.6170    1.4920    2.1870 ca        1 XC2     -0.139000
     27 C29        -2.3090    0.3220    1.5380 ca        1 XC2     -0.112000
     28 C16        -1.7580   -0.7840    2.2440 ca        1 XC2     -0.035000
     29 C22        -3.4780   -4.3620    0.1570 cx        1 XC2     -0.051500
     30 C31        -4.7350   -5.0510   -0.3110 cx        1 XC2     -0.135900
     31 C30        -4.5930   -3.5720   -0.4920 cx        1 XC2     -0.135900
     32 C23        -0.3650   -6.7630   -4.0690 c         1 XC2      0.928600
     33 O33        -0.5060   -7.7770   -4.8020 o         1 XC2     -0.804800
     34 O32        -0.1910   -5.5820   -4.4490 o         1 XC2     -0.804800
     35 H5C1       -1.9660   -8.4340   -3.1680 h1        1 XC2      0.088200
     36 H5C2       -1.2240   -8.8820   -1.5690 h1        1 XC2      0.088200
     37 H11         0.5950   -7.5450   -2.2700 h1        1 XC2      0.088700
     38 H22        -3.3560   -4.2360    1.2560 hc        1 XC2      0.072700
     39 H241       -2.7590   -1.9970   -0.0680 hc        1 XC2      0.067700
     40 H242       -1.1240   -1.3010   -0.3940 hc        1 XC2      0.067700
     41 H261        2.0780   -3.0300   -0.9000 h1        1 XC2      0.058200
     42 H262        0.9100   -1.7770   -0.2730 h1        1 XC2      0.058200
     43 H1C1        0.5530   -3.4220   -3.6440 h1        1 XC2      0.058950
     44 H1C2        2.3320   -3.3250   -3.3000 h1        1 XC2      0.058950
     45 H4C1        0.1550   -0.1150   -1.7460 h1        1 XC2      0.058950
     46 H4C2       -0.8510   -1.3310   -2.6640 h1        1 XC2      0.058950
     47 H2C1        2.6180   -1.4060   -4.8030 h1        1 XC2      0.040700
     48 H2C2        1.5210   -2.6060   -5.6720 h1        1 XC2      0.040700
     49 H341       -0.4820    0.5380   -4.1590 h1        1 XC2      0.040700
     50 H342        1.3160    0.5940   -3.7880 h1        1 XC2      0.040700
     51 H20        -0.6470   -4.0100    1.8560 ha        1 XC2      0.157000
     52 H19        -0.2630   -3.7660    4.2890 ha        1 XC2      0.129000
     53 H18        -0.8240   -1.6220    5.4510 ha        1 XC2      0.124000
     54 H21        -1.6830    0.6570    5.3690 ha        1 XC2      0.124000
     55 H27        -2.6460    2.5670    4.0770 ha        1 XC2      0.123000
     56 H28        -3.0420    2.3430    1.6340 ha        1 XC2      0.126000
     57 H29        -2.4880    0.2300    0.4560 ha        1 XC2      0.137000
     58 H311       -5.4320   -5.4360    0.4540 hc        1 XC2      0.071450
     59 H312       -4.7090   -5.6990   -1.2080 hc        1 XC2      0.071450
     60 H301       -4.4400   -3.1740   -1.5110 hc        1 XC2      0.071450
     61 H302       -5.1910   -2.8890    0.1360 hc        1 XC2      0.071450
@<TRIPOS>BOND
     1    1    2 1   
     2    1    5 1   
     3    2    3 1   
     4    2   35 1   
     5    2   36 1   
     6    3    4 1   
     7    3   32 1   
     8    3   37 1   
     9    4    5 1   
    10    4    9 1   
    11    5    6 2   
    12    6    7 1   
    13    6   29 1   
    14    7    8 2   
    15    7   18 1   
    16    8    9 1   
    17    8   11 1   
    18    9   10 2   
    19   11   12 1   
    20   11   41 1   
    21   11   42 1   
    22   12   13 1   
    23   12   17 1   
    24   13   14 1   
    25   13   43 1   
    26   13   44 1   
    27   14   15 1   
    28   14   47 1   
    29   14   48 1   
    30   15   16 1   
    31   16   17 1   
    32   16   49 1   
    33   16   50 1   
    34   17   45 1   
    35   17   46 1   
    36   18   19 1   
    37   18   39 1   
    38   18   40 1   
    39   19   20 ar  
    40   19   28 ar  
    41   20   21 ar  
    42   20   51 1   
    43   21   22 ar  
    44   21   52 1   
    45   22   23 ar  
    46   22   53 1   
    47   23   24 ar  
    48   23   28 ar  
    49   24   25 ar  
    50   24   54 1   
    51   25   26 ar  
    52   25   55 1   
    53   26   27 ar  
    54   26   56 1   
    55   27   28 ar  
    56   27   57 1   
    57   29   30 1   
    58   29   31 1   
    59   29   38 1   
    60   30   31 1   
    61   30   58 1   
    62   30   59 1   
    63   31   60 1   
    64   31   61 1   
    65   32   33 1   
    66   32   34 1   
@<TRIPOS>SUBSTRUCTURE
     1 XC2         1 TEMP              0 ****  ****    0 ROOT
