@<TRIPOS>MOLECULE
XCA
   71    74     1     0     0
SMALL
bcc


@<TRIPOS>ATOM
      1 O3         -0.6440    0.4540   -0.1720 o         1 XCA     -0.848300
      2 C27         0.5310    0.0620    0.0780 c         1 XCA      0.912600
      3 O2          0.9910   -0.0720    1.2480 o         1 XCA     -0.848300
      4 C25         1.4900   -0.2390   -1.1050 c3        1 XCA     -0.187700
      5 C26         2.2570   -1.5120   -0.8390 c3        1 XCA     -0.065100
      6 C24         0.7430   -0.2940   -2.4230 c3        1 XCA     -0.066400
      7 C23         1.6530   -0.0760   -3.6150 c3        1 XCA     -0.078400
      8 C22         0.8750   -0.1390   -4.9130 c3        1 XCA     -0.079400
      9 C20         1.7640    0.1000   -6.1340 c3        1 XCA     -0.058700
     10 C21         2.5190   -1.1740   -6.4630 c3        1 XCA     -0.088100
     11 C17         0.9250    0.5760   -7.3140 c3        1 XCA     -0.050700
     12 C16         0.1760    1.8890   -6.9980 c3        1 XCA     -0.079400
     13 C15         0.1180    2.7130   -8.2860 c3        1 XCA     -0.073400
     14 C14         0.6240    1.7660   -9.3630 c3        1 XCA     -0.067700
     15 C8          1.1530    2.3440  -10.6590 c3        1 XCA     -0.046700
     16 C7          0.1010    3.2320  -11.3080 c3        1 XCA     -0.042200
     17 C6          0.3670    3.4890  -12.7380 c2        1 XCA     -0.163200
     18 C13         1.6750    0.8920   -8.6330 c3        1 XCA     -0.045000
     19 C18         2.9570    1.6490   -8.3320 c3        1 XCA     -0.082100
     20 C12         1.9510   -0.2930   -9.5450 c3        1 XCA     -0.065400
     21 C11         2.4400    0.1720  -10.9080 c3        1 XCA     -0.074400
     22 C9          1.5240    1.1810  -11.5910 c3        1 XCA     -0.046700
     23 C10         2.1180    1.6990  -12.9180 c3        1 XCA     -0.001800
     24 C1          2.1610    0.5400  -13.9260 c3        1 XCA     -0.069400
     25 C19         3.5300    2.2470  -12.7260 c3        1 XCA     -0.083100
     26 C5          1.2460    2.7960  -13.4830 ce        1 XCA     -0.059200
     27 C4          1.3910    3.0790  -14.9020 ce        1 XCA     -0.239000
     28 C3          2.0340    2.2320  -15.7330 c2        1 XCA      0.085900
     29 O1          2.1860    2.4480  -17.0840 oh        1 XCA     -0.508100
     30 C2          2.6730    0.9620  -15.2890 c3        1 XCA     -0.034200
     31 H2          2.2160    0.6210   -1.1340 hc        1 XCA      0.027700
     32 H3          2.7010   -1.4680    0.1860 hc        1 XCA      0.015033
     33 H4          1.5790   -2.3970   -0.8900 hc        1 XCA      0.015033
     34 H5          3.0760   -1.6540   -1.5870 hc        1 XCA      0.015033
     35 H6          0.2280   -1.2850   -2.5200 hc        1 XCA      0.047700
     36 H7         -0.0610    0.4910   -2.4070 hc        1 XCA      0.047700
     37 H8          2.1510    0.9260   -3.5260 hc        1 XCA      0.026200
     38 H9          2.4660   -0.8490   -3.6150 hc        1 XCA      0.026200
     39 H10         0.0580    0.6280   -4.8730 hc        1 XCA      0.038700
     40 H11         0.3790   -1.1400   -5.0070 hc        1 XCA      0.038700
     41 H12         2.5090    0.9040   -5.8740 hc        1 XCA      0.048700
     42 H13         2.9000   -1.6490   -5.5260 hc        1 XCA      0.030033
     43 H14         3.3960   -0.9610   -7.1210 hc        1 XCA      0.030033
     44 H15         1.8530   -1.9040   -6.9830 hc        1 XCA      0.030033
     45 H16         0.1680   -0.2260   -7.5380 hc        1 XCA      0.043700
     46 H17        -0.8550    1.6620   -6.6310 hc        1 XCA      0.050200
     47 H18         0.7070    2.4580   -6.1960 hc        1 XCA      0.050200
     48 H19         0.7690    3.6190   -8.2120 hc        1 XCA      0.037200
     49 H20        -0.9210    3.0590   -8.5070 hc        1 XCA      0.037200
     50 H21        -0.2390    1.0870   -9.6350 hc        1 XCA      0.043700
     51 H22         2.0640    2.9690  -10.4540 hc        1 XCA      0.057700
     52 H23        -0.9120    2.7480  -11.2180 hc        1 XCA      0.050200
     53 H24         0.0480    4.2040  -10.7460 hc        1 XCA      0.050200
     54 H25        -0.2380    4.2920  -13.1900 ha        1 XCA      0.115000
     55 H26         3.6960    0.9730   -7.8370 hc        1 XCA      0.035033
     56 H27         3.4270    2.0480   -9.2630 hc        1 XCA      0.035033
     57 H28         2.7460    2.5070   -7.6490 hc        1 XCA      0.035033
     58 H29         2.7280   -0.9620   -9.0910 hc        1 XCA      0.042200
     59 H30         1.0150   -0.8990   -9.6640 hc        1 XCA      0.042200
     60 H31         2.5410   -0.7310  -11.5680 hc        1 XCA      0.036700
     61 H32         3.4650    0.6130  -10.7900 hc        1 XCA      0.036700
     62 H33         0.5630    0.6470  -11.8480 hc        1 XCA      0.047700
     63 H34         2.8280   -0.2710  -13.5340 hc        1 XCA      0.048700
     64 H35         1.1290    0.1150  -14.0310 hc        1 XCA      0.048700
     65 H36         3.8320    2.8470  -13.6180 hc        1 XCA      0.037033
     66 H37         4.2590    1.4110  -12.6020 hc        1 XCA      0.037033
     67 H38         3.5820    2.9030  -11.8250 hc        1 XCA      0.037033
     68 H39         0.9340    4.0070  -15.2760 ha        1 XCA      0.124000
     69 H40         1.7650    3.2910  -17.3050 ho        1 XCA      0.413000
     70 H41         3.7850    1.1180  -15.2540 hc        1 XCA      0.061200
     71 H42         2.4710    0.1540  -16.0420 hc        1 XCA      0.061200
@<TRIPOS>BOND
     1    1    2 1   
     2    2    3 1   
     3    2    4 1   
     4    4    5 1   
     5    4    6 1   
     6    4   31 1   
     7    5   32 1   
     8    5   33 1   
     9    5   34 1   
    10    6    7 1   
    11    6   35 1   
    12    6   36 1   
    13    7    8 1   
    14    7   37 1   
    15    7   38 1   
    16    8    9 1   
    17    8   39 1   
    18    8   40 1   
    19    9   10 1   
    20    9   11 1   
    21    9   41 1   
    22   10   42 1   
    23   10   43 1   
    24   10   44 1   
    25   11   12 1   
    26   11   18 1   
    27   11   45 1   
    28   12   13 1   
    29   12   46 1   
    30   12   47 1   
    31   13   14 1   
    32   13   48 1   
    33   13   49 1   
    34   14   15 1   
    35   14   18 1   
    36   14   50 1   
    37   15   16 1   
    38   15   22 1   
    39   15   51 1   
    40   16   17 1   
    41   16   52 1   
    42   16   53 1   
    43   17   26 2   
    44   17   54 1   
    45   18   19 1   
    46   18   20 1   
    47   19   55 1   
    48   19   56 1   
    49   19   57 1   
    50   20   21 1   
    51   20   58 1   
    52   20   59 1   
    53   21   22 1   
    54   21   60 1   
    55   21   61 1   
    56   22   23 1   
    57   22   62 1   
    58   23   24 1   
    59   23   25 1   
    60   23   26 1   
    61   24   30 1   
    62   24   63 1   
    63   24   64 1   
    64   25   65 1   
    65   25   66 1   
    66   25   67 1   
    67   26   27 1   
    68   27   28 2   
    69   27   68 1   
    70   28   29 1   
    71   28   30 1   
    72   29   69 1   
    73   30   70 1   
    74   30   71 1   
@<TRIPOS>SUBSTRUCTURE
     1 XCA         1 TEMP              0 ****  ****    0 ROOT
