@<TRIPOS>MOLECULE
XCA
   71    74     1     0     0
SMALL
bcc


@<TRIPOS>ATOM
      1 O3          8.3180    1.8710    0.3920 o         1 XCA     -0.848300
      2 C27         8.5640    0.7450   -0.1260 c         1 XCA      0.912600
      3 O2          9.7100    0.3970   -0.5330 o         1 XCA     -0.848300
      4 C25         7.4000   -0.2640   -0.3160 c3        1 XCA     -0.187700
      5 C26         7.8480   -1.6510    0.0810 c3        1 XCA     -0.065100
      6 C24         6.1620    0.1690    0.4440 c3        1 XCA     -0.066400
      7 C23         4.8980   -0.4680   -0.0980 c3        1 XCA     -0.078400
      8 C22         3.6820   -0.0160    0.6840 c3        1 XCA     -0.079400
      9 C20         2.3870   -0.6250    0.1470 c3        1 XCA     -0.058700
     10 C21         2.2510   -2.0470    0.6560 c3        1 XCA     -0.088100
     11 C17         1.1920    0.2320    0.5490 c3        1 XCA     -0.050700
     12 C16         1.3080    1.6740    0.0090 c3        1 XCA     -0.079400
     13 C15        -0.1030    2.1570   -0.3340 c3        1 XCA     -0.073400
     14 C14        -1.0180    1.0790    0.2280 c3        1 XCA     -0.067700
     15 C8         -2.4270    0.9570   -0.3140 c3        1 XCA     -0.046700
     16 C7         -3.1620    2.2820   -0.1720 c3        1 XCA     -0.042200
     17 C6         -4.6280    2.1410   -0.2810 c2        1 XCA     -0.163200
     18 C13        -0.2050   -0.2300    0.0620 c3        1 XCA     -0.045000
     19 C18        -0.1240   -0.6880   -1.3840 c3        1 XCA     -0.082100
     20 C12        -0.9000   -1.2750    0.9200 c3        1 XCA     -0.065400
     21 C11        -2.3520   -1.4450    0.5000 c3        1 XCA     -0.074400
     22 C9         -3.1520   -0.1470    0.4700 c3        1 XCA     -0.046700
     23 C10        -4.5840   -0.3600   -0.0640 c3        1 XCA     -0.001800
     24 C1         -5.3640   -1.2190    0.9440 c3        1 XCA     -0.069400
     25 C19        -4.5790   -1.0600   -1.4200 c3        1 XCA     -0.083100
     26 C5         -5.2870    0.9700   -0.2080 ce        1 XCA     -0.059200
     27 C4         -6.7390    0.9380   -0.2610 ce        1 XCA     -0.239000
     28 C3         -7.4380   -0.1600    0.0950 c2        1 XCA      0.085900
     29 O1         -8.8130   -0.2350    0.0760 oh        1 XCA     -0.508100
     30 C2         -6.8090   -1.4340    0.5410 c3        1 XCA     -0.034200
     31 H2          7.1710   -0.2600   -1.4180 hc        1 XCA      0.027700
     32 H3          8.0010   -1.7140    1.1850 hc        1 XCA      0.015033
     33 H4          7.0910   -2.4190   -0.2130 hc        1 XCA      0.015033
     34 H5          8.8190   -1.8830   -0.4210 hc        1 XCA      0.015033
     35 H6          6.2780   -0.0900    1.5290 hc        1 XCA      0.047700
     36 H7          6.0820    1.2880    0.3820 hc        1 XCA      0.047700
     37 H8          4.7730   -0.1900   -1.1770 hc        1 XCA      0.026200
     38 H9          4.9900   -1.5850   -0.0540 hc        1 XCA      0.026200
     39 H10         3.8020   -0.2950    1.7640 hc        1 XCA      0.038700
     40 H11         3.6300    1.1040    0.6400 hc        1 XCA      0.038700
     41 H12         2.4500   -0.6490   -0.9780 hc        1 XCA      0.048700
     42 H13         1.5140   -2.6230    0.0460 hc        1 XCA      0.030033
     43 H14         3.2350   -2.5740    0.5950 hc        1 XCA      0.030033
     44 H15         1.9140   -2.0540    1.7210 hc        1 XCA      0.030033
     45 H16         1.1640    0.2700    1.6730 hc        1 XCA      0.043700
     46 H17         1.7720    2.3360    0.7810 hc        1 XCA      0.050200
     47 H18         1.9590    1.7000   -0.8990 hc        1 XCA      0.050200
     48 H19        -0.3210    3.1520    0.1240 hc        1 XCA      0.037200
     49 H20        -0.2350    2.2550   -1.4400 hc        1 XCA      0.037200
     50 H21        -1.1090    1.2740    1.3380 hc        1 XCA      0.043700
     51 H22        -2.3940    0.6870   -1.4040 hc        1 XCA      0.057700
     52 H23        -2.9250    2.7420    0.8280 hc        1 XCA      0.050200
     53 H24        -2.7850    2.9930   -0.9550 hc        1 XCA      0.050200
     54 H25        -5.1820    3.0860   -0.4020 ha        1 XCA      0.115000
     55 H26         0.4030    0.0790   -2.0020 hc        1 XCA      0.035033
     56 H27         0.4410   -1.6490   -1.4520 hc        1 XCA      0.035033
     57 H28        -1.1390   -0.8540   -1.8190 hc        1 XCA      0.035033
     58 H29        -0.3790   -2.2630    0.8300 hc        1 XCA      0.042200
     59 H30        -0.8500   -0.9660    1.9970 hc        1 XCA      0.042200
     60 H31        -2.3780   -1.9270   -0.5120 hc        1 XCA      0.036700
     61 H32        -2.8400   -2.1550    1.2190 hc        1 XCA      0.036700
     62 H33        -3.2480    0.2160    1.5350 hc        1 XCA      0.047700
     63 H34        -4.8710   -2.2200    1.0410 hc        1 XCA      0.048700
     64 H35        -5.3270   -0.7190    1.9470 hc        1 XCA      0.048700
     65 H36        -4.3490   -2.1460   -1.2970 hc        1 XCA      0.037033
     66 H37        -5.5830   -0.9670   -1.9010 hc        1 XCA      0.037033
     67 H38        -3.8180   -0.6080   -2.0990 hc        1 XCA      0.037033
     68 H39        -7.2480    1.8590   -0.5840 ha        1 XCA      0.124000
     69 H40        -9.1580    0.6140   -0.2350 ho        1 XCA      0.413000
     70 H41        -6.8700   -2.1730   -0.3040 hc        1 XCA      0.061200
     71 H42        -7.3890   -1.8610    1.4020 hc        1 XCA      0.061200
@<TRIPOS>BOND
     1    1    2 1   
     2    2    3 1   
     3    2    4 1   
     4    4    5 1   
     5    4    6 1   
     6    4   31 1   
     7    5   32 1   
     8    5   33 1   
     9    5   34 1   
    10    6    7 1   
    11    6   35 1   
    12    6   36 1   
    13    7    8 1   
    14    7   37 1   
    15    7   38 1   
    16    8    9 1   
    17    8   39 1   
    18    8   40 1   
    19    9   10 1   
    20    9   11 1   
    21    9   41 1   
    22   10   42 1   
    23   10   43 1   
    24   10   44 1   
    25   11   12 1   
    26   11   18 1   
    27   11   45 1   
    28   12   13 1   
    29   12   46 1   
    30   12   47 1   
    31   13   14 1   
    32   13   48 1   
    33   13   49 1   
    34   14   15 1   
    35   14   18 1   
    36   14   50 1   
    37   15   16 1   
    38   15   22 1   
    39   15   51 1   
    40   16   17 1   
    41   16   52 1   
    42   16   53 1   
    43   17   26 2   
    44   17   54 1   
    45   18   19 1   
    46   18   20 1   
    47   19   55 1   
    48   19   56 1   
    49   19   57 1   
    50   20   21 1   
    51   20   58 1   
    52   20   59 1   
    53   21   22 1   
    54   21   60 1   
    55   21   61 1   
    56   22   23 1   
    57   22   62 1   
    58   23   24 1   
    59   23   25 1   
    60   23   26 1   
    61   24   30 1   
    62   24   63 1   
    63   24   64 1   
    64   25   65 1   
    65   25   66 1   
    66   25   67 1   
    67   26   27 1   
    68   27   28 2   
    69   27   68 1   
    70   28   29 1   
    71   28   30 1   
    72   29   69 1   
    73   30   70 1   
    74   30   71 1   
@<TRIPOS>SUBSTRUCTURE
     1 XCA         1 TEMP              0 ****  ****    0 ROOT
