@<TRIPOS>MOLECULE
XCA
   71    74     1     0     0
SMALL
bcc


@<TRIPOS>ATOM
      1 O3         -0.6000    0.3960   -0.1670 o         1 XCA     -0.848300
      2 C27         0.5910    0.0500    0.0760 c         1 XCA      0.912600
      3 O2          1.0650   -0.0610    1.2430 o         1 XCA     -0.848300
      4 C25         1.5520   -0.2180   -1.1140 c3        1 XCA     -0.187700
      5 C26         2.3680   -1.4610   -0.8490 c3        1 XCA     -0.065100
      6 C24         0.7980   -0.3060   -2.4250 c3        1 XCA     -0.066400
      7 C23         1.6910   -0.0570   -3.6240 c3        1 XCA     -0.078400
      8 C22         0.9070   -0.1540   -4.9170 c3        1 XCA     -0.079400
      9 C20         1.7770    0.1140   -6.1450 c3        1 XCA     -0.058700
     10 C21         2.5780   -1.1310   -6.4750 c3        1 XCA     -0.088100
     11 C17         0.9130    0.5540   -7.3210 c3        1 XCA     -0.050700
     12 C16         0.1170    1.8380   -7.0040 c3        1 XCA     -0.079400
     13 C15         0.0180    2.6550   -8.2940 c3        1 XCA     -0.073400
     14 C14         0.5530    1.7240   -9.3710 c3        1 XCA     -0.067700
     15 C8          1.0500    2.3180  -10.6730 c3        1 XCA     -0.046700
     16 C7         -0.0390    3.1630  -11.3170 c3        1 XCA     -0.042200
     17 C6          0.2070    3.4250  -12.7490 c2        1 XCA     -0.163200
     18 C13         1.6410    0.8930   -8.6460 c3        1 XCA     -0.045000
     19 C18         2.8960    1.6990   -8.3570 c3        1 XCA     -0.082100
     20 C12         1.9560   -0.2830   -9.5560 c3        1 XCA     -0.065400
     21 C11         2.4170    0.1950  -10.9240 c3        1 XCA     -0.074400
     22 C9          1.4580    1.1670  -11.6040 c3        1 XCA     -0.046700
     23 C10         2.0240    1.7020  -12.9360 c3        1 XCA     -0.001800
     24 C1          2.1030    0.5430  -13.9410 c3        1 XCA     -0.069400
     25 C19         3.4140    2.3040  -12.7560 c3        1 XCA     -0.083100
     26 C5          1.1060    2.7640  -13.4990 ce        1 XCA     -0.059200
     27 C4          1.2310    3.0470  -14.9190 ce        1 XCA     -0.239000
     28 C3          1.9000    2.2230  -15.7520 c2        1 XCA      0.085900
     29 O1          2.0340    2.4400  -17.1050 oh        1 XCA     -0.508100
     30 C2          2.5890    0.9790  -15.3090 c3        1 XCA     -0.034200
     31 H2          2.2450    0.6670   -1.1510 hc        1 XCA      0.027700
     32 H3          3.1860   -1.5750   -1.6020 hc        1 XCA      0.015033
     33 H4          2.8170   -1.3980    0.1720 hc        1 XCA      0.015033
     34 H5          1.7230   -2.3710   -0.8920 hc        1 XCA      0.015033
     35 H6          0.3200   -1.3160   -2.5170 hc        1 XCA      0.047700
     36 H7         -0.0340    0.4490   -2.4070 hc        1 XCA      0.047700
     37 H8          2.1520    0.9620   -3.5420 hc        1 XCA      0.026200
     38 H9          2.5320   -0.7990   -3.6280 hc        1 XCA      0.026200
     39 H10         0.0620    0.5820   -4.8740 hc        1 XCA      0.038700
     40 H11         0.4480   -1.1740   -5.0050 hc        1 XCA      0.038700
     41 H12         2.4930    0.9470   -5.8930 hc        1 XCA      0.048700
     42 H13         2.9830   -1.5890   -5.5400 hc        1 XCA      0.030033
     43 H14         1.9370   -1.8880   -6.9880 hc        1 XCA      0.030033
     44 H15         3.4410   -0.8880   -7.1400 hc        1 XCA      0.030033
     45 H16         0.1850   -0.2770   -7.5370 hc        1 XCA      0.043700
     46 H17        -0.9020    1.5740   -6.6280 hc        1 XCA      0.050200
     47 H18         0.6320    2.4310   -6.2070 hc        1 XCA      0.050200
     48 H19        -1.0340    2.9610   -8.5080 hc        1 XCA      0.037200
     49 H20         0.6360    3.5850   -8.2270 hc        1 XCA      0.037200
     50 H21        -0.2860    1.0130   -9.6350 hc        1 XCA      0.043700
     51 H22         1.9380    2.9780  -10.4760 hc        1 XCA      0.057700
     52 H23        -1.0320    2.6420  -11.2180 hc        1 XCA      0.050200
     53 H24        -0.1250    4.1340  -10.7580 hc        1 XCA      0.050200
     54 H25        -0.4310    4.2030  -13.2000 ha        1 XCA      0.115000
     55 H26         3.3430    2.1130   -9.2920 hc        1 XCA      0.035033
     56 H27         2.6570    2.5510   -7.6740 hc        1 XCA      0.035033
     57 H28         3.6630    1.0540   -7.8640 hc        1 XCA      0.035033
     58 H29         1.0420   -0.9240   -9.6670 hc        1 XCA      0.042200
     59 H30         2.7600   -0.9210   -9.1060 hc        1 XCA      0.042200
     60 H31         3.4250    0.6750  -10.8140 hc        1 XCA      0.036700
     61 H32         2.5470   -0.7050  -11.5810 hc        1 XCA      0.036700
     62 H33         0.5170    0.5960  -11.8520 hc        1 XCA      0.047700
     63 H34         2.8030   -0.2420  -13.5510 hc        1 XCA      0.048700
     64 H35         1.0870    0.0790  -14.0370 hc        1 XCA      0.048700
     65 H36         3.6880    2.9120  -13.6520 hc        1 XCA      0.037033
     66 H37         3.4490    2.9650  -11.8570 hc        1 XCA      0.037033
     67 H38         4.1760    1.4960  -12.6350 hc        1 XCA      0.037033
     68 H39         0.7370    3.9570  -15.2930 ha        1 XCA      0.124000
     69 H40         1.5800    3.2660  -17.3250 ho        1 XCA      0.413000
     70 H41         2.4130    0.1620  -16.0580 hc        1 XCA      0.061200
     71 H42         3.6950    1.1770  -15.2820 hc        1 XCA      0.061200
@<TRIPOS>BOND
     1    1    2 1   
     2    2    3 1   
     3    2    4 1   
     4    4    5 1   
     5    4    6 1   
     6    4   31 1   
     7    5   32 1   
     8    5   33 1   
     9    5   34 1   
    10    6    7 1   
    11    6   35 1   
    12    6   36 1   
    13    7    8 1   
    14    7   37 1   
    15    7   38 1   
    16    8    9 1   
    17    8   39 1   
    18    8   40 1   
    19    9   10 1   
    20    9   11 1   
    21    9   41 1   
    22   10   42 1   
    23   10   43 1   
    24   10   44 1   
    25   11   12 1   
    26   11   18 1   
    27   11   45 1   
    28   12   13 1   
    29   12   46 1   
    30   12   47 1   
    31   13   14 1   
    32   13   48 1   
    33   13   49 1   
    34   14   15 1   
    35   14   18 1   
    36   14   50 1   
    37   15   16 1   
    38   15   22 1   
    39   15   51 1   
    40   16   17 1   
    41   16   52 1   
    42   16   53 1   
    43   17   26 2   
    44   17   54 1   
    45   18   19 1   
    46   18   20 1   
    47   19   55 1   
    48   19   56 1   
    49   19   57 1   
    50   20   21 1   
    51   20   58 1   
    52   20   59 1   
    53   21   22 1   
    54   21   60 1   
    55   21   61 1   
    56   22   23 1   
    57   22   62 1   
    58   23   24 1   
    59   23   25 1   
    60   23   26 1   
    61   24   30 1   
    62   24   63 1   
    63   24   64 1   
    64   25   65 1   
    65   25   66 1   
    66   25   67 1   
    67   26   27 1   
    68   27   28 2   
    69   27   68 1   
    70   28   29 1   
    71   28   30 1   
    72   29   69 1   
    73   30   70 1   
    74   30   71 1   
@<TRIPOS>SUBSTRUCTURE
     1 XCA         1 TEMP              0 ****  ****    0 ROOT
