@<TRIPOS>MOLECULE
XCA
   71    71     1     0     0
SMALL
bcc


@<TRIPOS>ATOM
      1 O3         -4.4690   -6.5700    3.4560 o         1 XCA     -0.583000
      2 C27        -3.2070   -6.5700    3.4560 c1        1 XCA      0.332000
      3 O2         -2.5760   -6.5700    4.5490 o         1 XCA     -0.583000
      4 C25        -2.4550   -6.6540    2.1540 c2        1 XCA     -0.181000
      5 C26        -2.8490   -7.9190    1.4240 c3        1 XCA     -0.182000
      6 C24        -2.7950   -5.4420    1.2910 c3        1 XCA     -0.129000
      7 C23        -1.5590   -4.5040    1.2040 c3        1 XCA     -0.169000
      8 C22        -1.8490   -3.3530    0.1960 c3        1 XCA     -0.154000
      9 C20        -0.6110   -2.3730    0.1420 c3        1 XCA     -0.100000
     10 C21         0.6720   -3.1840   -0.1760 c3        1 XCA     -0.204000
     11 C17        -0.8170   -1.4160   -0.8570 c3        1 XCA     -0.089000
     12 C16        -2.2530   -0.9580   -0.8670 c3        1 XCA     -0.160000
     13 C15        -2.1540    0.7180   -1.3630 c3        1 XCA     -0.152000
     14 C14        -0.5290    1.0670   -1.2900 c3        1 XCA     -0.107000
     15 C8         -0.0490    2.4960   -0.9090 c3        1 XCA     -0.086000
     16 C7         -0.9440    3.6450   -1.7600 c3        1 XCA     -0.127000
     17 C6         -0.4630    5.0880   -1.4430 c2        1 XCA     -0.151000
     18 C13         0.0720   -0.0030   -0.5300 c3        1 XCA     -0.045000
     19 C18        -0.2600    0.3270    0.9390 c3        1 XCA     -0.201000
     20 C12         1.3440   -0.0470   -0.5570 c3        1 XCA     -0.143000
     21 C11         2.0030    1.3930   -0.1330 c3        1 XCA     -0.152000
     22 C9          1.4380    2.6580   -1.0150 c3        1 XCA     -0.086000
     23 C10         2.0110    4.0370   -0.5220 c3        1 XCA     -0.005000
     24 C1          3.5090    3.9770   -0.7600 c3        1 XCA     -0.144000
     25 C19         1.8050    4.0840    0.9990 c3        1 XCA     -0.201000
     26 C5          1.3210    5.2350   -1.0820 c1        1 XCA     -0.067000
     27 C4          2.1360    6.5300   -1.3590 c1        1 XCA     -0.170000
     28 C3          3.7330    6.4990   -0.9760 c1        1 XCA      0.012000
     29 O1          4.6220    7.4390   -1.5630 o         1 XCA     -0.263000
     30 C2          4.3030    5.1450   -0.3440 c3        1 XCA     -0.147000
     31 H2         -1.4950   -6.6670    2.3330 ha        1 XCA      0.071000
     32 H3         -2.9710   -8.6420    2.0690 hc        1 XCA      0.054667
     33 H4         -3.6840   -7.7690    0.9420 hc        1 XCA      0.054667
     34 H5         -2.1460   -8.1620    0.7920 hc        1 XCA      0.054667
     35 H6         -3.0410   -5.7400    0.3940 hc        1 XCA      0.058500
     36 H7         -3.5430   -4.9580    1.6890 hc        1 XCA      0.058500
     37 H8         -1.3750   -4.1260    2.0850 hc        1 XCA      0.096500
     38 H9         -0.7840   -5.0140    0.9000 hc        1 XCA      0.096500
     39 H10        -2.0060   -3.7290   -0.6910 hc        1 XCA      0.070500
     40 H11        -2.6410   -2.8600    0.4850 hc        1 XCA      0.070500
     41 H12        -0.5090   -1.9280    1.0050 hc        1 XCA      0.102000
     42 H13         0.4250   -4.0760   -0.4860 hc        1 XCA      0.066667
     43 H14         1.1810   -2.7280   -0.8730 hc        1 XCA      0.066667
     44 H15         1.2180   -3.2590    0.6290 hc        1 XCA      0.066667
     45 H16        -0.5710   -1.7770   -1.7300 hc        1 XCA      0.077000
     46 H17        -2.7740   -1.4760   -1.5100 hc        1 XCA      0.094000
     47 H18        -2.6410   -1.0290    0.0260 hc        1 XCA      0.094000
     48 H19        -2.4860    0.8250   -2.2750 hc        1 XCA      0.077000
     49 H20        -2.6530    1.2870   -0.7470 hc        1 XCA      0.077000
     50 H21        -0.2070    0.9400   -2.2030 hc        1 XCA      0.080000
     51 H22        -0.2710    2.6190    0.0340 hc        1 XCA      0.099000
     52 H23        -1.9130    3.5320   -1.7670 hc        1 XCA      0.090500
     53 H24        -0.7530    3.4820   -2.7040 hc        1 XCA      0.090500
     54 H25        -1.0900    5.7430   -1.0810 ha        1 XCA      0.118000
     55 H26        -0.8120   -0.3840    1.3160 hc        1 XCA      0.076000
     56 H27         0.5680    0.4010    1.4510 hc        1 XCA      0.076000
     57 H28        -0.7450    1.1730    0.9810 hc        1 XCA      0.076000
     58 H29         1.6530   -0.7340    0.0640 hc        1 XCA      0.080000
     59 H30         1.6360   -0.2780   -1.4590 hc        1 XCA      0.080000
     60 H31         2.9700    1.3390   -0.2490 hc        1 XCA      0.075000
     61 H32         1.8100    1.5590    0.8090 hc        1 XCA      0.075000
     62 H33         1.6990    2.5300   -1.9470 hc        1 XCA      0.085000
     63 H34         3.8560    3.1960   -0.2880 hc        1 XCA      0.087500
     64 H35         3.6550    3.8410   -1.7160 hc        1 XCA      0.087500
     65 H36         2.3470    3.3910    1.4220 hc        1 XCA      0.077000
     66 H37         0.8630    3.9320    1.2050 hc        1 XCA      0.077000
     67 H38         2.0750    4.9590    1.3370 hc        1 XCA      0.077000
     68 H39         1.6750    7.3840   -1.4650 ha        1 XCA      0.140000
     69 H40         4.6760    8.1570   -1.0450 ho        1 XCA      0.208000
     70 H41         4.4580    5.3270    0.6020 hc        1 XCA      0.088500
     71 H42         5.2130    4.9440   -0.6360 hc        1 XCA      0.088500
@<TRIPOS>BOND
     1    1    2 1   
     2    2    3 1   
     3    4    5 1   
     4    4    6 1   
     5    4   31 1   
     6    5   32 1   
     7    5   33 1   
     8    5   34 1   
     9    6    7 1   
    10    6   35 1   
    11    6   36 1   
    12    7    8 1   
    13    7   37 1   
    14    7   38 1   
    15    8    9 1   
    16    8   39 1   
    17    8   40 1   
    18    9   10 1   
    19    9   11 1   
    20    9   41 1   
    21   10   42 1   
    22   10   43 1   
    23   10   44 1   
    24   11   12 1   
    25   11   18 1   
    26   11   45 1   
    27   12   13 1   
    28   12   46 1   
    29   12   47 1   
    30   13   14 1   
    31   13   48 1   
    32   13   49 1   
    33   14   15 1   
    34   14   18 1   
    35   14   50 1   
    36   15   16 1   
    37   15   22 1   
    38   15   51 1   
    39   16   17 1   
    40   16   52 1   
    41   16   53 1   
    42   17   26 1   
    43   17   54 1   
    44   18   19 1   
    45   18   20 1   
    46   19   55 1   
    47   19   56 1   
    48   19   57 1   
    49   20   21 1   
    50   20   58 1   
    51   20   59 1   
    52   21   22 1   
    53   21   60 1   
    54   21   61 1   
    55   22   23 1   
    56   22   62 1   
    57   23   24 1   
    58   23   25 1   
    59   23   26 1   
    60   24   30 1   
    61   24   63 1   
    62   24   64 1   
    63   25   65 1   
    64   25   66 1   
    65   25   67 1   
    66   27   28 1   
    67   27   68 1   
    68   28   30 1   
    69   29   69 1   
    70   30   70 1   
    71   30   71 1   
@<TRIPOS>SUBSTRUCTURE
     1 XCA         1 TEMP              0 ****  ****    0 ROOT
