@<TRIPOS>MOLECULE
XCF
   48    51     1     0     0
SMALL
bcc


@<TRIPOS>ATOM
      1 N4         -0.1970   -0.1550    0.6660 nh        1 XCF     -0.935500
      2 C3          1.1830   -0.0330    0.5030 ca        1 XCF      0.902900
      3 N5          1.9190    0.3790    1.5970 nb        1 XCF     -0.822000
      4 N2          1.7210   -0.3760   -0.7390 nb        1 XCF     -0.773000
      5 C1          3.0540   -0.3380   -0.8210 ca        1 XCF      0.496200
      6 C8          3.9170    0.0260    0.2310 ca        1 XCF     -0.422900
      7 C6          3.2850    0.3750    1.4690 ca        1 XCF      0.707200
      8 N7          4.0360    0.6730    2.6070 nh        1 XCF     -0.936500
      9 C9          5.3820    0.0260   -0.0030 c3        1 XCF      0.039200
     10 C10         5.9770   -1.3480    0.0330 ca        1 XCF     -0.003300
     11 C11         6.3860   -2.0160   -1.1310 ca        1 XCF     -0.145800
     12 C27         6.2280   -1.4890   -2.4750 ce        1 XCF     -0.079200
     13 C28         6.8210   -2.0970   -3.5130 c2        1 XCF     -0.207200
     14 C14         7.6490   -3.3220   -3.3330 c3        1 XCF      0.208300
     15 C24         9.1220   -2.9980   -3.4040 cx        1 XCF     -0.156700
     16 C25         9.8760   -3.2980   -4.6720 cx        1 XCF     -0.122400
     17 C26        10.1160   -4.1280   -3.4470 cx        1 XCF     -0.122400
     18 O13         7.3730   -4.0340   -2.1100 os        1 XCF     -0.311900
     19 C12         6.9860   -3.2920   -1.0160 ca        1 XCF      0.146100
     20 C15         7.1620   -3.9070    0.2370 ca        1 XCF      0.038100
     21 O16         7.6240   -5.2040    0.3590 os        1 XCF     -0.306900
     22 C17         9.0100   -5.3540    0.0470 c3        1 XCF      0.111700
     23 C18         6.7350   -3.2160    1.3920 ca        1 XCF      0.151100
     24 C21         6.1490   -1.9510    1.2820 ca        1 XCF     -0.223000
     25 O19         6.9680   -3.8600    2.5880 os        1 XCF     -0.306900
     26 C20         6.3110   -3.3170    3.7290 c3        1 XCF      0.110700
     27 HN4        -0.7470   -0.2180   -0.1570 hn        1 XCF      0.431300
     28 HN4A       -0.6060    0.2880    1.4540 hn        1 XCF      0.431300
     29 H1          3.4740   -0.6210   -1.8060 h4        1 XCF      0.026100
     30 HN7         4.9290    1.0720    2.4320 hn        1 XCF      0.412800
     31 HN7A        3.5450    1.0670    3.3780 hn        1 XCF      0.412800
     32 H9          5.5860    0.5110   -0.9980 hc        1 XCF      0.048200
     33 H9A         5.9240    0.6580    0.7520 hc        1 XCF      0.048200
     34 H27         5.6000   -0.5980   -2.6200 ha        1 XCF      0.133000
     35 H28         6.7370   -1.7270   -4.5440 ha        1 XCF      0.141000
     36 H14         7.3810   -4.0960   -4.1140 h1        1 XCF      0.081700
     37 H24         9.3870   -2.0870   -2.8320 hc        1 XCF      0.089700
     38 H25        10.6540   -2.5880   -5.0040 hc        1 XCF      0.073700
     39 H25A        9.3360   -3.7450   -5.5250 hc        1 XCF      0.073700
     40 H26         9.7360   -5.1650   -3.4160 hc        1 XCF      0.073700
     41 H26A       11.0680   -4.0200   -2.8980 hc        1 XCF      0.073700
     42 H17         9.1880   -6.4500    0.1760 h1        1 XCF      0.041033
     43 H17A        9.2110   -5.0370   -1.0070 h1        1 XCF      0.041033
     44 H17B        9.6340   -4.7640    0.7600 h1        1 XCF      0.041033
     45 H21         5.8110   -1.4190    2.1840 ha        1 XCF      0.149000
     46 H20         6.5210   -4.0700    4.5300 h1        1 XCF      0.046367
     47 H20A        5.2130   -3.2210    3.5530 h1        1 XCF      0.046367
     48 H20B        6.7540   -2.3260    3.9960 h1        1 XCF      0.046367
@<TRIPOS>BOND
     1    1    2 1   
     2    1   27 1   
     3    1   28 1   
     4    2    3 ar  
     5    2    4 ar  
     6    3    7 ar  
     7    4    5 ar  
     8    5    6 ar  
     9    5   29 1   
    10    6    7 ar  
    11    6    9 1   
    12    7    8 1   
    13    8   30 1   
    14    8   31 1   
    15    9   10 1   
    16    9   32 1   
    17    9   33 1   
    18   10   11 ar  
    19   10   24 ar  
    20   11   12 1   
    21   11   19 ar  
    22   12   13 2   
    23   12   34 1   
    24   13   14 1   
    25   13   35 1   
    26   14   15 1   
    27   14   18 1   
    28   14   36 1   
    29   15   16 1   
    30   15   17 1   
    31   15   37 1   
    32   16   17 1   
    33   16   38 1   
    34   16   39 1   
    35   17   40 1   
    36   17   41 1   
    37   18   19 1   
    38   19   20 ar  
    39   20   21 1   
    40   20   23 ar  
    41   21   22 1   
    42   22   42 1   
    43   22   43 1   
    44   22   44 1   
    45   23   24 ar  
    46   23   25 1   
    47   24   45 1   
    48   25   26 1   
    49   26   46 1   
    50   26   47 1   
    51   26   48 1   
@<TRIPOS>SUBSTRUCTURE
     1 XCF         1 TEMP              0 ****  ****    0 ROOT
