@<TRIPOS>MOLECULE
XCF
   50    53     1     0     0
SMALL
bcc


@<TRIPOS>ATOM
      1 N4         -0.3840    0.5540    0.0210 n4        1 XCF     -0.813300
      2 C3          1.0990    0.4100   -0.0140 ca        1 XCF      0.717900
      3 N5          1.6100   -0.8360    0.1560 nb        1 XCF     -0.655000
      4 N2          1.8200    1.5770   -0.2200 nb        1 XCF     -0.606000
      5 C1          3.1430    1.4400   -0.2450 ca        1 XCF      0.473200
      6 C8          3.8260    0.1860   -0.0760 ca        1 XCF     -0.153900
      7 C6          2.9800   -0.9320    0.1210 ca        1 XCF      0.500200
      8 N7          3.5380   -2.2830    0.3000 n4        1 XCF     -0.828300
      9 C9          5.3090    0.2030   -0.1260 c3        1 XCF     -0.018800
     10 C10         5.9960   -1.0750    0.1940 ca        1 XCF     -0.175300
     11 C11         6.2990   -2.0160   -0.7980 ca        1 XCF     -0.123800
     12 C27         5.9650   -1.8440   -2.2040 ce        1 XCF     -0.191200
     13 C28         6.5230   -2.6420   -3.1290 c2        1 XCF     -0.099200
     14 C14         7.4430   -3.7550   -2.7440 c3        1 XCF      0.191300
     15 C24         8.8790   -3.3670   -2.9630 cx        1 XCF     -0.190700
     16 C25         9.5620   -3.7820   -4.2420 cx        1 XCF     -0.105400
     17 C26         9.9380   -4.4430   -2.9530 cx        1 XCF     -0.105400
     18 O13         7.2280   -4.1820   -1.3770 os        1 XCF     -0.317900
     19 C12         7.0150   -3.1880   -0.4480 ca        1 XCF      0.064100
     20 C15         7.4580   -3.4110    0.8670 ca        1 XCF      0.142100
     21 O16         8.1140   -4.5060    1.3390 os        1 XCF     -0.278900
     22 C17         8.7930   -5.3470    0.3980 c3        1 XCF      0.111700
     23 C18         7.1350   -2.4330    1.8590 ca        1 XCF      0.132100
     24 C21         6.4080   -1.2940    1.5190 ca        1 XCF     -0.231000
     25 O19         7.5420   -2.7420    3.1300 os        1 XCF     -0.282900
     26 C20         7.6920   -1.6470    4.0360 c3        1 XCF      0.103700
     27 HN4        -0.8390   -0.3590    0.1690 hn        1 XCF      0.499467
     28 HN4A       -0.6400    1.1950    0.7890 hn        1 XCF      0.499467
     29 H1          3.7270    2.3780   -0.4090 h4        1 XCF      0.110100
     30 HN7         4.2090   -2.2600    1.0950 hn        1 XCF      0.498800
     31 HN7A        4.0710   -2.5380   -0.5560 hn        1 XCF      0.498800
     32 H9          5.6670    1.0040    0.5920 hc        1 XCF      0.123200
     33 H9A         5.6210    0.5580   -1.1550 hc        1 XCF      0.123200
     34 H27         5.3030   -1.0150   -2.4900 ha        1 XCF      0.122000
     35 H28         6.3550   -2.5090   -4.2100 ha        1 XCF      0.169000
     36 H14         7.1890   -4.7000   -3.3130 h1        1 XCF      0.111700
     37 H24         9.1310   -2.3820   -2.5230 hc        1 XCF      0.094700
     38 H25        10.2690   -3.0740   -4.7130 hc        1 XCF      0.087200
     39 H25A        8.9950   -4.3570   -4.9950 hc        1 XCF      0.087200
     40 H26        10.9160   -4.2150   -2.4920 hc        1 XCF      0.087200
     41 H26A        9.6310   -5.4900   -2.7760 hc        1 XCF      0.087200
     42 H17         8.0450   -5.9630   -0.1580 h1        1 XCF      0.069033
     43 H17A        9.4330   -5.9850    1.0610 h1        1 XCF      0.069033
     44 H17B        9.4120   -4.7450   -0.3100 h1        1 XCF      0.069033
     45 H21         6.2140   -0.5280    2.2870 ha        1 XCF      0.154000
     46 H20         8.3090   -0.8340    3.5860 h1        1 XCF      0.061700
     47 H20A        6.6890   -1.2660    4.3440 h1        1 XCF      0.061700
     48 H20B        8.2220   -2.1160    4.9070 h1        1 XCF      0.061700
     49 H43        -0.7040    0.9580   -0.8740 hn        1 XCF      0.499467
     50 H73         2.8070   -2.9850    0.4790 hn        1 XCF      0.498800
@<TRIPOS>BOND
     1    1    2 1   
     2    1   27 1   
     3    1   28 1   
     4    1   49 1   
     5    2    3 ar  
     6    2    4 ar  
     7    3    7 ar  
     8    4    5 ar  
     9    5    6 ar  
    10    5   29 1   
    11    6    7 ar  
    12    6    9 1   
    13    7    8 1   
    14    8   30 1   
    15    8   31 1   
    16    8   50 1   
    17    9   10 1   
    18    9   32 1   
    19    9   33 1   
    20   10   11 ar  
    21   10   24 ar  
    22   11   12 1   
    23   11   19 ar  
    24   12   13 2   
    25   12   34 1   
    26   13   14 1   
    27   13   35 1   
    28   14   15 1   
    29   14   18 1   
    30   14   36 1   
    31   15   16 1   
    32   15   17 1   
    33   15   37 1   
    34   16   17 1   
    35   16   38 1   
    36   16   39 1   
    37   17   40 1   
    38   17   41 1   
    39   18   19 1   
    40   19   20 ar  
    41   20   21 1   
    42   20   23 ar  
    43   21   22 1   
    44   22   42 1   
    45   22   43 1   
    46   22   44 1   
    47   23   24 ar  
    48   23   25 1   
    49   24   45 1   
    50   25   26 1   
    51   26   46 1   
    52   26   47 1   
    53   26   48 1   
@<TRIPOS>SUBSTRUCTURE
     1 XCF         1 TEMP              0 ****  ****    0 ROOT
