@<TRIPOS>MOLECULE
XCF
   48    51     1     0     0
SMALL
bcc


@<TRIPOS>ATOM
      1 N4         -0.2080   -0.1890    0.6630 nv        1 XCF     -0.935500
      2 C3          1.1720   -0.0600    0.5040 ca        1 XCF      0.902900
      3 N5          1.9030    0.3460    1.6030 nb        1 XCF     -0.822000
      4 N2          1.7150   -0.3920   -0.7390 nb        1 XCF     -0.773000
      5 C1          3.0480   -0.3480   -0.8170 ca        1 XCF      0.496200
      6 C8          3.9070    0.0120    0.2410 ca        1 XCF     -0.422900
      7 C6          3.2690    0.3500    1.4790 ca        1 XCF      0.707200
      8 N7          4.0160    0.6420    2.6210 nv        1 XCF     -0.936500
      9 C9          5.3720    0.0190    0.0100 c3        1 XCF      0.039200
     10 C10         5.9720   -1.3520    0.0370 ca        1 XCF     -0.003300
     11 C11         6.3880   -2.0090   -1.1300 ca        1 XCF     -0.145800
     12 C27         6.2330   -1.4730   -2.4700 ce        1 XCF     -0.079200
     13 C28         6.8320   -2.0690   -3.5110 c2        1 XCF     -0.207200
     14 C14         7.6650   -3.2920   -3.3370 c3        1 XCF      0.208300
     15 C24         9.1370   -2.9610   -3.3990 cx        1 XCF     -0.156700
     16 C25         9.8980   -3.2470   -4.6670 cx        1 XCF     -0.122400
     17 C26        10.1360   -4.0870   -3.4490 cx        1 XCF     -0.122400
     18 O13         7.3870   -4.0160   -2.1210 os        1 XCF     -0.311900
     19 C12         6.9930   -3.2840   -1.0220 ca        1 XCF      0.146100
     20 C15         7.1670   -3.9080    0.2260 ca        1 XCF      0.038100
     21 O16         7.6330   -5.2040    0.3390 os        1 XCF     -0.306900
     22 C17         9.0210   -5.3470    0.0310 c3        1 XCF      0.111700
     23 C18         6.7320   -3.2290    1.3850 ca        1 XCF      0.151100
     24 C21         6.1420   -1.9650    1.2830 ca        1 XCF     -0.223000
     25 O19         6.9630   -3.8820    2.5760 os        1 XCF     -0.306900
     26 C20         6.3010   -3.3490    3.7200 c3        1 XCF      0.110700
     27 HN4        -0.7550   -0.2480   -0.1620 hn        1 XCF      0.431300
     28 HN4A       -0.6210    0.2460    1.4520 hn        1 XCF      0.431300
     29 H1          3.4720   -0.6230   -1.8030 h4        1 XCF      0.026100
     30 HN7         4.9070    1.0470    2.4520 hn        1 XCF      0.412800
     31 HN7A        3.5210    1.0290    3.3940 hn        1 XCF      0.412800
     32 H9          5.9100    0.6480    0.7720 hc        1 XCF      0.048200
     33 H9A         5.5770    0.5130   -0.9800 hc        1 XCF      0.048200
     34 H27         5.6020   -0.5830   -2.6100 ha        1 XCF      0.133000
     35 H28         6.7500   -1.6910   -4.5390 ha        1 XCF      0.141000
     36 H14         7.4040   -4.0610   -4.1260 h1        1 XCF      0.081700
     37 H24         9.3960   -2.0540   -2.8190 hc        1 XCF      0.089700
     38 H25        10.6740   -2.5310   -4.9900 hc        1 XCF      0.073700
     39 H25A        9.3630   -3.6890   -5.5260 hc        1 XCF      0.073700
     40 H26         9.7610   -5.1250   -3.4280 hc        1 XCF      0.073700
     41 H26A       11.0850   -3.9790   -2.8940 hc        1 XCF      0.073700
     42 H17         9.6400   -4.7600    0.7520 h1        1 XCF      0.041033
     43 H17A        9.2030   -6.4430    0.1520 h1        1 XCF      0.041033
     44 H17B        9.2250   -5.0200   -1.0190 h1        1 XCF      0.041033
     45 H21         5.7980   -1.4420    2.1870 ha        1 XCF      0.149000
     46 H20         5.2020   -3.2560    3.5400 h1        1 XCF      0.046367
     47 H20A        6.5110   -4.1090    4.5150 h1        1 XCF      0.046367
     48 H20B        6.7390   -2.3590    3.9960 h1        1 XCF      0.046367
@<TRIPOS>BOND
     1    1    2 1   
     2    1   27 1   
     3    1   28 1   
     4    2    3 ar  
     5    2    4 ar  
     6    3    7 ar  
     7    4    5 ar  
     8    5    6 ar  
     9    5   29 1   
    10    6    7 ar  
    11    6    9 1   
    12    7    8 1   
    13    8   30 1   
    14    8   31 1   
    15    9   10 1   
    16    9   32 1   
    17    9   33 1   
    18   10   11 ar  
    19   10   24 ar  
    20   11   12 1   
    21   11   19 ar  
    22   12   13 2   
    23   12   34 1   
    24   13   14 1   
    25   13   35 1   
    26   14   15 1   
    27   14   18 1   
    28   14   36 1   
    29   15   16 1   
    30   15   17 1   
    31   15   37 1   
    32   16   17 1   
    33   16   38 1   
    34   16   39 1   
    35   17   40 1   
    36   17   41 1   
    37   18   19 1   
    38   19   20 ar  
    39   20   21 1   
    40   20   23 ar  
    41   21   22 1   
    42   22   42 1   
    43   22   43 1   
    44   22   44 1   
    45   23   24 ar  
    46   23   25 1   
    47   24   45 1   
    48   25   26 1   
    49   26   46 1   
    50   26   47 1   
    51   26   48 1   
@<TRIPOS>SUBSTRUCTURE
     1 XCF         1 TEMP              0 ****  ****    0 ROOT
