@<TRIPOS>MOLECULE
XCF
   48    51     1     0     0
SMALL
bcc


@<TRIPOS>ATOM
      1 N4          5.7970   -2.3280   -1.2390 nh        1 XCF     -0.929500
      2 C3          4.7280   -1.7300   -0.5670 ca        1 XCF      0.898900
      3 N5          4.3860   -0.4430   -0.9360 nb        1 XCF     -0.819000
      4 N2          4.1210   -2.4560    0.4580 nb        1 XCF     -0.779000
      5 C1          3.1670   -1.8110    1.1390 ca        1 XCF      0.484200
      6 C8          2.7480   -0.4930    0.8830 ca        1 XCF     -0.424900
      7 C6          3.4210    0.1840   -0.1910 ca        1 XCF      0.717200
      8 N7          3.1530    1.5220   -0.4590 nh        1 XCF     -0.933500
      9 C9          1.7230    0.1410    1.7450 c3        1 XCF      0.032200
     10 C10         0.5050    0.6500    1.0410 ca        1 XCF     -0.012300
     11 C11        -0.4040   -0.2080    0.4080 ca        1 XCF     -0.139800
     12 C27        -0.2480   -1.6500    0.3610 ce        1 XCF     -0.077200
     13 C28        -1.2390   -2.4210   -0.1080 c2        1 XCF     -0.207200
     14 C14        -2.5210   -1.8410   -0.5990 c3        1 XCF      0.208300
     15 C24        -3.6330   -2.0650    0.3970 cx        1 XCF     -0.156700
     16 C25        -4.6330   -3.1610    0.1420 cx        1 XCF     -0.121900
     17 C26        -5.0460   -1.7270    0.0020 cx        1 XCF     -0.121900
     18 O13        -2.4470   -0.4360   -0.9210 os        1 XCF     -0.311900
     19 C12        -1.5510    0.3350   -0.2160 ca        1 XCF      0.149100
     20 C15        -1.8040    1.7180   -0.1990 ca        1 XCF      0.036100
     21 O16        -2.8440    2.2860   -0.9090 os        1 XCF     -0.307900
     22 C17        -4.1370    1.9960   -0.3740 c3        1 XCF      0.111700
     23 C18        -0.8900    2.5620    0.4710 ca        1 XCF      0.150100
     24 C21         0.2530    2.0280    1.0750 ca        1 XCF     -0.251000
     25 O19        -1.2210    3.8990    0.4760 os        1 XCF     -0.302900
     26 C20        -0.2970    4.7760    1.1120 c3        1 XCF      0.109700
     27 HN4         6.0680   -1.9230   -2.1040 hn        1 XCF      0.428300
     28 HN4A        5.8740   -3.3150   -1.1660 hn        1 XCF      0.428300
     29 H1          2.7010   -2.3960    1.9560 h4        1 XCF      0.020100
     30 HN7         3.5210    1.8970   -1.3040 hn        1 XCF      0.420800
     31 HN7A        2.2360    1.8270   -0.2230 hn        1 XCF      0.420800
     32 H9          1.3830   -0.6010    2.5230 hc        1 XCF      0.057700
     33 H9A         2.2100    0.9920    2.3030 hc        1 XCF      0.057700
     34 H27         0.7040   -2.0730    0.7160 ha        1 XCF      0.145000
     35 H28        -1.1700   -3.5170   -0.1470 ha        1 XCF      0.143000
     36 H14        -2.7960   -2.2910   -1.6010 h1        1 XCF      0.081700
     37 H24        -3.3180   -1.8680    1.4410 hc        1 XCF      0.090700
     38 H25        -4.5310   -3.7810   -0.7670 hc        1 XCF      0.074450
     39 H25A       -5.0040   -3.7480    1.0000 hc        1 XCF      0.074450
     40 H26        -5.7160   -1.2800    0.7570 hc        1 XCF      0.074450
     41 H26A       -5.2260   -1.3140   -1.0080 hc        1 XCF      0.074450
     42 H17        -4.3190    0.8920   -0.3640 h1        1 XCF      0.042700
     43 H17A       -4.2340    2.4190    0.6550 h1        1 XCF      0.042700
     44 H17B       -4.8330    2.5100   -1.0820 h1        1 XCF      0.042700
     45 H21         0.9580    2.6900    1.6010 ha        1 XCF      0.144000
     46 H20        -0.2040    4.5320    2.1980 h1        1 XCF      0.046700
     47 H20A        0.7010    4.7310    0.6130 h1        1 XCF      0.046700
     48 H20B       -0.7630    5.7840    0.9720 h1        1 XCF      0.046700
@<TRIPOS>BOND
     1    1    2 1   
     2    1   27 1   
     3    1   28 1   
     4    2    3 ar  
     5    2    4 ar  
     6    3    7 ar  
     7    4    5 ar  
     8    5    6 ar  
     9    5   29 1   
    10    6    7 ar  
    11    6    9 1   
    12    7    8 1   
    13    8   30 1   
    14    8   31 1   
    15    9   10 1   
    16    9   32 1   
    17    9   33 1   
    18   10   11 ar  
    19   10   24 ar  
    20   11   12 1   
    21   11   19 ar  
    22   12   13 2   
    23   12   34 1   
    24   13   14 1   
    25   13   35 1   
    26   14   15 1   
    27   14   18 1   
    28   14   36 1   
    29   15   16 1   
    30   15   17 1   
    31   15   37 1   
    32   16   17 1   
    33   16   38 1   
    34   16   39 1   
    35   17   40 1   
    36   17   41 1   
    37   18   19 1   
    38   19   20 ar  
    39   20   21 1   
    40   20   23 ar  
    41   21   22 1   
    42   22   42 1   
    43   22   43 1   
    44   22   44 1   
    45   23   24 ar  
    46   23   25 1   
    47   24   45 1   
    48   25   26 1   
    49   26   46 1   
    50   26   47 1   
    51   26   48 1   
@<TRIPOS>SUBSTRUCTURE
     1 XCF         1 TEMP              0 ****  ****    0 ROOT
