@<TRIPOS>MOLECULE
XCG
   22    24     1     0     0
SMALL
bcc


@<TRIPOS>ATOM
      1 CAE        -0.2480   -1.3610   -0.0000 cc        1 XCG     -0.118200
      2 CAM        -1.6080   -0.8540    0.0000 ca        1 XCG     -0.108800
      3 CAC        -2.8770   -1.4280   -0.0000 ca        1 XCG     -0.077000
      4 CAA        -3.9840   -0.5830    0.0000 ca        1 XCG     -0.149000
      5 CAB        -3.8460    0.8130    0.0000 ca        1 XCG     -0.108000
      6 CAD        -2.5920    1.4230    0.0000 ca        1 XCG     -0.126000
      7 CAN        -1.4930    0.5720    0.0000 ca        1 XCG      0.069100
      8 OAJ        -0.1500    0.9540    0.0000 os        1 XCG     -0.219200
      9 CAL         0.5810   -0.2630   -0.0000 cd        1 XCG     -0.016700
     10 CAK         2.0170   -0.1440   -0.0000 cd        1 XCG      0.453300
     11 NAH         2.7000    1.0880   -0.0000 na        1 XCG     -0.288900
     12 CAF         4.0570    0.7980   -0.0000 cd        1 XCG     -0.244600
     13 CAG         4.1600   -0.6110   -0.0000 cc        1 XCG      0.292200
     14 NAI         2.9000   -1.1880   -0.0000 nc        1 XCG     -0.641000
     15 HAE         0.0490   -2.4080   -0.0000 ha        1 XCG      0.182000
     16 HAC        -2.9980   -2.5200   -0.0000 ha        1 XCG      0.142000
     17 HAA        -4.9950   -1.0180    0.0000 ha        1 XCG      0.135000
     18 HAB        -4.7490    1.4430    0.0000 ha        1 XCG      0.136000
     19 HAD        -2.4750    2.5140    0.0010 ha        1 XCG      0.149000
     20 HAH         2.2730    1.9780   -0.0000 hn        1 XCG      0.313700
     21 HAF         4.8210    1.5720   -0.0000 h4        1 XCG      0.181000
     22 HAG         5.0640   -1.2190   -0.0000 h4        1 XCG      0.046100
@<TRIPOS>BOND
     1    1    2 1   
     2    1    9 2   
     3    1   15 1   
     4    2    3 ar  
     5    2    7 ar  
     6    3    4 ar  
     7    3   16 1   
     8    4    5 ar  
     9    4   17 1   
    10    5    6 ar  
    11    5   18 1   
    12    6    7 ar  
    13    6   19 1   
    14    7    8 1   
    15    8    9 1   
    16    9   10 1   
    17   10   11 1   
    18   10   14 2   
    19   11   12 1   
    20   11   20 1   
    21   12   13 2   
    22   12   21 1   
    23   13   14 1   
    24   13   22 1   
@<TRIPOS>SUBSTRUCTURE
     1 XCG         1 TEMP              0 ****  ****    0 ROOT
