@<TRIPOS>MOLECULE
XCL
   35    36     1     0     0
SMALL
bcc


@<TRIPOS>ATOM
      1 P           2.0770    1.4250    1.0470 p5        1 XCL      1.334900
      2 OP1         1.9900    0.4890    2.2300 o         1 XCL     -0.919500
      3 OP2         3.3170    2.2500    0.9150 o         1 XCL     -0.919500
      4 O5'         2.1590    0.2970   -0.2610 os        1 XCL     -0.575200
      5 C5'         2.4440   -1.0050    0.0440 c3        1 XCL      0.235400
      6 C4'         1.1920   -1.9240    0.0050 c3        1 XCL     -0.113500
      7 C6'         0.5430   -1.8520   -1.3250 c2        1 XCL     -0.064200
      8 C7'        -0.7640   -1.6740   -1.5320 c2        1 XCL     -0.252200
      9 C3'         0.2370   -1.5360    1.1400 c3        1 XCL      0.142100
     10 O3'         0.7060   -2.0850    2.3650 oh        1 XCL     -0.668800
     11 C2'        -1.1750   -2.0500    0.9060 c3        1 XCL     -0.083400
     12 C1'        -1.7720   -1.5630   -0.4250 c3        1 XCL      0.146900
     13 C6         -1.6380    0.8940   -0.1220 cc        1 XCL      0.085600
     14 C5         -2.2390    2.1430   -0.0750 cd        1 XCL     -0.444600
     15 C4         -3.6490    2.2400   -0.3140 cd        1 XCL      0.695500
     16 N4         -4.2640    3.5020   -0.2090 nh        1 XCL     -0.894800
     17 N3         -4.4100    1.1580   -0.6000 nc        1 XCL     -0.773100
     18 C2         -3.7950   -0.0970   -0.6060 c         1 XCL      0.810900
     19 O2         -4.4710   -1.1340   -0.8410 o         1 XCL     -0.713500
     20 N1         -2.3820   -0.2320   -0.3600 n         1 XCL     -0.348000
     21 OP3         0.7520    2.0590    0.6940 o         1 XCL     -0.919500
     22 H5'         2.8990   -1.0970    1.0710 h1        1 XCL     -0.005300
     23 H5''        3.1690   -1.4140   -0.7240 h1        1 XCL     -0.005300
     24 H4'         1.5410   -2.9810    0.1740 hc        1 XCL      0.028700
     25 H6'         1.2360   -1.9260   -2.1800 ha        1 XCL      0.103000
     26 H7'        -1.1790   -1.5920   -2.5480 ha        1 XCL      0.101000
     27 H3'         0.2450   -0.4030    1.2340 h1        1 XCL      0.118700
     28 HO3'        1.3050   -1.4020    2.7290 ho        1 XCL      0.472000
     29 H2'        -1.8220   -1.7460    1.7670 hc        1 XCL      0.037200
     30 H2''       -1.1610   -3.1710    0.8740 hc        1 XCL      0.037200
     31 H1'        -2.6200   -2.2780   -0.6750 h1        1 XCL      0.071700
     32 H6         -0.4970    0.8720    0.0530 h4        1 XCL      0.311000
     33 H5         -1.5920    2.9990    0.1690 ha        1 XCL      0.199000
     34 HN41       -5.1370    3.5990   -0.6760 hn        1 XCL      0.385300
     35 HN42       -3.6320    4.2530   -0.3790 hn        1 XCL      0.385300
@<TRIPOS>BOND
     1    1    2 1   
     2    1    3 1   
     3    1    4 1   
     4    1   21 1   
     5    4    5 1   
     6    5    6 1   
     7    5   22 1   
     8    5   23 1   
     9    6    7 1   
    10    6    9 1   
    11    6   24 1   
    12    7    8 2   
    13    7   25 1   
    14    8   12 1   
    15    8   26 1   
    16    9   10 1   
    17    9   11 1   
    18    9   27 1   
    19   10   28 1   
    20   11   12 1   
    21   11   29 1   
    22   11   30 1   
    23   12   20 1   
    24   12   31 1   
    25   13   14 2   
    26   13   20 1   
    27   13   32 1   
    28   14   15 1   
    29   14   33 1   
    30   15   16 1   
    31   15   17 2   
    32   16   34 1   
    33   16   35 1   
    34   17   18 1   
    35   18   19 2   
    36   18   20 1   
@<TRIPOS>SUBSTRUCTURE
     1 XCL         1 TEMP              0 ****  ****    0 ROOT
