@<TRIPOS>MOLECULE
XCN
   14    13     1     0     0
SMALL
bcc


@<TRIPOS>ATOM
      1 C           2.2180   -0.4080    0.0950 c         1 XCN      0.898600
      2 N           1.0590    1.8360   -0.2760 n3        1 XCN     -0.887800
      3 O           3.2440    0.1400   -0.3920 o         1 XCN     -0.825800
      4 CA          0.9420    0.4990    0.2890 c3        1 XCN      0.008500
      5 CB         -0.2540   -0.2760   -0.2370 c3        1 XCN      0.002700
      6 NC         -3.8190   -1.1750   -0.1740 n1        1 XCN     -0.412800
      7 SG         -1.7090    0.5500    0.3810 ss        1 XCN     -0.070200
      8 CS         -2.9080   -0.4720    0.0470 c1        1 XCN      0.207900
      9 OXT         2.1300   -1.6090    0.4590 o         1 XCN     -0.825800
     10 HN          1.9490    2.2040    0.0200 hn        1 XCN      0.337800
     11 HNX         1.1060    1.7580   -1.2770 hn        1 XCN      0.337800
     12 HA          0.8250    0.6260    1.4070 h1        1 XCN      0.059700
     13 HB         -0.2720   -0.3040   -1.3510 h1        1 XCN      0.084200
     14 HBA        -0.1850   -1.3250    0.1460 h1        1 XCN      0.084200
@<TRIPOS>BOND
     1    1    3 1   
     2    1    4 1   
     3    1    9 1   
     4    2    4 1   
     5    2   10 1   
     6    2   11 1   
     7    4    5 1   
     8    4   12 1   
     9    5    7 1   
    10    5   13 1   
    11    5   14 1   
    12    6    8 3   
    13    7    8 1   
@<TRIPOS>SUBSTRUCTURE
     1 XCN         1 TEMP              0 ****  ****    0 ROOT
