@<TRIPOS>MOLECULE
XCP
   19    19     1     0     0
SMALL
bcc


@<TRIPOS>ATOM
      1 N          -1.0540   -2.1260    0.1070 n3        1 XCP     -0.903800
      2 CB         -0.9670   -0.7460   -0.3240 c3        1 XCP      0.172500
      3 CG         -2.2720    0.0640   -0.1930 c3        1 XCP     -0.076400
      4 CD         -1.8460    1.5250   -0.1200 c3        1 XCP     -0.079400
      5 CE         -0.3510    1.5550    0.1890 c3        1 XCP     -0.063400
      6 CA          0.0910    0.1180    0.4050 c3        1 XCP     -0.215700
      7 C           1.4990   -0.2280   -0.1120 c         1 XCP      0.915600
      8 O           1.8420   -1.4460   -0.0380 o         1 XCP     -0.848800
      9 HN         -0.1510   -2.5470   -0.0560 hn        1 XCP      0.348300
     10 HB         -0.6860   -0.7730   -1.4190 h1        1 XCP      0.059700
     11 HG         -2.9430   -0.1240   -1.0660 hc        1 XCP      0.022700
     12 HGA        -2.8320   -0.2240    0.7320 hc        1 XCP      0.022700
     13 HD         -2.0530    2.0400   -1.0910 hc        1 XCP      0.015200
     14 HDA        -2.4280    2.0630    0.6690 hc        1 XCP      0.015200
     15 HE          0.2290    1.9980   -0.6610 hc        1 XCP      0.043700
     16 HEA        -0.1430    2.1770    1.0940 hc        1 XCP      0.043700
     17 HA          0.0800   -0.1140    1.5030 hc        1 XCP      0.029700
     18 HNA        -1.2250   -2.1550    1.0960 hn        1 XCP      0.348300
     19 OXT         2.2390    0.6870   -0.5680 o         1 XCP     -0.848800
@<TRIPOS>BOND
     1    1    2 1   
     2    1    9 1   
     3    1   18 1   
     4    2    3 1   
     5    2    6 1   
     6    2   10 1   
     7    3    4 1   
     8    3   11 1   
     9    3   12 1   
    10    4    5 1   
    11    4   13 1   
    12    4   14 1   
    13    5    6 1   
    14    5   15 1   
    15    5   16 1   
    16    6    7 1   
    17    6   17 1   
    18    7    8 1   
    19    7   19 1   
@<TRIPOS>SUBSTRUCTURE
     1 XCP         1 TEMP              0 ****  ****    0 ROOT
