@<TRIPOS>MOLECULE
XCR
   35    34     1     0     0
SMALL
bcc


@<TRIPOS>ATOM
      1 P          -4.4730    1.4160    2.7940 p3        1 XCR      2.523000
      2 N1          1.5880   -0.9310   -0.9070 n         1 XCR     -0.226000
      3 C2          0.6310   -2.0210   -0.9930 c2        1 XCR      0.339000
      4 O2         -0.3070   -2.0390   -0.2750 o         1 XCR     -0.327000
      5 N3          0.8030   -3.0770   -2.0020 n2        1 XCR     -0.308000
      6 C4          1.9710   -3.1240   -2.7760 c1        1 XCR      0.184000
      7 N4          2.2370   -4.2400   -3.5640 n2        1 XCR     -0.332000
      8 C5          2.9880   -2.0650   -2.6320 c2        1 XCR     -0.388000
      9 C6          2.7690   -0.9660   -1.6810 c2        1 XCR      0.084000
     10 C1'         1.3430    0.1800   -0.0070 c3        1 XCR      0.060000
     11 C2'         0.1970    1.2060   -0.6350 c3        1 XCR     -0.173000
     12 C3'        -0.1490    2.1510    0.1050 c3        1 XCR      0.075000
     13 O3'         1.0480    3.0430    0.3170 oh        1 XCR     -0.417000
     14 C4'        -0.7630    1.7020    1.6490 c3        1 XCR     -0.196000
     15 C5'        -2.2170    1.1370    1.5480 c3        1 XCR      0.101000
     16 O5'        -2.8960    1.3270    2.8010 o         1 XCR     -0.726000
     17 C6'         0.1030    0.8020    2.3340 c2        1 XCR     -0.060000
     18 C7'         0.9870   -0.3060    1.3340 c2        1 XCR     -0.278000
     19 OP1        -4.9920    1.3850    4.2270 o         1 XCR     -1.250333
     20 OP2        -4.8990    2.7000    2.1320 o         1 XCR     -1.250333
     21 OP3        -5.0360    0.2490    2.0310 o         1 XCR     -1.250333
     22 HN4         1.6320   -4.9190   -3.6090 hn        1 XCR      0.190000
     23 HN4A        2.9880   -4.2690   -4.0650 hn        1 XCR      0.190000
     24 H5          3.7950   -2.0920   -3.1630 ha        1 XCR      0.142000
     25 H6          3.4350   -0.3270   -1.5460 h4        1 XCR      0.167000
     26 H1'         2.2010    0.5980    0.0030 h1        1 XCR      0.114000
     27 H2'         0.5560    1.5920   -1.4910 hc        1 XCR      0.086500
     28 H2'A       -0.5660    0.7010   -0.8370 hc        1 XCR      0.086500
     29 H3'        -0.8580    2.6810   -0.3730 h1        1 XCR      0.064000
     30 HO3'        0.8210    3.9200    0.1170 ho        1 XCR      0.314000
     31 H4'        -0.9160    2.5050    2.1990 hc        1 XCR      0.159000
     32 H5'        -2.7080    1.6140    0.8310 h1        1 XCR      0.028500
     33 H5'A       -2.1820    0.1780    1.3370 h1        1 XCR      0.028500
     34 H6'        -0.0670    0.5810    3.2840 ha        1 XCR      0.130000
     35 H7'         0.9360   -1.2900    1.5120 ha        1 XCR      0.116000
@<TRIPOS>BOND
     1    1   19 1   
     2    1   20 1   
     3    1   21 1   
     4    2    3 1   
     5    2    9 1   
     6    2   10 1   
     7    3    4 1   
     8    3    5 1   
     9    5    6 1   
    10    6    8 1   
    11    7   22 1   
    12    7   23 1   
    13    8    9 1   
    14    8   24 1   
    15    9   25 1   
    16   10   11 1   
    17   10   18 1   
    18   10   26 1   
    19   11   12 1   
    20   11   27 1   
    21   11   28 1   
    22   12   13 1   
    23   12   14 1   
    24   12   29 1   
    25   13   30 1   
    26   14   15 1   
    27   14   17 1   
    28   14   31 1   
    29   15   16 1   
    30   15   32 1   
    31   15   33 1   
    32   17   18 1   
    33   17   34 1   
    34   18   35 1   
@<TRIPOS>SUBSTRUCTURE
     1 XCR         1 TEMP              0 ****  ****    0 ROOT
