@<TRIPOS>MOLECULE
XCR
   35    36     1     0     0
SMALL
bcc


@<TRIPOS>ATOM
      1 P          -2.0300   -1.4540   -1.0580 p5        1 XCR      1.334900
      2 N1          2.4250    0.2360    0.3210 n         1 XCR     -0.348000
      3 C2          3.8420    0.1140    0.5500 c         1 XCR      0.810900
      4 O2          4.5090    1.1560    0.7910 o         1 XCR     -0.713500
      5 N3          4.4720   -1.1330    0.5220 nc        1 XCR     -0.773100
      6 C4          3.7200   -2.2200    0.2300 cd        1 XCR      0.695500
      7 N4          4.3480   -3.4740    0.1030 nh        1 XCR     -0.894800
      8 C5          2.3060   -2.1360    0.0080 cd        1 XCR     -0.444600
      9 C6          1.6920   -0.8960    0.0770 cc        1 XCR      0.085600
     10 C1'         1.8010    1.5590    0.4100 c3        1 XCR      0.146900
     11 C2'         1.1840    2.0560   -0.9080 c3        1 XCR     -0.083400
     12 C3'        -0.2250    1.5280   -1.1340 c3        1 XCR      0.142100
     13 O3'        -0.7130    2.0870   -2.3460 oh        1 XCR     -0.668800
     14 C4'        -1.1720    1.8910    0.0170 c3        1 XCR     -0.113500
     15 C5'        -2.4130    0.9580   -0.0210 c3        1 XCR      0.235400
     16 O5'        -2.1100   -0.3440    0.2650 os        1 XCR     -0.575200
     17 C6'        -0.5070    1.8090    1.3380 c2        1 XCR     -0.064200
     18 C7'         0.8040    1.6440    1.5290 c2        1 XCR     -0.252200
     19 OP1        -3.2580   -2.2950   -0.9240 o         1 XCR     -0.919500
     20 OP2        -1.9660   -0.5030   -2.2310 o         1 XCR     -0.919500
     21 OP3        -0.6930   -2.0780   -0.7280 o         1 XCR     -0.919500
     22 HN4         5.2280   -3.5660    0.5590 hn        1 XCR      0.385300
     23 HN4A        3.7270   -4.2340    0.2700 hn        1 XCR      0.385300
     24 H5          1.6670   -2.9970   -0.2400 ha        1 XCR      0.199000
     25 H6          0.5490   -0.8840   -0.0850 h4        1 XCR      0.311000
     26 H1'         2.6440    2.2810    0.6600 h1        1 XCR      0.071700
     27 H2'         1.1570    3.1760   -0.8620 hc        1 XCR      0.037200
     28 H2'A        1.8250    1.7700   -1.7800 hc        1 XCR      0.037200
     29 H3'        -0.2210    0.3970   -1.2420 h1        1 XCR      0.118700
     30 HO3'       -1.3080    1.4020   -2.7130 ho        1 XCR      0.472000
     31 H4'        -1.5340    2.9460   -0.1350 hc        1 XCR      0.028700
     32 H5'        -3.1350    1.3500    0.7590 h1        1 XCR     -0.005300
     33 H5'A       -2.8800    1.0580   -1.0420 h1        1 XCR     -0.005300
     34 H6'        -1.1920    1.8650    2.2010 ha        1 XCR      0.103000
     35 H7'         1.2310    1.5540    2.5390 ha        1 XCR      0.101000
@<TRIPOS>BOND
     1    1   16 1   
     2    1   19 1   
     3    1   20 1   
     4    1   21 1   
     5    2    3 1   
     6    2    9 1   
     7    2   10 1   
     8    3    4 2   
     9    3    5 1   
    10    5    6 2   
    11    6    7 1   
    12    6    8 1   
    13    7   22 1   
    14    7   23 1   
    15    8    9 2   
    16    8   24 1   
    17    9   25 1   
    18   10   11 1   
    19   10   18 1   
    20   10   26 1   
    21   11   12 1   
    22   11   27 1   
    23   11   28 1   
    24   12   13 1   
    25   12   14 1   
    26   12   29 1   
    27   13   30 1   
    28   14   15 1   
    29   14   17 1   
    30   14   31 1   
    31   15   16 1   
    32   15   32 1   
    33   15   33 1   
    34   17   18 2   
    35   17   34 1   
    36   18   35 1   
@<TRIPOS>SUBSTRUCTURE
     1 XCR         1 TEMP              0 ****  ****    0 ROOT
