@<TRIPOS>MOLECULE
XCS
   41    43     1     0     0
SMALL
bcc


@<TRIPOS>ATOM
      1 P          -0.0610    4.3090   -2.2820 p5        1 XCS      1.337900
      2 OP2         0.3620    5.3000   -3.3210 o         1 XCS     -0.928833
      3 C6          2.6350    0.4210    2.2260 ca        1 XCS      0.104600
      4 C2          3.2710   -1.5140    3.5800 c         1 XCS      0.835900
      5 O2          3.6460   -2.7130    3.5760 o         1 XCS     -0.683500
      6 N3          3.0710   -0.7970    4.7720 nc        1 XCS     -0.751100
      7 C4          2.7030    0.4880    4.6930 cd        1 XCS      0.738800
      8 N4          2.5790    1.2060    5.8840 nh        1 XCS     -0.904800
      9 C5          2.4700    1.1800    3.4190 ca        1 XCS     -0.294900
     10 OP1        -1.5280    4.0930   -2.0540 o         1 XCS     -0.928833
     11 O5'         0.3990    2.7810   -2.9870 os        1 XCS     -0.554200
     12 C5'         0.1980    1.7130   -2.1620 c3        1 XCS      0.234400
     13 C4'         1.3730    0.7140   -2.2840 c3        1 XCS      0.067100
     14 O4'         2.4960    1.0800   -1.4580 os        1 XCS     -0.393600
     15 C1'         2.5810    0.2470   -0.3010 c3        1 XCS      0.192400
     16 ND          3.0390   -0.9060    2.3280 n         1 XCS     -0.470100
     17 CP          2.0920    2.5350    3.3210 ca        1 XCS     -0.117000
     18 CD          2.0040    2.3670    0.9060 ca        1 XCS     -0.005000
     19 C8          2.3880    1.0350    0.9620 ca        1 XCS     -0.180300
     20 C7          1.8610    3.1260    2.0930 ca        1 XCS     -0.068300
     21 C7A         1.4610    4.5470    1.9820 c3        1 XCS     -0.096800
     22 C2'         1.5740   -0.8990   -0.4660 c3        1 XCS     -0.145400
     23 C3'         0.9730   -0.7140   -1.8660 c3        1 XCS      0.110100
     24 O3'         1.4630   -1.7070   -2.7560 oh        1 XCS     -0.621800
     25 OP3         0.7610    4.2710   -1.0080 o         1 XCS     -0.928833
     26 HN41        1.9640    1.9840    5.8490 hn        1 XCS      0.408800
     27 HN42        2.5460    0.6790    6.7260 hn        1 XCS      0.408800
     28 H5'1        0.0830    2.0320   -1.0880 h1        1 XCS     -0.000800
     29 H5'2       -0.7250    1.1310   -2.4760 h1        1 XCS     -0.000800
     30 H4'         1.7760    0.7500   -3.3320 h1        1 XCS      0.075700
     31 H1'         3.6400   -0.1510   -0.3140 h1        1 XCS      0.026700
     32 HD          1.7750    2.8790   -0.0820 ha        1 XCS      0.300000
     33 H7A1        2.3610    5.2040    2.0750 hc        1 XCS      0.070700
     34 H7A2        0.9890    4.7350    0.9650 hc        1 XCS      0.070700
     35 H7A3        0.7390    4.8210    2.7890 hc        1 XCS      0.070700
     36 H2'1        2.0750   -1.8940   -0.3830 hc        1 XCS      0.049700
     37 H2'2        0.7720   -0.8380    0.3080 hc        1 XCS      0.049700
     38 H3'        -0.1390   -0.8620   -1.8690 h1        1 XCS      0.087700
     39 HO3'        2.3620   -1.4520   -2.9920 ho        1 XCS      0.393000
     40 HND         3.1420   -1.4540    1.5040 hn        1 XCS      0.334500
     41 HP          1.9800    3.1530    4.2240 ha        1 XCS      0.107000
@<TRIPOS>BOND
     1    1    2 1   
     2    1   10 1   
     3    1   11 1   
     4    1   25 1   
     5    3    9 ar  
     6    3   16 1   
     7    3   19 ar  
     8    4    5 2   
     9    4    6 1   
    10    4   16 1   
    11    6    7 2   
    12    7    8 1   
    13    7    9 1   
    14    8   26 1   
    15    8   27 1   
    16    9   17 ar  
    17   11   12 1   
    18   12   13 1   
    19   12   28 1   
    20   12   29 1   
    21   13   14 1   
    22   13   23 1   
    23   13   30 1   
    24   14   15 1   
    25   15   19 1   
    26   15   22 1   
    27   15   31 1   
    28   16   40 1   
    29   17   20 ar  
    30   17   41 1   
    31   18   19 ar  
    32   18   20 ar  
    33   18   32 1   
    34   20   21 1   
    35   21   33 1   
    36   21   34 1   
    37   21   35 1   
    38   22   23 1   
    39   22   36 1   
    40   22   37 1   
    41   23   24 1   
    42   23   38 1   
    43   24   39 1   
@<TRIPOS>SUBSTRUCTURE
     1 XCS         1 TEMP              0 ****  ****    0 ROOT
