@<TRIPOS>MOLECULE
XCS
   41    37     1     0     0
SMALL
bcc


@<TRIPOS>ATOM
      1 P           3.7040    1.7090    2.1260 p3        1 XCS      2.520000
      2 OP2         3.8460    2.5480    0.8780 o         1 XCS     -1.244000
      3 C6         -0.7800   -0.2560   -1.5520 c1        1 XCS      0.117000
      4 C2         -0.9610    0.9200   -3.7680 c1        1 XCS      0.352000
      5 O2         -1.0910    1.9520   -4.4060 o         1 XCS     -0.414000
      6 N3         -0.6410   -0.3000   -4.4410 n1        1 XCS     -0.326000
      7 C4         -0.3950   -1.4640   -3.7010 c1        1 XCS      0.213000
      8 N4         -0.0580   -2.6620   -4.3630 n2        1 XCS     -0.344000
      9 C5         -0.4710   -1.4290   -2.1940 c2        1 XCS     -0.212000
     10 OP1         4.5630    2.2900    3.2250 o         1 XCS     -1.244000
     11 O5'         2.1940    1.7010    2.5870 os        1 XCS     -0.735000
     12 C5'         1.2190    1.2270    1.6860 c3        1 XCS      0.079000
     13 C4'         0.1250    2.2520    1.5460 c3        1 XCS     -0.041000
     14 O4'        -0.6040    2.0930    0.1170 os        1 XCS     -0.280000
     15 C1'        -1.4620    1.1280    0.2540 c3        1 XCS      0.081000
     16 ND         -1.0940    0.9390   -2.3300 n2        1 XCS     -0.320000
     17 CP         -0.1980   -2.5910   -1.4440 c1        1 XCS     -0.122000
     18 CD         -0.5550   -1.3600    0.5970 c1        1 XCS      0.005000
     19 C8         -0.8240   -0.2140   -0.1410 c1        1 XCS     -0.155000
     20 C7         -0.2410   -2.5490   -0.0540 c1        1 XCS     -0.060000
     21 C7A         0.1870   -3.8470    0.5860 c3        1 XCS     -0.222000
     22 C2'        -1.8310    1.1270    1.7590 c3        1 XCS     -0.188000
     23 C3'        -0.7850    2.0540    2.4430 c3        1 XCS      0.007000
     24 O3'        -1.4150    3.3430    2.8300 oh        1 XCS     -0.382000
     25 OP3         4.1490    0.2940    1.8350 os        1 XCS     -1.248000
     26 HN41       -0.1360   -2.7200   -5.2650 hn        1 XCS      0.202000
     27 HN42        0.2690   -3.3680   -3.8880 hn        1 XCS      0.202000
     28 H5'1        0.8410    0.3900    2.0250 h1        1 XCS      0.040500
     29 H5'2        1.6300    1.0700    0.8160 h1        1 XCS      0.040500
     30 H4'         0.4950    3.1540    1.6360 h1        1 XCS      0.050000
     31 H1'        -2.2560    1.3000   -0.2900 h1        1 XCS      0.051000
     32 HND        -1.3400    1.7080   -1.9040 hn        1 XCS      0.248000
     33 HP          0.0240   -3.4320   -1.9040 ha        1 XCS      0.105000
     34 HD         -0.5850   -1.3310    1.5740 ha        1 XCS      0.280000
     35 H7A1       -0.2450   -3.9370    1.4590 hc        1 XCS      0.110667
     36 H7A2        1.1610   -3.8490    0.7020 hc        1 XCS      0.110667
     37 H7A3       -0.0760   -4.5970    0.0120 hc        1 XCS      0.110667
     38 H2'1       -1.7680    0.2180    2.1230 hc        1 XCS      0.081000
     39 H2'2       -2.7330    1.4830    1.8870 hc        1 XCS      0.081000
     40 H3'        -0.4000    1.6120    3.2290 h1        1 XCS      0.180000
     41 HO3'       -1.4640    3.3950    3.7130 ho        1 XCS      0.272000
@<TRIPOS>BOND
     1    1    2 1   
     2    1   10 1   
     3    1   11 1   
     4    3    9 1   
     5    3   19 1   
     6    4    5 1   
     7    4   16 1   
     8    6    7 1   
     9    7    9 1   
    10    8   26 1   
    11    8   27 1   
    12    9   17 1   
    13   11   12 1   
    14   12   13 1   
    15   12   28 1   
    16   12   29 1   
    17   13   14 1   
    18   13   23 1   
    19   13   30 1   
    20   14   15 1   
    21   15   19 1   
    22   15   22 1   
    23   15   31 1   
    24   16   32 1   
    25   17   33 1   
    26   18   20 1   
    27   18   34 1   
    28   20   21 1   
    29   21   35 1   
    30   21   36 1   
    31   21   37 1   
    32   22   23 1   
    33   22   38 1   
    34   22   39 1   
    35   23   24 1   
    36   23   40 1   
    37   24   41 1   
@<TRIPOS>SUBSTRUCTURE
     1 XCS         1 TEMP              0 ****  ****    0 ROOT
