@<TRIPOS>MOLECULE
XCT
   35    36     1     0     0
SMALL
bcc


@<TRIPOS>ATOM
      1 OP3        -4.7920    0.3130   -0.0050 o         1 XCT     -0.915167
      2 P          -4.2660   -0.1750   -1.3230 p5        1 XCT      1.325900
      3 OP1        -3.8900   -1.6440   -1.3340 o         1 XCT     -0.915167
      4 OP2        -4.8670    0.3790   -2.5760 o         1 XCT     -0.915167
      5 O6'        -2.6520    0.4890   -1.3080 os        1 XCT     -0.556200
      6 C6'        -1.9690    0.2190   -0.1570 c3        1 XCT      0.232400
      7 C5'        -0.9120   -0.9020   -0.3810 c3        1 XCT      0.066100
      8 O5'         0.3660   -0.2490   -0.2180 os        1 XCT     -0.456600
      9 C4'        -1.0510   -2.0400    0.6380 c3        1 XCT      0.160100
     10 O4'        -2.2240   -2.7900    0.4880 oh        1 XCT     -0.686800
     11 C3'         0.1400   -3.0000    0.5120 c3        1 XCT     -0.103400
     12 C2'         1.4480   -2.2530    0.6390 c3        1 XCT     -0.110400
     13 C1'         1.4740   -1.1250   -0.4090 c3        1 XCT      0.304500
     14 N1          2.6910   -0.2920   -0.3300 n         1 XCT     -0.350000
     15 C2          3.9660   -0.8610   -0.6870 c         1 XCT      0.823900
     16 O2          4.0040   -2.0490   -1.0750 o         1 XCT     -0.637500
     17 C6          2.6330    1.0100    0.0650 cc        1 XCT      0.110600
     18 C5          3.7670    1.7940    0.1540 cd        1 XCT     -0.480600
     19 C4          5.0350    1.1910   -0.1960 cd        1 XCT      0.718500
     20 N3          5.1380   -0.0920   -0.5820 nc        1 XCT     -0.743100
     21 N4          6.1810    2.0000   -0.1740 nh        1 XCT     -0.898800
     22 H6'1       -2.6670   -0.1130    0.6660 h1        1 XCT      0.012200
     23 H6'2       -1.4090    1.1410    0.1830 h1        1 XCT      0.012200
     24 H5'        -0.9910   -1.3030   -1.4270 h1        1 XCT      0.082700
     25 H4'        -1.0440   -1.6000    1.6790 h1        1 XCT      0.006700
     26 H4T        -2.8620   -2.3110   -0.1350 ho        1 XCT      0.525000
     27 H3'1        0.0820   -3.5200   -0.4790 hc        1 XCT      0.041200
     28 H3'2        0.0710   -3.7830    1.3080 hc        1 XCT      0.041200
     29 H2'1        2.3160   -2.9400    0.4650 hc        1 XCT      0.042700
     30 H2'2        1.5380   -1.8190    1.6680 hc        1 XCT      0.042700
     31 H1'         1.4470   -1.5680   -1.4500 h2        1 XCT      0.073700
     32 H6          1.6270    1.4200    0.3090 h4        1 XCT      0.208000
     33 H5          3.6940    2.8440    0.4520 ha        1 XCT      0.145000
     34 HN41        7.0560    1.5290   -0.2090 hn        1 XCT      0.398300
     35 HN42        6.1360    2.7420    0.4840 hn        1 XCT      0.398300
@<TRIPOS>BOND
     1    1    2 1   
     2    2    3 1   
     3    2    4 1   
     4    2    5 1   
     5    5    6 1   
     6    6    7 1   
     7    6   22 1   
     8    6   23 1   
     9    7    8 1   
    10    7    9 1   
    11    7   24 1   
    12    8   13 1   
    13    9   10 1   
    14    9   11 1   
    15    9   25 1   
    16   10   26 1   
    17   11   12 1   
    18   11   27 1   
    19   11   28 1   
    20   12   13 1   
    21   12   29 1   
    22   12   30 1   
    23   13   14 1   
    24   13   31 1   
    25   14   15 1   
    26   14   17 1   
    27   15   16 2   
    28   15   20 1   
    29   17   18 2   
    30   17   32 1   
    31   18   19 1   
    32   18   33 1   
    33   19   20 2   
    34   19   21 1   
    35   21   34 1   
    36   21   35 1   
@<TRIPOS>SUBSTRUCTURE
     1 XCT         1 TEMP              0 ****  ****    0 ROOT
