@<TRIPOS>MOLECULE
XCX
   65    67     1     0     0
SMALL
bcc


@<TRIPOS>ATOM
      1 N1V        -0.4170   -0.2790    0.7390 nc        1 XCX     -0.626100
      2 N2E         1.5530    0.2900   -0.6590 nh        1 XCX     -0.710600
      3 CAA         9.4080    4.0370   -1.6090 c3        1 XCX     -0.091100
      4 CAB        -1.5770   -1.3870   -9.9620 c3        1 XCX     -0.086100
      5 CAC        -2.8360   -2.3820   -8.0480 c3        1 XCX     -0.086100
      6 OAD        -1.6580    1.1060   -8.5120 o         1 XCX     -0.819300
      7 OAE        -3.4720    0.2310   -7.5410 o         1 XCX     -0.819300
      8 CAF        -1.4030   -0.6670    4.3470 ca        1 XCX     -0.139000
      9 CAG        -0.1390   -0.4450    4.9050 ca        1 XCX     -0.143000
     10 CAH         1.2720   -1.8850   -4.7770 ca        1 XCX     -0.098000
     11 CAI        -0.9000   -0.9810   -4.2470 ca        1 XCX     -0.098000
     12 CAJ         0.9310   -1.9330   -6.1210 ca        1 XCX     -0.195500
     13 CAK        -1.2610   -1.0150   -5.5880 ca        1 XCX     -0.195500
     14 CAL        -1.6250   -0.6360    2.9700 ca        1 XCX     -0.096000
     15 CAM         0.9760   -0.1790    4.1050 ca        1 XCX     -0.109000
     16 CAN         7.9050    4.1330   -1.5700 c3        1 XCX     -0.080400
     17 CAO         7.2680    2.7870   -1.2970 c3        1 XCX     -0.078400
     18 CAP         5.7580    2.8890   -1.2600 c3        1 XCX     -0.079400
     19 CAQ         5.1240    1.5420   -0.9870 c3        1 XCX     -0.078400
     20 CAR         3.6150    1.6520   -0.9490 c3        1 XCX     -0.093400
     21 CAS         0.7360   -1.3650   -2.3860 c3        1 XCX     -0.043100
     22 CAT         3.0040    0.2750   -0.6770 c3        1 XCX      0.209800
     23 CAU         0.8700    0.0910   -1.9250 c3        1 XCX      0.209800
     24 OAW        -0.5440   -1.5940   -7.8880 os        1 XCX     -0.329900
     25 OAX         1.6780    0.0910    1.7220 os        1 XCX     -0.339700
     26 CAY        -2.3610    0.1340   -8.1350 c         1 XCX      0.904600
     27 CAZ         0.3640   -1.4110   -3.8230 ca        1 XCX     -0.169300
     28 CBA        -0.3460   -1.4940   -6.5410 ca        1 XCX      0.187100
     29 CBB         0.8870    0.0030    0.5120 cd        1 XCX      0.767500
     30 CBC        -0.5340   -0.3730    2.1390 ca        1 XCX      0.105400
     31 CBD         0.7540   -0.1480    2.7400 ca        1 XCX      0.010100
     32 CBF        -1.8460   -1.3090   -8.4620 c3        1 XCX      0.021800
     33 HAA         9.8050    3.6630   -0.6340 hc        1 XCX      0.030700
     34 HAAA        9.7370    3.3350   -2.4130 hc        1 XCX      0.030700
     35 HAAB        9.8560    5.0400   -1.8110 hc        1 XCX      0.030700
     36 HAB        -0.8980   -0.5500  -10.2550 hc        1 XCX      0.033533
     37 HABA       -1.1020   -2.3600  -10.2310 hc        1 XCX      0.033533
     38 HABB       -2.5450   -1.2830  -10.5040 hc        1 XCX      0.033533
     39 HAC        -2.9110   -2.4360   -6.9360 hc        1 XCX      0.033533
     40 HACA       -3.8420   -2.1160   -8.4520 hc        1 XCX      0.033533
     41 HACB       -2.5250   -3.3800   -8.4380 hc        1 XCX      0.033533
     42 HAF        -2.2520   -0.8730    5.0170 ha        1 XCX      0.127000
     43 HAG        -0.0160   -0.4800    5.9970 ha        1 XCX      0.127000
     44 HAH         2.2690   -2.2250   -4.4600 ha        1 XCX      0.115000
     45 HAI        -1.6200   -0.6040   -3.5050 ha        1 XCX      0.115000
     46 HAJ         1.6430   -2.2980   -6.8720 ha        1 XCX      0.166000
     47 HAK        -2.2520   -0.6370   -5.9060 ha        1 XCX      0.166000
     48 HAL        -2.6240   -0.8120    2.5490 ha        1 XCX      0.150000
     49 HAM         1.9700   -0.0030    4.5330 ha        1 XCX      0.142000
     50 HAN         7.5930    4.8620   -0.7750 hc        1 XCX      0.039700
     51 HANA        7.5270    4.5320   -2.5490 hc        1 XCX      0.039700
     52 HAO         7.5760    2.0580   -2.0930 hc        1 XCX      0.038200
     53 HAOA        7.6430    2.3860   -0.3190 hc        1 XCX      0.038200
     54 HAP         5.4500    3.6180   -0.4650 hc        1 XCX      0.043200
     55 HAPA        5.3840    3.2900   -2.2390 hc        1 XCX      0.043200
     56 HAQ         5.4990    1.1410   -0.0090 hc        1 XCX      0.039200
     57 HAQA        5.4310    0.8150   -1.7840 hc        1 XCX      0.039200
     58 HAR         3.2390    2.0530   -1.9270 hc        1 XCX      0.055200
     59 HARA        3.3050    2.3730   -0.1490 hc        1 XCX      0.055200
     60 HAS         1.7010   -1.9150   -2.2220 hc        1 XCX      0.044700
     61 HASA       -0.0500   -1.8770   -1.7690 hc        1 XCX      0.044700
     62 HAT         3.4030   -0.1070    0.3060 h1        1 XCX      0.056200
     63 HATA        3.3450   -0.4380   -1.4840 h1        1 XCX      0.056200
     64 HAU         1.4560    0.6710   -2.6950 h1        1 XCX      0.076700
     65 HAUA       -0.1590    0.5450   -1.8530 h1        1 XCX      0.076700
@<TRIPOS>BOND
     1    1   29 2   
     2    1   30 1   
     3    2   22 1   
     4    2   23 1   
     5    2   29 1   
     6    3   16 1   
     7    3   33 1   
     8    3   34 1   
     9    3   35 1   
    10    4   32 1   
    11    4   36 1   
    12    4   37 1   
    13    4   38 1   
    14    5   32 1   
    15    5   39 1   
    16    5   40 1   
    17    5   41 1   
    18    6   26 1   
    19    7   26 1   
    20    8    9 ar  
    21    8   14 ar  
    22    8   42 1   
    23    9   15 ar  
    24    9   43 1   
    25   10   12 ar  
    26   10   27 ar  
    27   10   44 1   
    28   11   13 ar  
    29   11   27 ar  
    30   11   45 1   
    31   12   28 ar  
    32   12   46 1   
    33   13   28 ar  
    34   13   47 1   
    35   14   30 ar  
    36   14   48 1   
    37   15   31 ar  
    38   15   49 1   
    39   16   17 1   
    40   16   50 1   
    41   16   51 1   
    42   17   18 1   
    43   17   52 1   
    44   17   53 1   
    45   18   19 1   
    46   18   54 1   
    47   18   55 1   
    48   19   20 1   
    49   19   56 1   
    50   19   57 1   
    51   20   22 1   
    52   20   58 1   
    53   20   59 1   
    54   21   23 1   
    55   21   27 1   
    56   21   60 1   
    57   21   61 1   
    58   22   62 1   
    59   22   63 1   
    60   23   64 1   
    61   23   65 1   
    62   24   28 1   
    63   24   32 1   
    64   25   29 1   
    65   25   31 1   
    66   26   32 1   
    67   30   31 ar  
@<TRIPOS>SUBSTRUCTURE
     1 XCX         1 TEMP              0 ****  ****    0 ROOT
