@<TRIPOS>MOLECULE
XCX
   66    68     1     0     0
SMALL
bcc


@<TRIPOS>ATOM
      1 N1V        -0.1150    3.5120   -2.2490 nc        1 XCX     -0.616100
      2 N2E         1.4380    1.6090   -2.6870 nh        1 XCX     -0.668600
      3 CAA         9.3630    0.5690    0.9710 c3        1 XCX     -0.093100
      4 CAB        -1.8040   -5.5260   -5.4200 c3        1 XCX     -0.106600
      5 CAC        -1.3850   -3.7370   -3.7020 c3        1 XCX     -0.106600
      6 OAD        -3.2600   -2.4720   -6.3490 o         1 XCX     -0.539000
      7 OAE        -4.0840   -3.8570   -4.8390 oh        1 XCX     -0.611100
      8 CAF        -2.1360    5.0390    0.5340 ca        1 XCX     -0.138000
      9 CAG        -1.6850    4.2010    1.5610 ca        1 XCX     -0.128000
     10 CAH         0.2840   -0.0260   -5.8210 ca        1 XCX     -0.120500
     11 CAI         2.0270   -1.3970   -4.8560 ca        1 XCX     -0.120500
     12 CAJ        -0.4870   -1.1590   -6.0670 ca        1 XCX     -0.130500
     13 CAK         1.2680   -2.5410   -5.0910 ca        1 XCX     -0.130500
     14 CAL        -1.6890    4.9100   -0.7820 ca        1 XCX     -0.087000
     15 CAM        -0.7580    3.1830    1.3230 ca        1 XCX     -0.107000
     16 CAN         8.3480    1.4420    0.2810 c3        1 XCX     -0.080400
     17 CAO         7.0740    0.6810   -0.0210 c3        1 XCX     -0.079400
     18 CAP         6.0580    1.5630   -0.7150 c3        1 XCX     -0.079400
     19 CAQ         4.7860    0.8000   -1.0160 c3        1 XCX     -0.075400
     20 CAR         3.7720    1.6830   -1.7100 c3        1 XCX     -0.112400
     21 CAS         2.3630    1.0820   -4.9730 c3        1 XCX     -0.042100
     22 CAT         2.4990    0.8900   -2.0050 c3        1 XCX      0.182800
     23 CAU         1.7060    2.0960   -4.0350 c3        1 XCX      0.195800
     24 OAW        -0.6700   -3.5740   -6.0590 os        1 XCX     -0.328900
     25 OAX         0.6020    2.1400   -0.4990 os        1 XCX     -0.325700
     26 CAY        -3.0170   -3.3630   -5.5330 c         1 XCX      0.615100
     27 CAZ         1.5410   -0.1340   -5.2110 ca        1 XCX     -0.076300
     28 CBA         0.0100   -2.4150   -5.6960 ca        1 XCX      0.079100
     29 CBB         0.6670    2.4700   -1.9020 cd        1 XCX      0.731500
     30 CBC        -0.7600    3.9030   -1.0570 ca        1 XCX      0.089400
     31 CBD        -0.3150    3.0570    0.0170 ca        1 XCX      0.018100
     32 CBF        -1.6970   -4.0240   -5.1610 c3        1 XCX      0.129800
     33 HAA         9.6320   -0.3060    0.3310 hc        1 XCX      0.033033
     34 HAAA        8.9580    0.1830    1.9380 hc        1 XCX      0.033033
     35 HAAB       10.2930    1.1490    1.1850 hc        1 XCX      0.033033
     36 HAB        -0.8750   -6.0310   -5.0640 hc        1 XCX      0.060533
     37 HABA       -2.6880   -5.9310   -4.8720 hc        1 XCX      0.060533
     38 HABB       -1.9210   -5.7200   -6.5130 hc        1 XCX      0.060533
     39 HAC        -0.3940   -4.1790   -3.4390 hc        1 XCX      0.060533
     40 HACA       -2.1780   -4.1880   -3.0580 hc        1 XCX      0.060533
     41 HACB       -1.3470   -2.6370   -3.5160 hc        1 XCX      0.060533
     42 HAF        -2.8680    5.8260    0.7710 ha        1 XCX      0.134000
     43 HAG        -2.0700    4.3440    2.5820 ha        1 XCX      0.135000
     44 HAH        -0.1000    0.9640   -6.1100 ha        1 XCX      0.134000
     45 HAI         3.0190   -1.4940   -4.3900 ha        1 XCX      0.134000
     46 HAJ        -1.4740   -1.0830   -6.5520 ha        1 XCX      0.157000
     47 HAK         1.6490   -3.5360   -4.8200 ha        1 XCX      0.157000
     48 HAL        -2.0540    5.5750   -1.5760 ha        1 XCX      0.150000
     49 HAM        -0.4010    2.5220    2.1210 ha        1 XCX      0.149000
     50 HAN         8.7810    1.8400   -0.6750 hc        1 XCX      0.039200
     51 HANA        8.1090    2.3280    0.9280 hc        1 XCX      0.039200
     52 HAO         6.6390    0.2840    0.9330 hc        1 XCX      0.039700
     53 HAOA        7.3110   -0.2030   -0.6700 hc        1 XCX      0.039700
     54 HAP         5.8220    2.4470   -0.0670 hc        1 XCX      0.041700
     55 HAPA        6.4940    1.9600   -1.6700 hc        1 XCX      0.041700
     56 HAQ         4.3500    0.4040   -0.0610 hc        1 XCX      0.042200
     57 HAQA        5.0220   -0.0850   -1.6640 hc        1 XCX      0.042200
     58 HAR         4.2070    2.0830   -2.6630 hc        1 XCX      0.049700
     59 HARA        3.5270    2.5630   -1.0570 hc        1 XCX      0.049700
     60 HAS         2.5180    1.6130   -5.9540 hc        1 XCX      0.057700
     61 HASA        3.3790    0.8000   -4.5880 hc        1 XCX      0.057700
     62 HAT         2.7530    0.0040   -2.6570 h1        1 XCX      0.071200
     63 HATA        2.0840    0.4910   -1.0350 h1        1 XCX      0.071200
     64 HAU         2.3700    3.0090   -3.9960 h1        1 XCX      0.060200
     65 HAUA        0.7170    2.4000   -4.4870 h1        1 XCX      0.060200
     66 H2E1       -4.8940   -3.4010   -5.1220 ho        1 XCX      0.445000
@<TRIPOS>BOND
     1    1   29 2   
     2    1   30 1   
     3    2   22 1   
     4    2   23 1   
     5    2   29 1   
     6    3   16 1   
     7    3   33 1   
     8    3   34 1   
     9    3   35 1   
    10    4   32 1   
    11    4   36 1   
    12    4   37 1   
    13    4   38 1   
    14    5   32 1   
    15    5   39 1   
    16    5   40 1   
    17    5   41 1   
    18    6   26 2   
    19    7   26 1   
    20    7   66 1   
    21    8    9 ar  
    22    8   14 ar  
    23    8   42 1   
    24    9   15 ar  
    25    9   43 1   
    26   10   12 ar  
    27   10   27 ar  
    28   10   44 1   
    29   11   13 ar  
    30   11   27 ar  
    31   11   45 1   
    32   12   28 ar  
    33   12   46 1   
    34   13   28 ar  
    35   13   47 1   
    36   14   30 ar  
    37   14   48 1   
    38   15   31 ar  
    39   15   49 1   
    40   16   17 1   
    41   16   50 1   
    42   16   51 1   
    43   17   18 1   
    44   17   52 1   
    45   17   53 1   
    46   18   19 1   
    47   18   54 1   
    48   18   55 1   
    49   19   20 1   
    50   19   56 1   
    51   19   57 1   
    52   20   22 1   
    53   20   58 1   
    54   20   59 1   
    55   21   23 1   
    56   21   27 1   
    57   21   60 1   
    58   21   61 1   
    59   22   62 1   
    60   22   63 1   
    61   23   64 1   
    62   23   65 1   
    63   24   28 1   
    64   24   32 1   
    65   25   29 1   
    66   25   31 1   
    67   26   32 1   
    68   30   31 ar  
@<TRIPOS>SUBSTRUCTURE
     1 XCX         1 TEMP              0 ****  ****    0 ROOT
