@<TRIPOS>MOLECULE
XCX
   65    67     1     0     0
SMALL
bcc


@<TRIPOS>ATOM
      1 N1V        -1.5000    3.3430    0.0190 nc        1 XCX     -0.626100
      2 N2E        -1.8980    0.8950   -0.0760 nh        1 XCX     -0.710600
      3 CAA        -7.2330   -6.0060    0.6590 c3        1 XCX     -0.091100
      4 CAB         7.2620   -3.0090    0.0030 c3        1 XCX     -0.086100
      5 CAC         6.9640   -0.5980   -0.5770 c3        1 XCX     -0.086100
      6 OAD         5.5530   -2.5080    2.2740 o         1 XCX     -0.819300
      7 OAE         6.2510   -0.3960    2.0570 o         1 XCX     -0.819300
      8 CAF        -3.3690    6.5990   -0.1940 ca        1 XCX     -0.139000
      9 CAG        -4.6320    6.0650   -0.4710 ca        1 XCX     -0.143000
     10 CAH         1.8700   -1.2710   -1.7730 ca        1 XCX     -0.098000
     11 CAI         2.6010    0.3860   -0.1800 ca        1 XCX     -0.098000
     12 CAJ         3.0670   -1.9550   -1.6200 ca        1 XCX     -0.195500
     13 CAK         3.8050   -0.2850   -0.0070 ca        1 XCX     -0.195500
     14 CAL        -2.2440    5.7950   -0.0080 ca        1 XCX     -0.096000
     15 CAM        -4.8350    4.6850   -0.5760 ca        1 XCX     -0.109000
     16 CAN        -6.3380   -4.9670    1.2840 c3        1 XCX     -0.080400
     17 CAO        -5.7530   -4.0380    0.2420 c3        1 XCX     -0.078400
     18 CAP        -4.8560   -2.9970    0.8760 c3        1 XCX     -0.079400
     19 CAQ        -4.2700   -2.0690   -0.1680 c3        1 XCX     -0.078400
     20 CAR        -3.3750   -1.0290    0.4720 c3        1 XCX     -0.093400
     21 CAS         0.3370    0.6340   -1.2290 c3        1 XCX     -0.043100
     22 CAT        -2.7950   -0.1130   -0.6080 c3        1 XCX      0.209800
     23 CAU        -0.4960    0.5360    0.0540 c3        1 XCX      0.209800
     24 OAW         5.1760   -2.2390   -0.6760 os        1 XCX     -0.329900
     25 OAX        -3.6360    2.4970   -0.4410 os        1 XCX     -0.339700
     26 CAY         6.0050   -1.5470    1.6000 c         1 XCX      0.904600
     27 CAZ         1.6210   -0.0930   -1.0580 ca        1 XCX     -0.169300
     28 CBA         4.0510   -1.4660   -0.7300 ca        1 XCX      0.187100
     29 CBB        -2.2400    2.2260   -0.1710 cd        1 XCX      0.767500
     30 CBC        -2.4090    4.4110   -0.1060 ca        1 XCX      0.105400
     31 CBD        -3.7190    3.8890   -0.3910 ca        1 XCX      0.010100
     32 CBF         6.3290   -1.8040    0.0900 c3        1 XCX      0.021800
     33 HAA        -8.0810   -5.5220    0.1180 hc        1 XCX      0.030700
     34 HAAA       -6.6620   -6.6290   -0.0710 hc        1 XCX      0.030700
     35 HAAB       -7.6540   -6.6800    1.4440 hc        1 XCX      0.030700
     36 HAB         8.2340   -2.7410    0.4790 hc        1 XCX      0.033533
     37 HABA        6.8050   -3.8650    0.5550 hc        1 XCX      0.033533
     38 HABB        7.4350   -3.3030   -1.0590 hc        1 XCX      0.033533
     39 HAC         7.3350   -0.8580   -1.5970 hc        1 XCX      0.033533
     40 HACA        6.2260    0.2340   -0.6630 hc        1 XCX      0.033533
     41 HACB        7.8140   -0.2450    0.0550 hc        1 XCX      0.033533
     42 HAF        -3.2580    7.6920   -0.1200 ha        1 XCX      0.127000
     43 HAG        -5.4870    6.7420   -0.6080 ha        1 XCX      0.127000
     44 HAH         1.1100   -1.6610   -2.4660 ha        1 XCX      0.115000
     45 HAI         2.4130    1.3090    0.3890 ha        1 XCX      0.115000
     46 HAJ         3.2640   -2.8820   -2.1750 ha        1 XCX      0.166000
     47 HAK         4.5510    0.0910    0.7180 ha        1 XCX      0.166000
     48 HAL        -1.2600    6.2310    0.2090 ha        1 XCX      0.150000
     49 HAM        -5.8220    4.2580   -0.7910 ha        1 XCX      0.142000
     50 HAN        -6.9220   -4.3680    2.0330 hc        1 XCX      0.039700
     51 HANA       -5.5070   -5.4720    1.8430 hc        1 XCX      0.039700
     52 HAO        -5.1660   -4.6350   -0.5050 hc        1 XCX      0.038200
     53 HAOA       -6.5820   -3.5310   -0.3180 hc        1 XCX      0.038200
     54 HAP        -5.4410   -2.3990    1.6230 hc        1 XCX      0.043200
     55 HAPA       -4.0260   -3.5040    1.4350 hc        1 XCX      0.043200
     56 HAQ        -3.6820   -2.6680   -0.9130 hc        1 XCX      0.039200
     57 HAQA       -5.0990   -1.5630   -0.7290 hc        1 XCX      0.039200
     58 HAR        -3.9620   -0.4250    1.2120 hc        1 XCX      0.055200
     59 HARA       -2.5470   -1.5350    1.0340 hc        1 XCX      0.055200
     60 HAS        -0.2330    0.2060   -2.0960 hc        1 XCX      0.044700
     61 HASA        0.5360    1.7150   -1.4590 hc        1 XCX      0.044700
     62 HAT        -3.6480    0.3760   -1.1610 h1        1 XCX      0.056200
     63 HATA       -2.2250   -0.7450   -1.3500 h1        1 XCX      0.056200
     64 HAU        -0.0280    1.1930    0.8420 h1        1 XCX      0.076700
     65 HAUA       -0.4760   -0.5280    0.4290 h1        1 XCX      0.076700
@<TRIPOS>BOND
     1    1   29 2   
     2    1   30 1   
     3    2   22 1   
     4    2   23 1   
     5    2   29 1   
     6    3   16 1   
     7    3   33 1   
     8    3   34 1   
     9    3   35 1   
    10    4   32 1   
    11    4   36 1   
    12    4   37 1   
    13    4   38 1   
    14    5   32 1   
    15    5   39 1   
    16    5   40 1   
    17    5   41 1   
    18    6   26 1   
    19    7   26 1   
    20    8    9 ar  
    21    8   14 ar  
    22    8   42 1   
    23    9   15 ar  
    24    9   43 1   
    25   10   12 ar  
    26   10   27 ar  
    27   10   44 1   
    28   11   13 ar  
    29   11   27 ar  
    30   11   45 1   
    31   12   28 ar  
    32   12   46 1   
    33   13   28 ar  
    34   13   47 1   
    35   14   30 ar  
    36   14   48 1   
    37   15   31 ar  
    38   15   49 1   
    39   16   17 1   
    40   16   50 1   
    41   16   51 1   
    42   17   18 1   
    43   17   52 1   
    44   17   53 1   
    45   18   19 1   
    46   18   54 1   
    47   18   55 1   
    48   19   20 1   
    49   19   56 1   
    50   19   57 1   
    51   20   22 1   
    52   20   58 1   
    53   20   59 1   
    54   21   23 1   
    55   21   27 1   
    56   21   60 1   
    57   21   61 1   
    58   22   62 1   
    59   22   63 1   
    60   23   64 1   
    61   23   65 1   
    62   24   28 1   
    63   24   32 1   
    64   25   29 1   
    65   25   31 1   
    66   26   32 1   
    67   30   31 ar  
@<TRIPOS>SUBSTRUCTURE
     1 XCX         1 TEMP              0 ****  ****    0 ROOT
