@<TRIPOS>MOLECULE
XCY
   50    52     1     0     0
SMALL
bcc


@<TRIPOS>ATOM
      1 P           5.3020    2.7950    0.2150 p5        1 XCY      1.441800
      2 OP3         6.3830    1.7520   -0.4330 oh        1 XCY     -0.788400
      3 OP2         5.3540    2.4350    1.6550 o         1 XCY     -0.850500
      4 O5'         3.8960    2.1680   -0.3640 os        1 XCY     -0.582200
      5 N1          1.2780   -2.4670    1.2280 n         1 XCY     -0.331400
      6 C6          2.4670   -3.1250    1.1860 c1        1 XCY     -0.089900
      7 C2          0.0650   -3.0840    0.7530 c         1 XCY      0.752500
      8 O2         -1.0360   -2.4770    0.8830 o         1 XCY     -0.701100
      9 N3          0.1020   -4.3560    0.1780 ne        1 XCY     -0.804100
     10 C4          1.2980   -4.9980    0.1390 cf        1 XCY      0.673500
     11 N4          1.3630   -6.3300   -0.3860 nh        1 XCY     -0.795200
     12 C5          2.4940   -4.4240    0.6450 cf        1 XCY     -0.586700
     13 NZ         -0.4770  -12.8380   -3.6270 n3        1 XCY     -0.903800
     14 CG          0.6500  -10.7960   -2.7260 ca        1 XCY     -0.155300
     15 CD1         1.0320  -10.5010   -1.4150 ca        1 XCY     -0.132000
     16 CE1         0.9270   -9.2010   -0.9250 ca        1 XCY     -0.124000
     17 CD2         0.1660   -9.7710   -3.5440 ca        1 XCY     -0.132000
     18 CE2         0.0630   -8.4710   -3.0570 ca        1 XCY     -0.124000
     19 CZ          0.4400   -8.1740   -1.7410 ca        1 XCY     -0.060300
     20 CH          0.2680   -6.7740   -1.2200 c3        1 XCY      0.215100
     21 C2'         2.1590   -0.8130    2.9170 c3        1 XCY     -0.100400
     22 C5'         3.5900    0.8420   -0.0510 c3        1 XCY      0.195400
     23 C4'         2.5550    0.7510    1.0830 c3        1 XCY      0.088100
     24 O4'         1.5130   -0.1470    0.6850 os        1 XCY     -0.430600
     25 C1'         1.2140   -1.1030    1.7310 c3        1 XCY      0.318500
     26 C3'         3.1410    0.2480    2.4180 c3        1 XCY      0.143100
     27 O3'         3.2160    1.2830    3.3810 oh        1 XCY     -0.647800
     28 OP1         5.4900    4.1410   -0.3560 o         1 XCY     -0.850500
     29 H6          6.6630    1.0970    0.1960 ho        1 XCY      0.425000
     30 HN4         2.2490   -6.4790   -0.8290 hn        1 XCY      0.370800
     31 H5          3.4470   -4.9580    0.6250 ha        1 XCY      0.111000
     32 HNZ1       -0.9670  -12.2870   -4.3060 hn        1 XCY      0.340800
     33 HNZ2       -1.0690  -12.9350   -2.8240 hn        1 XCY      0.340800
     34 HB1         1.4170  -12.1710   -4.1820 h1        1 XCY      0.049700
     35 HB2         1.2760  -12.8480   -2.5000 h1        1 XCY      0.049700
     36 HD2        -0.1270   -9.9910   -4.5810 ha        1 XCY      0.117500
     37 HE2        -0.3160   -7.6690   -3.7090 ha        1 XCY      0.146500
     38 HH1         0.0920   -6.0800   -2.0950 h1        1 XCY      0.059200
     39 HH2        -0.6730   -6.7540   -0.5920 h1        1 XCY      0.059200
     40 H2'         2.7120   -1.7280    3.2420 hc        1 XCY      0.060200
     41 H2''        1.5650   -0.4220    3.7790 hc        1 XCY      0.060200
     42 H5'         3.1480    0.3720   -0.9740 h1        1 XCY      0.031200
     43 H5''        4.5300    0.2920    0.2300 h1        1 XCY      0.031200
     44 H4'         2.0700    1.7560    1.2300 h1        1 XCY      0.059700
     45 H1'         0.1360   -0.8930    2.0070 h2        1 XCY      0.074700
     46 H3'         4.1620   -0.1940    2.2620 h1        1 XCY      0.056700
     47 HO3'        3.9410    1.8660    3.0960 ho        1 XCY      0.457000
     48 HD1         1.4190  -11.2990   -0.7640 ha        1 XCY      0.117500
     49 CB          0.7640  -12.1940   -3.2620 c3        1 XCY      0.197100
     50 HE1         1.2270   -8.9760    0.1110 ha        1 XCY      0.146500
@<TRIPOS>BOND
     1    1    2 1   
     2    1    3 1   
     3    1    4 1   
     4    1   28 1   
     5    2   29 1   
     6    4   22 1   
     7    5    6 2   
     8    5    7 1   
     9    5   25 1   
    10    6   12 2   
    11    7    8 2   
    12    7    9 1   
    13    9   10 2   
    14   10   11 1   
    15   10   12 1   
    16   11   20 1   
    17   11   30 1   
    18   12   31 1   
    19   13   32 1   
    20   13   33 1   
    21   13   49 1   
    22   14   15 ar  
    23   14   17 ar  
    24   14   49 1   
    25   15   16 ar  
    26   15   48 1   
    27   16   19 ar  
    28   16   50 1   
    29   17   18 ar  
    30   17   36 1   
    31   18   19 ar  
    32   18   37 1   
    33   19   20 1   
    34   20   38 1   
    35   20   39 1   
    36   21   25 1   
    37   21   26 1   
    38   21   40 1   
    39   21   41 1   
    40   22   23 1   
    41   22   42 1   
    42   22   43 1   
    43   23   24 1   
    44   23   26 1   
    45   23   44 1   
    46   24   25 1   
    47   25   45 1   
    48   26   27 1   
    49   26   46 1   
    50   27   47 1   
    51   34   49 1   
    52   35   49 1   
@<TRIPOS>SUBSTRUCTURE
     1 XCY         1 TEMP              0 ****  ****    0 ROOT
