@<TRIPOS>MOLECULE
XD1
   27    27     1     0     0
SMALL
bcc


@<TRIPOS>ATOM
      1 C           2.8650   -0.2970    0.7530 c         1 XD1      0.583900
      2 N           3.0140    1.3600   -1.0980 n3        1 XD1     -0.894800
      3 O           3.9010   -0.8660    0.4060 o         1 XD1     -0.542100
      4 CA          2.2830    0.9370    0.0810 c3        1 XD1      0.059500
      5 CB          0.7740    0.7140   -0.1480 c3        1 XD1      0.261600
      6 OAE        -3.5050    1.2140    0.3410 o         1 XD1     -0.822800
      7 OAF        -1.8580    1.8600   -1.0360 o         1 XD1     -0.822800
      8 NAH        -0.0690    0.8300    1.0170 n3        1 XD1     -0.741200
      9 SAI         0.5010   -0.9840   -0.8480 ss        1 XD1     -0.542200
     10 CAJ        -2.3160    1.1910   -0.0720 c         1 XD1      0.940600
     11 CAM        -1.3570    0.2120    0.7100 c3        1 XD1      0.015500
     12 CAN        -1.1550   -1.1130   -0.0860 c3        1 XD1      0.086100
     13 HA          2.2840   -0.6440    1.6370 h4        1 XD1     -0.004800
     14 HN          3.3140    0.5630   -1.6280 hn        1 XD1      0.357800
     15 HNA         2.4290    1.9340   -1.6760 hn        1 XD1      0.357800
     16 HAA         2.3960    1.7870    0.8280 h1        1 XD1      0.087700
     17 HB          0.3500    1.4330   -0.9120 h2        1 XD1      0.151700
     18 HAAA       -3.2150   -1.1960   -0.7160 hc        1 XD1      0.040867
     19 HAAB       -2.0830   -0.4840   -1.9360 hc        1 XD1      0.040867
     20 HAAC       -2.0910   -2.2860   -1.6510 hc        1 XD1      0.040867
     21 HAB        -0.8650   -3.2330    0.2930 hc        1 XD1      0.040867
     22 HABA       -0.3960   -2.1480    1.6680 hc        1 XD1      0.040867
     23 HABB       -2.1480   -2.4430    1.3010 hc        1 XD1      0.040867
     24 HNAH        0.3530    0.3640    1.8040 hn        1 XD1      0.320800
     25 HAM        -1.8760   -0.0250    1.6820 h1        1 XD1      0.065700
     26 CAA        -2.1930   -1.2870   -1.1630 c3        1 XD1     -0.082100
     27 CAB        -1.1370   -2.3010    0.8460 c3        1 XD1     -0.082100
@<TRIPOS>BOND
     1    1    3 2   
     2    1    4 1   
     3    1   13 1   
     4    2    4 1   
     5    2   14 1   
     6    2   15 1   
     7    4    5 1   
     8    4   16 1   
     9    5    8 1   
    10    5    9 1   
    11    5   17 1   
    12    6   10 1   
    13    7   10 1   
    14    8   11 1   
    15    8   24 1   
    16    9   12 1   
    17   10   11 1   
    18   11   12 1   
    19   11   25 1   
    20   12   26 1   
    21   12   27 1   
    22   18   26 1   
    23   19   26 1   
    24   20   26 1   
    25   21   27 1   
    26   22   27 1   
    27   23   27 1   
@<TRIPOS>SUBSTRUCTURE
     1 XD1         1 TEMP              0 ****  ****    0 ROOT
