@<TRIPOS>MOLECULE
XD1
   27    26     1     0     0
SMALL
bcc


@<TRIPOS>ATOM
      1 C           0.6090   -1.5510   -2.7110 c1        1 XD1      0.191000
      2 N          -1.6360   -1.8100   -1.8920 n3        1 XD1     -0.328000
      3 O           0.9010   -0.9420   -3.7240 o         1 XD1     -0.309000
      4 CA         -0.4590   -1.0090   -1.7820 c2        1 XD1     -0.087000
      5 CB          0.0400   -1.0460   -0.3710 c3        1 XD1     -0.108000
      6 CAA         1.5620    1.6790    1.5350 c3        1 XD1     -0.200500
      7 CAB        -0.0920    2.0900   -0.2640 c3        1 XD1     -0.200500
      8 OAE         0.7800   -1.2070    2.6090 o         1 XD1     -0.556500
      9 OAF        -0.6230   -0.0590    3.8210 o         1 XD1     -0.556500
     10 NAH        -1.1430   -0.6940    0.6380 n3        1 XD1     -0.273000
     11 SAI         1.1470    0.0510   -0.1620 ss        1 XD1     -0.154000
     12 CAJ        -0.1380   -0.3500    2.6960 c2        1 XD1      0.349000
     13 CAM        -0.6290    0.2860    1.5250 c3        1 XD1     -0.126000
     14 CAN         0.5380    1.0390    0.6240 c3        1 XD1     -0.085000
     15 HA          1.0640   -2.3900   -2.4970 ha        1 XD1      0.104000
     16 HN         -1.4300   -2.6000   -2.3060 hn        1 XD1      0.153500
     17 HNA        -2.2660   -1.3620   -2.3840 hn        1 XD1      0.153500
     18 HAA        -0.6690   -0.0860   -2.0300 h4        1 XD1      0.130000
     19 HB          0.4020   -1.9300   -0.1680 h2        1 XD1      0.100000
     20 HAAA        2.0770    2.3440    1.0320 hc        1 XD1      0.084333
     21 HAAB        2.1680    0.9900    1.8810 hc        1 XD1      0.084333
     22 HAAC        1.1050    2.1170    2.2830 hc        1 XD1      0.084333
     23 HAB        -0.9860    1.7950   -0.5350 hc        1 XD1      0.084333
     24 HABA       -0.1610    2.9340    0.2280 hc        1 XD1      0.084333
     25 HABB        0.4640    2.2200   -1.0610 hc        1 XD1      0.084333
     26 HNAH       -1.3730   -1.4420    1.1100 hn        1 XD1      0.193000
     27 HAM        -1.2540    0.9340    1.9060 h1        1 XD1      0.102000
@<TRIPOS>BOND
     1    1    3 1   
     2    1   15 1   
     3    2    4 1   
     4    2   16 1   
     5    2   17 1   
     6    4    5 1   
     7    4   18 1   
     8    5   10 1   
     9    5   11 1   
    10    5   19 1   
    11    6   14 1   
    12    6   20 1   
    13    6   21 1   
    14    6   22 1   
    15    7   14 1   
    16    7   23 1   
    17    7   24 1   
    18    7   25 1   
    19    8   12 1   
    20    9   12 1   
    21   10   13 1   
    22   10   26 1   
    23   11   14 1   
    24   12   13 1   
    25   13   14 1   
    26   13   27 1   
@<TRIPOS>SUBSTRUCTURE
     1 XD1         1 TEMP              0 ****  ****    0 ROOT
