@<TRIPOS>MOLECULE
XD1
   28    25     1     0     0
SMALL
bcc


@<TRIPOS>ATOM
      1 C           0.0900   -1.9920   -0.2610 c         1 XD1      0.542900
      2 N          -0.7850    0.2290   -1.0850 n3        1 XD1     -0.903800
      3 O          -0.9630   -2.5430   -0.5780 o         1 XD1     -0.531100
      4 CA          0.3100   -0.4900   -0.4600 c3        1 XD1      0.019200
      5 CB          0.6710    0.1340    0.8610 cc        1 XD1      0.368700
      6 OAE         3.5470   -2.0980    3.3390 o         1 XD1     -0.454000
      7 OAF         2.8630   -3.1950    1.3410 o         1 XD1     -0.454000
      8 NAH         1.5070   -0.4270    1.7480 nd        1 XD1     -0.678000
      9 SAI         0.0710    1.6680    1.3250 ss        1 XD1      0.008700
     10 CAJ         3.1960   -2.6350    2.3370 c1        1 XD1      0.907000
     11 CAM         1.6540    0.4140    2.8300 cd        1 XD1      0.321200
     12 CAN         0.9360    1.6080    2.7620 cc        1 XD1     -0.211700
     13 HA          0.9540   -2.5450    0.1700 h4        1 XD1      0.045200
     14 HN          4.0610    3.5510    5.0240 ha        1 XD1      0.000500
     15 HNA         1.2200   -0.3930   -1.1340 h1        1 XD1      0.095700
     16 HAA        -1.6610   -0.0480   -0.6800 hn        1 XD1      0.366800
     17 HB          3.4430    3.4850    4.7530 ha        1 XD1      0.000500
     18 HAAA        3.6220    1.2360    5.5090 hc        1 XD1      0.030700
     19 HAAB        3.9530    0.1740    6.9450 hc        1 XD1      0.030700
     20 HAAC        2.3060    0.1820    6.1810 hc        1 XD1      0.030700
     21 HAB         1.4870    3.5610    3.4290 hc        1 XD1      0.051367
     22 HABA       -0.0920    2.9450    4.0790 hc        1 XD1      0.051367
     23 HABB        1.4740    2.2810    4.7120 hc        1 XD1      0.051367
     24 HNAH        2.3100    0.1010    3.6560 h4        1 XD1      0.056100
     25 HAM         3.7100   -0.5700    5.3060 hc        1 XD1      0.030700
     26 CAA         3.3980    0.2550    5.9850 c3        1 XD1     -0.120800
     27 CAB         0.9480    2.6480    3.7930 c3        1 XD1     -0.022800
     28 HN3        -0.8080    0.0290   -2.0660 hn        1 XD1      0.366800
@<TRIPOS>BOND
     1    1    3 2   
     2    1    4 1   
     3    1   13 1   
     4    2    4 1   
     5    2   16 1   
     6    2   28 1   
     7    4    5 1   
     8    4   15 1   
     9    5    8 2   
    10    5    9 1   
    11    6   10 2   
    12    7   10 2   
    13    8   11 1   
    14    9   12 1   
    15   11   12 2   
    16   11   24 1   
    17   12   27 1   
    18   14   17 1   
    19   18   26 1   
    20   19   26 1   
    21   20   26 1   
    22   21   27 1   
    23   22   27 1   
    24   23   27 1   
    25   25   26 1   
@<TRIPOS>SUBSTRUCTURE
     1 XD1         1 TEMP              0 ****  ****    0 ROOT
