@<TRIPOS>MOLECULE
XD1
   28    24     1     0     0
SMALL
bcc


@<TRIPOS>ATOM
      1 C          -0.3250   -0.4410    1.0350 c         1 XD1      0.602100
      2 N           2.1250    1.6600    2.1400 n4        1 XD1     -0.953200
      3 O          -0.2120    0.7870    0.8640 o         1 XD1     -0.655100
      4 CA          0.3540   -1.4190    0.1880 ce        1 XD1     -0.382300
      5 CB          0.8860   -2.5660    0.5950 c1        1 XD1     -0.179900
      6 OAE         1.0950   -0.5300    3.3740 o         1 XD1     -0.833300
      7 OAF         3.2150   -0.8210    2.8040 o         1 XD1     -0.833300
      8 NAH         1.0700   -3.1870    1.8000 nh        1 XD1      0.031400
      9 SAI        -0.8020    4.4410    5.1060 s         1 XD1     -0.085900
     10 CAJ         2.0570   -1.2800    3.0200 c         1 XD1      0.895600
     11 CAM         1.7640   -2.7450    2.8270 c2        1 XD1     -0.200100
     12 CAN        -0.7180    3.1610    4.4450 c1        1 XD1      0.125000
     13 HA         -0.9380   -0.8320    1.8800 h4        1 XD1      0.012200
     14 HN          2.9170    0.9960    2.2730 hn        1 XD1      0.468300
     15 HNA         1.8010    1.6330    1.1720 hn        1 XD1      0.468300
     16 HAA         2.3990    2.5980    2.4050 hn        1 XD1      0.468300
     17 HB          0.4550   -1.1550   -0.8780 ha        1 XD1      0.161000
     18 HAAA        4.9960    2.3340    2.3190 hc        1 XD1      0.035200
     19 HAAB        6.0260    2.1230    3.7940 hc        1 XD1      0.035200
     20 HAAC        4.2710    2.5340    3.9750 hc        1 XD1      0.035200
     21 HAB         4.7670    0.8780    3.3950 hc        1 XD1      0.035200
     22 HABA       -0.2360    1.0950    4.3370 ha        1 XD1      0.187500
     23 HABB       -0.9770    1.8320    2.8110 ha        1 XD1      0.187500
     24 HNAH        0.8510   -4.1700    1.7580 hn        1 XD1      0.294700
     25 HAM         2.1720   -3.4460    3.5740 h4        1 XD1      0.161000
     26 CAA         5.0100    1.9660    3.3690 c3        1 XD1     -0.137800
     27 CAB        -0.6270    2.0030    3.8430 c2        1 XD1     -0.411100
     28 HN3         1.3470    1.3140    2.7440 hn        1 XD1      0.468300
@<TRIPOS>BOND
     1    1    3 2   
     2    1    4 1   
     3    1   13 1   
     4    2   14 1   
     5    2   15 1   
     6    2   16 1   
     7    2   28 1   
     8    4    5 2   
     9    4   17 1   
    10    5    8 2   
    11    6   10 1   
    12    7   10 1   
    13    8   11 1   
    14    8   24 1   
    15    9   12 2   
    16   10   11 2   
    17   11   25 1   
    18   12   27 2   
    19   18   26 1   
    20   19   26 1   
    21   20   26 1   
    22   21   26 1   
    23   22   27 1   
    24   23   27 1   
@<TRIPOS>SUBSTRUCTURE
     1 XD1         1 TEMP              0 ****  ****    0 ROOT
