@<TRIPOS>MOLECULE
XD1
   28    26     1     0     0
SMALL
bcc


@<TRIPOS>ATOM
      1 C           0.2990   -0.8810   -0.1310 c         1 XD1      0.573900
      2 N           2.2060    2.8080   -0.3640 n9        1 XD1     -1.025400
      3 O           0.0850   -1.6210   -1.0900 o         1 XD1     -0.516100
      4 CA          1.6660   -0.7230    0.4710 c3        1 XD1     -0.255700
      5 CB          1.5960   -0.3280    1.9050 c2        1 XD1      0.477200
      6 OAE         3.6180   -3.5350    3.8660 o         1 XD1     -0.451000
      7 OAF         3.5590   -3.3380    1.4960 o         1 XD1     -0.451000
      8 NAH         2.1080   -0.9920    2.8920 n2        1 XD1     -0.599900
      9 SAI         0.7680    1.1670    2.3050 ss        1 XD1     -0.337300
     10 CAJ         3.5790   -3.4240    2.6830 c1        1 XD1      0.900000
     11 CAM         1.9050   -0.3710    4.1810 c3        1 XD1      0.088800
     12 CAN         1.1030    0.9560    4.0850 c3        1 XD1      0.025100
     13 HA         -0.5060   -0.2680    0.3350 h4        1 XD1      0.009200
     14 HN          1.8300    2.5900    0.5380 hn        1 XD1      0.340800
     15 HNA         1.5500    3.3680   -0.8660 hn        1 XD1      0.340800
     16 HAA         2.2080    0.0840   -0.1030 hc        1 XD1      0.119700
     17 HB          2.2550   -1.6760    0.3420 hc        1 XD1      0.119700
     18 HAAA        1.3460    3.0780    4.4530 hc        1 XD1      0.049867
     19 HAAB        2.8760    2.2080    4.0100 hc        1 XD1      0.049867
     20 HAAC        2.1550    1.9960    5.6610 hc        1 XD1      0.049867
     21 HAB        -0.8160    0.0030    4.4430 hc        1 XD1      0.049867
     22 HABA       -0.7980    1.7990    4.6980 hc        1 XD1      0.049867
     23 HABB       -0.0210    0.7040    5.9150 hc        1 XD1      0.049867
     24 HNAH        2.9160   -0.1800    4.6400 h1        1 XD1      0.085200
     25 HAM         1.3610   -1.1060    4.8380 h1        1 XD1      0.085200
     26 CAA         1.9170    2.1260    4.5760 c3        1 XD1     -0.085100
     27 CAB        -0.2080    0.8590    4.8240 c3        1 XD1     -0.085100
     28 HN3         3.0530    3.3230   -0.2510 hn        1 XD1      0.340800
@<TRIPOS>BOND
     1    1    3 2   
     2    1    4 1   
     3    1   13 1   
     4    2   14 1   
     5    2   15 1   
     6    2   28 1   
     7    4    5 1   
     8    4   16 1   
     9    4   17 1   
    10    5    8 2   
    11    5    9 1   
    12    6   10 2   
    13    7   10 2   
    14    8   11 1   
    15    9   12 1   
    16   11   12 1   
    17   11   24 1   
    18   11   25 1   
    19   12   26 1   
    20   12   27 1   
    21   18   26 1   
    22   19   26 1   
    23   20   26 1   
    24   21   27 1   
    25   22   27 1   
    26   23   27 1   
@<TRIPOS>SUBSTRUCTURE
     1 XD1         1 TEMP              0 ****  ****    0 ROOT
