@<TRIPOS>MOLECULE
XD2
   51    50     1     0     0
SMALL
bcc


@<TRIPOS>ATOM
      1 CAA         1.1950   -1.8950   -1.5520 c3        1 XD2      0.129000
      2 OAB         2.2960   -1.8180   -2.4520 os        1 XD2     -0.317000
      3 OAC         5.0290    2.8040  -12.6370 o         1 XD2     -0.326000
      4 OAE         1.4290   -3.5520   -3.5660 o         1 XD2     -0.361000
      5 OAF         2.4440    2.0570  -12.5250 oh        1 XD2     -0.298000
      6 CAG         3.0610    0.5280   -7.8080 c3        1 XD2     -0.016000
      7 CAH         2.9080   -0.6220   -8.7420 c2        1 XD2     -1.006000
      8 CAI         3.6320    1.7480   -8.4280 c2        1 XD2     -0.148000
      9 CAJ         2.9780   -0.3660  -10.1490 c2        1 XD2     -0.010000
     10 CAK         3.7560    1.8980   -9.7570 c2        1 XD2     -0.123000
     11 CAL         8.1640    1.1800  -13.3410 c1        1 XD2     -0.072000
     12 CAM         0.6640    2.0990    0.6480 c1        1 XD2     -0.926000
     13 CAN         3.1140   -2.5890   -7.0410 c1        1 XD2     -1.353000
     14 NAO        -1.4050    0.0750   -2.8890 n2        1 XD2     -0.059000
     15 NAP        -0.9230    0.9910   -2.0460 n2        1 XD2     -0.098000
     16 NAQ        -0.7740   -1.0340   -2.8210 n2        1 XD2     -0.005000
     17 NAR         5.7560    0.6100  -12.7860 n         1 XD2     -0.221000
     18 NAS         4.0960   -1.3400   -4.5030 n2        1 XD2      0.173000
     19 SAU         2.7850   -2.0320   -8.1900 s4        1 XD2      2.419000
     20 CAW         4.7970    1.5900  -12.5330 c2        1 XD2      0.278000
     21 CAX         3.2890   -3.2630   -5.7940 c3        1 XD2      0.111000
     22 CAY         3.2610   -2.3630   -4.5850 c2        1 XD2     -0.316000
     23 CAZ         3.3730    0.8290  -10.6540 c2        1 XD2     -0.160000
     24 CBA         0.1150    0.4200   -1.3760 c2        1 XD2     -0.485000
     25 CBB         3.3940    1.0920  -12.1280 c3        1 XD2      0.074000
     26 CBC         7.0350    0.8780  -13.0760 c1        1 XD2     -0.103000
     27 CBD         4.8500   -0.4480   -4.4860 c1        1 XD2     -0.175000
     28 NBE         0.1870   -0.8990   -1.8800 na        1 XD2     -0.180000
     29 H1          3.1680   -0.0030   -1.1190 ha        1 XD2      0.004500
     30 H2          1.6400   -1.6260   -0.5500 h2        1 XD2      0.138500
     31 H3          3.4480    0.4920   -0.7460 ha        1 XD2      0.004500
     32 H6          2.6840    2.8970  -12.1080 ho        1 XD2      0.224000
     33 H10         2.6880   -1.1860  -10.8320 ha        1 XD2      0.111000
     34 H11         4.1580    2.8200  -10.2100 ha        1 XD2      0.142000
     35 H12         9.5430    1.5600  -14.5090 ho        1 XD2      0.223000
     36 H14         0.2620    2.8500    1.2900 ha        1 XD2      0.214000
     37 H15         2.4760   -4.0330   -5.6450 hc        1 XD2      0.105500
     38 H16         2.5990   -2.7730   -9.1840 hs        1 XD2     -0.344000
     39 H17         4.2680   -3.8250   -5.8140 hc        1 XD2      0.105500
     40 H18        -0.3260   -2.2940   -8.2920 ha        1 XD2      0.004500
     41 H20         3.1060    0.1720  -12.7160 h1        1 XD2      0.128000
     42 H21         5.5470    0.3560   -4.4550 ha        1 XD2      0.306000
     43 H22         0.3530   -2.2890   -8.3310 ha        1 XD2      0.004500
     44 H5          0.7300   -2.9230   -1.5580 h2        1 XD2      0.138500
     45 SAT         1.1510    1.1490   -0.1810 ss        1 XD2      1.269000
     46 CAV         2.2680   -2.6460   -3.5730 c2        1 XD2      0.386000
     47 H7          3.7130    0.2250   -6.9380 hc        1 XD2      0.081000
     48 H8          2.0530    0.7960   -7.3760 hc        1 XD2      0.081000
     49 HAR2        5.5310   -0.3450  -12.6130 hn        1 XD2      0.242000
     50 OAD         9.4410    1.4380  -13.5430 oh        1 XD2     -0.124000
     51 H9          3.9310    2.5430   -7.7280 ha        1 XD2      0.126000
@<TRIPOS>BOND
     1    1    2 1   
     2    1   28 1   
     3    1   30 1   
     4    1   44 1   
     5    2   46 1   
     6    3   20 1   
     7    4   46 1   
     8    5   25 1   
     9    5   32 1   
    10    6    7 1   
    11    6    8 1   
    12    6   47 1   
    13    6   48 1   
    14    7    9 1   
    15    7   19 1   
    16    8   10 1   
    17    8   51 1   
    18    9   23 1   
    19    9   33 1   
    20   10   23 1   
    21   10   34 1   
    22   11   26 1   
    23   11   50 1   
    24   12   36 1   
    25   12   45 1   
    26   13   19 1   
    27   13   21 1   
    28   14   15 1   
    29   14   16 1   
    30   15   24 1   
    31   16   28 1   
    32   17   20 1   
    33   17   26 1   
    34   17   49 1   
    35   18   22 1   
    36   18   27 1   
    37   19   38 1   
    38   20   25 1   
    39   21   22 1   
    40   21   37 1   
    41   21   39 1   
    42   22   46 1   
    43   23   25 1   
    44   24   28 1   
    45   24   45 1   
    46   25   41 1   
    47   27   42 1   
    48   29   31 1   
    49   35   50 1   
    50   40   43 1   
@<TRIPOS>SUBSTRUCTURE
     1 XD2         1 TEMP              0 ****  ****    0 ROOT
