@<TRIPOS>MOLECULE
XD2
   51    50     1     0     0
SMALL
bcc


@<TRIPOS>ATOM
      1 CAA         4.4950    1.8050   -0.6720 c1        1 XD2     -0.008000
      2 OAB         4.2080    1.5420   -4.1480 o         1 XD2     -0.491000
      3 OAC         5.4610    0.9000  -11.1520 o         1 XD2     -0.229000
      4 OAE         2.3630    0.8450   -3.0500 o         1 XD2     -0.491000
      5 OAF         5.6170   -1.8620  -11.1830 oh        1 XD2     -0.280000
      6 CAG         0.6330   -1.6230  -12.0740 c3        1 XD2     -0.226000
      7 CAH         0.9420   -2.2170  -10.7820 c1        1 XD2     -0.066000
      8 CAI         1.7200   -0.9200  -12.7850 c2        1 XD2     -0.074000
      9 CAJ         2.2710   -2.0880  -10.2810 c2        1 XD2     -0.201000
     10 CAK         2.9560   -0.8130  -12.2430 c2        1 XD2     -0.205000
     11 CAL         2.7780    2.4490   -9.5810 c1        1 XD2     -0.009000
     12 CAM         2.1410   -1.8830   -1.7600 c1        1 XD2     -1.043000
     13 CAN         2.3120   -1.9470   -6.0440 c1        1 XD2     -0.947000
     14 NAO         4.7280   -0.5490    1.8000 n2        1 XD2     -0.042000
     15 NAP         3.7380   -1.1760    1.0920 n2        1 XD2     -0.106000
     16 NAQ         5.0940    0.5320    1.2840 n2        1 XD2      0.045000
     17 NAR         4.6950    0.9030   -8.9520 n4        1 XD2     -0.001000
     18 NAS         2.7620    1.0870   -6.5140 n3        1 XD2     -0.138000
     19 SAU         2.7850   -3.0720   -6.6840 sh        1 XD2      1.180000
     20 CAW         4.9690    0.2270  -10.2500 c2        1 XD2      0.211000
     21 CAX         1.7600   -0.8670   -5.3050 c3        1 XD2     -0.037000
     22 CAY         2.5140    0.4270   -5.4130 c2        1 XD2      0.060000
     23 CAZ         3.2380   -1.4020  -10.9590 c2        1 XD2     -0.014000
     24 CBA         3.4640   -0.4110    0.0320 c2        1 XD2     -0.463000
     25 CBB         4.6230   -1.2600  -10.3900 c3        1 XD2      0.059000
     26 CBC         3.3110    1.3920   -8.8670 c2        1 XD2     -0.564000
     27 CBD         2.4220    0.7150   -7.8880 c3        1 XD2      0.030000
     28 NBE         4.3510    0.7430    0.1220 na        1 XD2     -0.150000
     29 H1          0.9170    1.3950   -1.0620 ha        1 XD2      0.009000
     30 H2          3.8420    1.8020   -1.5770 ha        1 XD2      0.097000
     31 H3          1.5260    1.6860   -0.9740 ha        1 XD2      0.009000
     32 H6          5.5160   -1.5480  -12.0950 ho        1 XD2      0.230000
     33 H10         2.4900   -2.5670   -9.3110 ha        1 XD2      0.134000
     34 H11         3.7660   -0.2670  -12.7530 ha        1 XD2      0.146000
     35 H12         4.2660    2.9010  -10.7480 ho        1 XD2      0.137000
     36 H14         2.1070   -2.8480   -2.2080 ha        1 XD2      0.201000
     37 H15         0.6890   -0.6820   -5.6160 hc        1 XD2      0.163000
     38 H16         3.7880   -2.7320   -7.4720 hs        1 XD2     -0.351000
     39 H17         1.7230   -1.1350   -4.1990 hc        1 XD2      0.163000
     40 H18         5.3230    1.7130   -8.8670 hn        1 XD2      0.228500
     41 H20         4.7070   -1.7890   -9.3920 h1        1 XD2      0.159000
     42 H21         2.4660   -0.4110   -7.9680 h1        1 XD2      0.125000
     43 H22         1.3600    1.0490   -8.0890 h1        1 XD2      0.125000
     44 H5          3.2590    1.9650   -6.4240 hn        1 XD2      0.272000
     45 SAT         2.2000   -0.6680   -1.1870 ss        1 XD2      1.431000
     46 CAV         3.0860    1.0060   -4.0620 c2        1 XD2      0.361000
     47 H7         -0.2300   -0.9060  -11.9000 hc        1 XD2      0.182500
     48 H8          0.2060   -2.4430  -12.7290 hc        1 XD2      0.182500
     49 HAR2        4.8960    0.2550   -8.1860 hn        1 XD2      0.228500
     50 OAD         3.3490    3.1590  -10.5190 oh        1 XD2     -0.180000
     51 H9          1.4860   -0.4790  -13.7670 ha        1 XD2      0.146000
@<TRIPOS>BOND
     1    1   28 1   
     2    1   30 1   
     3    2   46 1   
     4    3   20 1   
     5    4   46 1   
     6    5   25 1   
     7    5   32 1   
     8    6    7 1   
     9    6    8 1   
    10    6   47 1   
    11    6   48 1   
    12    7    9 1   
    13    8   10 1   
    14    8   51 1   
    15    9   23 1   
    16    9   33 1   
    17   10   23 1   
    18   10   34 1   
    19   11   26 1   
    20   11   50 1   
    21   12   36 1   
    22   12   45 1   
    23   13   19 1   
    24   13   21 1   
    25   14   15 1   
    26   14   16 1   
    27   15   24 1   
    28   16   28 1   
    29   17   20 1   
    30   17   26 1   
    31   17   40 1   
    32   17   49 1   
    33   18   22 1   
    34   18   27 1   
    35   18   44 1   
    36   19   38 1   
    37   20   25 1   
    38   21   22 1   
    39   21   37 1   
    40   21   39 1   
    41   22   46 1   
    42   23   25 1   
    43   24   28 1   
    44   24   45 1   
    45   25   41 1   
    46   26   27 1   
    47   27   42 1   
    48   27   43 1   
    49   29   31 1   
    50   35   50 1   
@<TRIPOS>SUBSTRUCTURE
     1 XD2         1 TEMP              0 ****  ****    0 ROOT
