@<TRIPOS>MOLECULE
XD2
   50    46     1     0     0
SMALL
bcc


@<TRIPOS>ATOM
      1 CAA         2.7520    0.0800    8.5250 c3        1 XD2     -0.064000
      2 OAB         0.4850    3.9360    3.2730 o         1 XD2     -0.528000
      3 OAC        -0.6430    0.8210   -4.3730 o         1 XD2     -0.354000
      4 OAD         1.5270   -0.5190   -1.0090 o         1 XD2     -0.314000
      5 OAE        -1.6570    4.3180    3.0360 o         1 XD2     -0.528000
      6 OAF         0.4520   -2.2470   -3.8390 oh        1 XD2     -0.307000
      7 CAG         0.4350   -1.3710   -8.6130 c1        1 XD2     -0.124500
      8 CAH        -0.5650   -2.1800   -8.1140 c1        1 XD2     -0.124500
      9 CAI         1.1060   -0.5140   -7.7770 c1        1 XD2     -0.124500
     10 CAJ        -0.8900   -2.1250   -6.7730 c1        1 XD2     -0.117000
     11 CAK         0.7810   -0.4600   -6.4400 c1        1 XD2     -0.124500
     12 CAL         1.1090    0.5380   -1.5030 c1        1 XD2      0.187000
     13 CAM        -0.7810    0.6540    4.6520 c3        1 XD2     -0.177000
     14 CAN        -0.9450   -0.5810    2.3340 c3        1 XD2     -0.184000
     15 NAO        -0.5550   -0.3480    8.9230 n2        1 XD2     -0.057000
     16 NAP        -0.6690   -0.1530    7.6120 n2        1 XD2     -0.156000
     17 NAQ         0.7360   -0.3040    9.2340 n2        1 XD2     -0.057000
     18 NAR        -0.9660   -0.1650   -2.3160 n3        1 XD2     -0.348000
     19 NAS        -0.5510    2.1160    0.6960 n3        1 XD2     -0.291000
     20 SAT         0.7280    0.0800    5.3660 ss        1 XD2      0.291000
     21 SAU        -0.4610   -0.4040    0.6610 ss        1 XD2     -0.017000
     22 CAV        -0.6620    3.5730    2.8600 c1        1 XD2      0.365000
     23 CAW        -0.7570   -0.1980   -3.7640 c1        1 XD2      0.276000
     24 CAX        -0.6580    0.6560    3.1060 c2        1 XD2     -0.285000
     25 CAY        -0.8300    2.2280    2.1540 c1        1 XD2      0.039000
     26 CAZ        -0.2170   -1.2650   -5.9390 c1        1 XD2     -0.138000
     27 CBA         0.5550    0.0130    7.1140 c2        1 XD2     -0.214000
     28 CBB        -0.5820   -1.5130   -4.4660 c2        1 XD2      0.055000
     29 CBC        -0.3290    0.8080   -1.5410 c2        1 XD2     -0.049000
     30 CBD        -0.9410    0.7850    0.0010 c3        1 XD2     -0.077000
     31 NBE         1.4210   -0.0810    8.1150 na        1 XD2     -0.180000
     32 H1          3.1110   -0.7800    8.8070 h1        1 XD2      0.103000
     33 H2          2.7880    0.7060    9.2680 h1        1 XD2      0.103000
     34 H3          3.2850    0.4290    7.7760 h1        1 XD2      0.103000
     35 H6          0.1160   -3.0130   -3.5030 ho        1 XD2      0.208000
     36 H7          0.6480   -1.3870   -9.5730 ha        1 XD2      0.140500
     37 H8         -1.0690   -2.7850   -8.7250 ha        1 XD2      0.140500
     38 H9          1.7620    0.1120   -8.1450 ha        1 XD2      0.140500
     39 H10        -1.5880   -2.6880   -6.4230 ha        1 XD2      0.142000
     40 H11         1.2630    0.1560   -5.8410 ha        1 XD2      0.140500
     41 H12         1.7450    1.2240   -1.8070 ha        1 XD2      0.138000
     42 H14        -0.9620    1.5480    4.9620 h1        1 XD2      0.137500
     43 H15        -1.5300    0.0480    4.9250 h1        1 XD2      0.137500
     44 H16        -1.8560   -0.8840    2.5490 h1        1 XD2      0.106000
     45 H17        -0.4250   -1.3400    2.6720 h1        1 XD2      0.106000
     46 H18        -1.4630   -0.8320   -1.9040 hn        1 XD2      0.235000
     47 H20        -1.4150   -2.0190   -4.4190 h4        1 XD2      0.153000
     48 H21        -0.4840    1.6930   -1.9400 h4        1 XD2      0.154000
     49 H22        -1.9400    0.7370   -0.0530 h2        1 XD2      0.103000
     50 H5         -0.4110    2.8950    0.1810 hn        1 XD2      0.237000
@<TRIPOS>BOND
     1    1   31 1   
     2    1   32 1   
     3    1   33 1   
     4    1   34 1   
     5    2   22 1   
     6    3   23 1   
     7    4   12 1   
     8    5   22 1   
     9    6   28 1   
    10    6   35 1   
    11    7    8 1   
    12    7   36 1   
    13    8   37 1   
    14    9   11 1   
    15    9   38 1   
    16   10   26 1   
    17   10   39 1   
    18   11   40 1   
    19   12   41 1   
    20   13   20 1   
    21   13   24 1   
    22   13   42 1   
    23   13   43 1   
    24   14   21 1   
    25   14   24 1   
    26   14   44 1   
    27   14   45 1   
    28   15   16 1   
    29   15   17 1   
    30   16   27 1   
    31   17   31 1   
    32   18   23 1   
    33   18   29 1   
    34   18   46 1   
    35   19   25 1   
    36   19   30 1   
    37   19   50 1   
    38   20   27 1   
    39   21   30 1   
    40   24   25 1   
    41   26   28 1   
    42   27   31 1   
    43   28   47 1   
    44   29   30 1   
    45   29   48 1   
    46   30   49 1   
@<TRIPOS>SUBSTRUCTURE
     1 XD2         1 TEMP              0 ****  ****    0 ROOT
