@<TRIPOS>MOLECULE
XD2
   50    52     1     0     0
SMALL
bcc


@<TRIPOS>ATOM
      1 CAA        -7.0800    1.8810    1.1200 c3        1 XD2      0.033600
      2 OAB        -1.2020   -3.4910    1.0760 o         1 XD2     -0.798300
      3 OAC         4.5950   -1.4680    1.5500 o         1 XD2     -0.631100
      4 OAE        -3.2260   -2.5540    1.3250 o         1 XD2     -0.798300
      5 OAF         6.8210   -0.8460    0.2500 oh        1 XD2     -0.589800
      6 CAG         5.3940    3.9280   -0.3490 ca        1 XD2     -0.127000
      7 CAH         4.7250    3.1820   -1.3190 ca        1 XD2     -0.128500
      8 CAI         6.1460    3.2800    0.6300 ca        1 XD2     -0.128500
      9 CAJ         4.8050    1.7900   -1.3100 ca        1 XD2     -0.109500
     10 CAK         6.2250    1.8880    0.6440 ca        1 XD2     -0.109500
     11 CAL         1.2380   -2.3580   -0.6520 c         1 XD2      0.548900
     12 CAM        -3.0830   -0.2850   -0.5830 c3        1 XD2      0.074900
     13 CAN        -1.0380    1.0940   -0.1360 c3        1 XD2      0.080900
     14 NAO        -6.8090    1.4540   -2.3610 nc        1 XD2     -0.055000
     15 NAP        -5.5850    1.0370   -2.0530 nc        1 XD2     -0.415000
     16 NAQ        -7.4910    1.8080   -1.3390 nd        1 XD2     -0.223800
     17 NAR         3.1940   -0.8970   -0.1890 n         1 XD2     -0.530900
     18 NAS        -0.1060   -0.9600    1.6570 nh        1 XD2     -0.701000
     19 SAU         0.7180    0.8370   -0.2490 ss        1 XD2     -0.376200
     20 CAW         4.4140   -0.9570    0.4230 c         1 XD2      0.635100
     21 CAX        -1.7930   -0.1520    0.1130 c2        1 XD2     -0.239400
     22 CAY        -1.3020   -1.1240    0.9380 ce        1 XD2      0.049800
     23 CAZ         5.5510    1.1350   -0.3230 ca        1 XD2     -0.113300
     24 CBA        -5.4620    1.1240   -0.6860 cd        1 XD2      0.461800
     25 CBB         5.6250   -0.3630   -0.3270 c3        1 XD2      0.124400
     26 CBC         2.0020   -1.4980    0.3570 c3        1 XD2     -0.047300
     27 CBD         1.0580   -0.4230    0.9940 c3        1 XD2      0.285600
     28 NBE        -6.7160    1.6180   -0.2450 na        1 XD2     -0.078400
     29 H1         -6.9200    2.9660    1.3580 h1        1 XD2      0.064033
     30 H2         -8.1590    1.6230    1.2890 h1        1 XD2      0.064033
     31 H3         -6.4300    1.2500    1.7870 h1        1 XD2      0.064033
     32 H6          6.6870   -0.9160    1.2080 ho        1 XD2      0.427000
     33 H9          6.6750    3.8650    1.3960 ha        1 XD2      0.131000
     34 H10         4.2760    1.2080   -2.0800 ha        1 XD2      0.135500
     35 H11         6.8220    1.3770    1.4140 ha        1 XD2      0.135500
     36 H12         0.3280   -2.8590   -0.2330 h4        1 XD2      0.097200
     37 H14        -3.4810   -1.3330   -0.5330 h1        1 XD2      0.102200
     38 H15        -3.0180    0.0380   -1.6480 h1        1 XD2      0.102200
     39 H16        -1.2290    1.8310    0.6840 h1        1 XD2      0.069700
     40 H17        -1.3240    1.5650   -1.1100 h1        1 XD2      0.069700
     41 H18         3.1070   -0.4870   -1.0910 hn        1 XD2      0.332500
     42 H20         5.6520   -0.7460   -1.3890 h1        1 XD2      0.093700
     43 H21         2.3190   -2.2000    1.1940 h1        1 XD2      0.106700
     44 H22         1.6570    0.1010    1.7970 h2        1 XD2      0.084700
     45 H5          0.1240   -1.8060    2.1560 hn        1 XD2      0.417800
     46 SAT        -4.1880    0.7870    0.3400 ss        1 XD2     -0.209400
     47 CAV        -1.9900   -2.5030    1.1340 c         1 XD2      0.908800
     48 H7          5.3250    5.0260   -0.3560 ha        1 XD2      0.127000
     49 OAD         1.6150   -2.5140   -1.8140 o         1 XD2     -0.546100
     50 H8          4.1260    3.6890   -2.0900 ha        1 XD2      0.131000
@<TRIPOS>BOND
     1    1   28 1   
     2    1   29 1   
     3    1   30 1   
     4    1   31 1   
     5    2   47 1   
     6    3   20 2   
     7    4   47 1   
     8    5   25 1   
     9    5   32 1   
    10    6    7 ar  
    11    6    8 ar  
    12    6   48 1   
    13    7    9 ar  
    14    7   50 1   
    15    8   10 ar  
    16    8   33 1   
    17    9   23 ar  
    18    9   34 1   
    19   10   23 ar  
    20   10   35 1   
    21   11   26 1   
    22   11   36 1   
    23   11   49 2   
    24   12   21 1   
    25   12   37 1   
    26   12   38 1   
    27   12   46 1   
    28   13   19 1   
    29   13   21 1   
    30   13   39 1   
    31   13   40 1   
    32   14   15 1   
    33   14   16 2   
    34   15   24 2   
    35   16   28 1   
    36   17   20 1   
    37   17   26 1   
    38   17   41 1   
    39   18   22 1   
    40   18   27 1   
    41   18   45 1   
    42   19   27 1   
    43   20   25 1   
    44   21   22 2   
    45   22   47 1   
    46   23   25 1   
    47   24   28 1   
    48   24   46 1   
    49   25   42 1   
    50   26   27 1   
    51   26   43 1   
    52   27   44 1   
@<TRIPOS>SUBSTRUCTURE
     1 XD2         1 TEMP              0 ****  ****    0 ROOT
