@<TRIPOS>MOLECULE
XD2
   51    50     1     0     0
SMALL
bcc


@<TRIPOS>ATOM
      1 CAA         2.3780    2.4920   -2.8350 c1        1 XD2     -0.018000
      2 OAB         5.4930    0.2790   -4.0780 o         1 XD2     -0.530000
      3 OAC         4.0720    1.6830  -11.0840 o         1 XD2     -0.384000
      4 OAE         3.6330   -0.2570   -2.9360 o         1 XD2     -0.530000
      5 OAF         2.0980    0.8830  -12.8300 oh        1 XD2     -0.300000
      6 CAG         0.4130   -1.7960   -8.8610 c3        1 XD2     -0.129000
      7 CAH         1.8550   -2.0540   -8.9680 c2        1 XD2     -0.507000
      8 CAI        -0.1360   -0.8370   -9.8410 c2        1 XD2     -0.078000
      9 CAJ         2.5800   -1.5160  -10.0460 c2        1 XD2     -0.156000
     10 CAK         0.6170   -0.3130  -10.8360 c2        1 XD2     -0.158000
     11 CAL         6.3260    1.5020   -8.1190 c1        1 XD2     -0.090000
     12 CAM         4.3110   -0.5330    0.0930 c1        1 XD2     -1.028000
     13 CAN         2.0110   -2.3940   -6.1120 c2        1 XD2     -0.803000
     14 NAO         0.5730    2.1250    0.0500 n2        1 XD2     -0.043000
     15 NAP         1.6250    1.3310    0.4230 n2        1 XD2     -0.116000
     16 NAQ         0.7020    2.6120   -1.0970 n2        1 XD2      0.026000
     17 NAR         5.2650   -0.1900  -11.6070 nt        1 XD2     -0.413000
     18 NAS         4.6280   -1.2250   -6.2400 n7        1 XD2      0.145000
     19 SAU         2.7420   -2.4970   -7.5820 s6        1 XD2      1.858000
     20 CAW         4.1080    0.5270  -11.5600 c2        1 XD2      0.278000
     21 CAX         2.5710   -1.7390   -5.0620 c2        1 XD2      0.084000
     22 CAY         3.8680   -1.1160   -5.1440 c2        1 XD2     -0.193000
     23 CAZ         2.0040   -0.6610  -10.9600 c2        1 XD2      0.026000
     24 CBA         2.4940    1.3230   -0.5900 c2        1 XD2     -0.426000
     25 CBB         2.8040   -0.0960  -12.1010 c3        1 XD2      0.039000
     26 CBC         6.3510    1.3730   -6.9300 c1        1 XD2     -0.256000
     27 CBD         4.2360   -1.8740   -7.3600 c2        1 XD2     -0.901000
     28 NBE         1.9160    2.1710   -1.6260 na        1 XD2     -0.154000
     29 H1          1.7900    0.6430   -4.3330 ha        1 XD2      0.005000
     30 H2          3.3740    2.0430   -3.0620 ha        1 XD2      0.074000
     31 H3          1.2670    1.0740   -4.3890 ha        1 XD2      0.005000
     32 H6          2.1070    1.7060  -12.3150 ho        1 XD2      0.236000
     33 H10         3.6480   -1.7780  -10.1360 ha        1 XD2      0.142000
     34 H11         0.1920    0.3890  -11.5750 ha        1 XD2      0.169000
     35 H12         5.6420    2.1730   -9.7120 ho        1 XD2      0.258000
     36 H14         4.4920   -1.3540    0.7460 ha        1 XD2      0.203000
     37 H15         2.0710   -1.6390   -4.0760 ha        1 XD2      0.200000
     38 H16         2.8910   -3.7520   -7.8590 hs        1 XD2     -0.199000
     39 H17         1.0300   -2.8700   -5.9600 h4        1 XD2      0.174000
     40 H18         6.1020    0.2100  -11.2470 hn        1 XD2      0.242500
     41 H20         3.0030   -0.9150  -12.8530 h1        1 XD2      0.147000
     42 H21         6.3780    1.3120   -5.8630 ha        1 XD2      0.280000
     43 H22         4.9950   -1.9340   -8.1550 h5        1 XD2      0.181000
     44 H5          5.5360   -0.7660   -6.2180 hn        1 XD2      0.296000
     45 SAT         4.0660    0.4840   -0.7470 ss        1 XD2      1.432000
     46 CAV         4.3860   -0.2960   -3.9480 c2        1 XD2      0.398000
     47 H7          0.1540   -1.4460   -7.8150 hc        1 XD2      0.155500
     48 H8         -0.1250   -2.7870   -8.9920 hc        1 XD2      0.155500
     49 HAR2        5.3120   -1.0590  -12.0740 hn        1 XD2      0.242500
     50 OAD         6.3570    1.5560   -9.4440 oh        1 XD2     -0.193000
     51 H9         -1.1970   -0.5620   -9.7200 ha        1 XD2      0.153000
@<TRIPOS>BOND
     1    1   28 1   
     2    1   30 1   
     3    2   46 1   
     4    3   20 1   
     5    4   46 1   
     6    5   25 1   
     7    5   32 1   
     8    6    7 1   
     9    6    8 1   
    10    6   47 1   
    11    6   48 1   
    12    7    9 1   
    13    7   19 1   
    14    8   10 1   
    15    8   51 1   
    16    9   23 1   
    17    9   33 1   
    18   10   23 1   
    19   10   34 1   
    20   11   26 1   
    21   11   50 1   
    22   12   36 1   
    23   12   45 1   
    24   13   19 1   
    25   13   21 1   
    26   13   39 1   
    27   14   15 1   
    28   14   16 1   
    29   15   24 1   
    30   16   28 1   
    31   17   20 1   
    32   17   40 1   
    33   17   49 1   
    34   18   22 1   
    35   18   27 1   
    36   18   44 1   
    37   19   27 1   
    38   19   38 1   
    39   20   25 1   
    40   21   22 1   
    41   21   37 1   
    42   22   46 1   
    43   23   25 1   
    44   24   28 1   
    45   24   45 1   
    46   25   41 1   
    47   26   42 1   
    48   27   43 1   
    49   29   31 1   
    50   35   50 1   
@<TRIPOS>SUBSTRUCTURE
     1 XD2         1 TEMP              0 ****  ****    0 ROOT
