@<TRIPOS>MOLECULE
XD6
   44    45     1     0     0
SMALL
bcc


@<TRIPOS>ATOM
      1 C1          0.0790   -0.6530   -0.2820 c         1 XD6      0.672700
      2 C2          1.5230   -0.3660   -0.1670 ca        1 XD6     -0.172600
      3 C3          2.2910   -0.2720   -1.3450 ca        1 XD6      0.206100
      4 C4          3.6660   -0.0270   -1.2930 ca        1 XD6     -0.249000
      5 C5          4.2750    0.1370   -0.0420 ca        1 XD6      0.201100
      6 C6          3.5150    0.0600    1.1440 ca        1 XD6     -0.096600
      7 C7          2.1390   -0.2080    1.0840 ca        1 XD6      0.058700
      8 C8          1.3210   -0.2930    2.3260 c3        1 XD6     -0.158100
      9 C9          1.3840   -1.6240    3.0380 c         1 XD6      0.577100
     10 C10         0.2680   -1.8350    4.0270 c3        1 XD6     -0.178400
     11 C11        -0.9840   -2.3240    3.3240 c3        1 XD6     -0.081400
     12 C12        -2.2330   -2.0460    4.1330 c3        1 XD6     -0.074400
     13 C13        -3.4740   -1.9700    3.2580 c3        1 XD6     -0.036200
     14 C14        -3.5020   -0.7140    2.4510 ce        1 XD6     -0.223400
     15 C15        -3.0300   -0.6880    1.1920 c2        1 XD6     -0.105200
     16 C16        -2.9390    0.5110    0.3270 c3        1 XD6     -0.091200
     17 C17        -2.0510    0.2930   -0.8870 c3        1 XD6      0.136400
     18 O1         -0.6670    0.4640   -0.5540 os        1 XD6     -0.430900
     19 O2         -0.4990   -1.7340   -0.1700 o         1 XD6     -0.531000
     20 O3          1.6270   -0.4360   -2.5340 oh        1 XD6     -0.486100
     21 O4          5.6210    0.3820   -0.0720 oh        1 XD6     -0.484100
     22 CL1         4.2910    0.2930    2.6420 cl        1 XD6     -0.078400
     23 O5          2.2730   -2.4570    2.8570 o         1 XD6     -0.508100
     24 C21        -4.0530    0.4840    3.1090 c         1 XD6      0.564100
     25 O22        -4.4070    0.5190    4.2900 o         1 XD6     -0.526100
     26 H4          4.2740    0.0370   -2.2060 ha        1 XD6      0.164000
     27 H3          2.2750   -0.3780   -3.2540 ho        1 XD6      0.433000
     28 HA          5.9520    0.4260    0.8410 ho        1 XD6      0.439000
     29 H81C        0.2440   -0.0720    2.0840 hc        1 XD6      0.087700
     30 H82C        1.6580    0.4930    3.0590 hc        1 XD6      0.087700
     31 H101        0.0670   -0.8670    4.5560 hc        1 XD6      0.066200
     32 H102        0.5890   -2.5850    4.7970 hc        1 XD6      0.066200
     33 H111       -1.0680   -1.8270    2.3180 hc        1 XD6      0.055700
     34 H112       -0.8950   -3.4250    3.1280 hc        1 XD6      0.055700
     35 H121       -2.1330   -1.0810    4.6970 hc        1 XD6      0.048700
     36 H122       -2.3750   -2.8590    4.8930 hc        1 XD6      0.048700
     37 H131       -4.3820   -1.9960    3.9200 hc        1 XD6      0.057200
     38 H132       -3.5140   -2.8650    2.5840 hc        1 XD6      0.057200
     39 H15        -2.6460   -1.6230    0.7350 ha        1 XD6      0.157000
     40 H161       -2.5470    1.3890    0.9080 hc        1 XD6      0.068700
     41 H162       -3.9680    0.7800   -0.0410 hc        1 XD6      0.068700
     42 H171       -2.2250   -0.7130   -1.3510 h1        1 XD6      0.070700
     43 H172       -2.2280    1.1050   -1.6450 h1        1 XD6      0.070700
     44 H21        -4.1440    1.3870    2.4600 h4        1 XD6     -0.009800
@<TRIPOS>BOND
     1    1    2 1   
     2    1   18 1   
     3    1   19 2   
     4    2    3 ar  
     5    2    7 ar  
     6    3    4 ar  
     7    3   20 1   
     8    4    5 ar  
     9    4   26 1   
    10    5    6 ar  
    11    5   21 1   
    12    6    7 ar  
    13    6   22 1   
    14    7    8 1   
    15    8    9 1   
    16    8   29 1   
    17    8   30 1   
    18    9   10 1   
    19    9   23 2   
    20   10   11 1   
    21   10   31 1   
    22   10   32 1   
    23   11   12 1   
    24   11   33 1   
    25   11   34 1   
    26   12   13 1   
    27   12   35 1   
    28   12   36 1   
    29   13   14 1   
    30   13   37 1   
    31   13   38 1   
    32   14   15 2   
    33   14   24 1   
    34   15   16 1   
    35   15   39 1   
    36   16   17 1   
    37   16   40 1   
    38   16   41 1   
    39   17   18 1   
    40   17   42 1   
    41   17   43 1   
    42   20   27 1   
    43   21   28 1   
    44   24   25 2   
    45   24   44 1   
@<TRIPOS>SUBSTRUCTURE
     1 XD6         1 TEMP              0 ****  ****    0 ROOT
