@<TRIPOS>MOLECULE
XD6
   44    45     1     0     0
SMALL
bcc


@<TRIPOS>ATOM
      1 C1          0.0770   -0.6510   -0.2820 c         1 XD6      0.672700
      2 C2          1.5220   -0.3710   -0.1690 ca        1 XD6     -0.172600
      3 C3          2.2890   -0.2780   -1.3470 ca        1 XD6      0.206100
      4 C4          3.6650   -0.0400   -1.2970 ca        1 XD6     -0.249000
      5 C5          4.2760    0.1190   -0.0460 ca        1 XD6      0.201100
      6 C6          3.5180    0.0430    1.1400 ca        1 XD6     -0.096600
      7 C7          2.1400   -0.2180    1.0820 ca        1 XD6      0.058700
      8 C8          1.3240   -0.3030    2.3250 c3        1 XD6     -0.158100
      9 C9          1.3820   -1.6350    3.0330 c         1 XD6      0.577100
     10 C10         0.2660   -1.8440    4.0230 c3        1 XD6     -0.178400
     11 C11        -0.9890   -2.3250    3.3210 c3        1 XD6     -0.081400
     12 C12        -2.2360   -2.0420    4.1330 c3        1 XD6     -0.074400
     13 C13        -3.4780   -1.9580    3.2600 c3        1 XD6     -0.036200
     14 C14        -3.5010   -0.7000    2.4550 ce        1 XD6     -0.223400
     15 C15        -3.0300   -0.6740    1.1960 c2        1 XD6     -0.105200
     16 C16        -2.9360    0.5260    0.3330 c3        1 XD6     -0.091200
     17 C17        -2.0490    0.3060   -0.8830 c3        1 XD6      0.136400
     18 O1         -0.6650    0.4700   -0.5510 os        1 XD6     -0.430900
     19 O2         -0.5060   -1.7300   -0.1720 o         1 XD6     -0.531000
     20 O3          1.6230   -0.4360   -2.5360 oh        1 XD6     -0.486100
     21 O4          5.6240    0.3580   -0.0780 oh        1 XD6     -0.484100
     22 Cl1         4.2970    0.2690    2.6380 cl        1 XD6     -0.078400
     23 O5          2.2660   -2.4720    2.8490 o         1 XD6     -0.508100
     24 C21        -4.0450    0.4990    3.1170 c         1 XD6      0.564100
     25 O22        -4.3970    0.5330    4.2980 o         1 XD6     -0.526100
     26 H4          4.2720    0.0240   -2.2110 ha        1 XD6      0.164000
     27 H3          2.2690   -0.3800   -3.2570 ho        1 XD6      0.433000
     28 HA          5.9560    0.3980    0.8350 ho        1 XD6      0.439000
     29 H81C        0.2470   -0.0760    2.0850 hc        1 XD6      0.087700
     30 H82C        1.6660    0.4800    3.0590 hc        1 XD6      0.087700
     31 H101        0.0700   -0.8750    4.5550 hc        1 XD6      0.066200
     32 H102        0.5850   -2.5970    4.7910 hc        1 XD6      0.066200
     33 H111       -1.0730   -1.8250    2.3170 hc        1 XD6      0.055700
     34 H112       -0.9070   -3.4260    3.1230 hc        1 XD6      0.055700
     35 H121       -2.1310   -1.0780    4.6990 hc        1 XD6      0.048700
     36 H122       -2.3810   -2.8560    4.8910 hc        1 XD6      0.048700
     37 H131       -4.3850   -1.9810    3.9230 hc        1 XD6      0.057200
     38 H132       -3.5230   -2.8520    2.5840 hc        1 XD6      0.057200
     39 H15        -2.6520   -1.6100    0.7370 ha        1 XD6      0.157000
     40 H161       -2.5380    1.4010    0.9150 hc        1 XD6      0.068700
     41 H162       -3.9630    0.8010   -0.0320 hc        1 XD6      0.068700
     42 H171       -2.2290   -0.6980   -1.3480 h1        1 XD6      0.070700
     43 H172       -2.2240    1.1210   -1.6390 h1        1 XD6      0.070700
     44 H21        -4.1330    1.4040    2.4700 h4        1 XD6     -0.009800
@<TRIPOS>BOND
     1    1    2 1   
     2    1   18 1   
     3    1   19 2   
     4    2    3 ar  
     5    2    7 ar  
     6    3    4 ar  
     7    3   20 1   
     8    4    5 ar  
     9    4   26 1   
    10    5    6 ar  
    11    5   21 1   
    12    6    7 ar  
    13    6   22 1   
    14    7    8 1   
    15    8    9 1   
    16    8   29 1   
    17    8   30 1   
    18    9   10 1   
    19    9   23 2   
    20   10   11 1   
    21   10   31 1   
    22   10   32 1   
    23   11   12 1   
    24   11   33 1   
    25   11   34 1   
    26   12   13 1   
    27   12   35 1   
    28   12   36 1   
    29   13   14 1   
    30   13   37 1   
    31   13   38 1   
    32   14   15 2   
    33   14   24 1   
    34   15   16 1   
    35   15   39 1   
    36   16   17 1   
    37   16   40 1   
    38   16   41 1   
    39   17   18 1   
    40   17   42 1   
    41   17   43 1   
    42   20   27 1   
    43   21   28 1   
    44   24   25 2   
    45   24   44 1   
@<TRIPOS>SUBSTRUCTURE
     1 XD6         1 TEMP              0 ****  ****    0 ROOT
