@<TRIPOS>MOLECULE
XD6
   44    45     1     0     0
SMALL
bcc


@<TRIPOS>ATOM
      1 C1         -0.0660    1.4900    0.7620 c         1 XD6      0.657700
      2 C2         -1.3560    1.0790    0.1900 ca        1 XD6     -0.236600
      3 C3         -2.4160    2.0010    0.0680 ca        1 XD6      0.225100
      4 C4         -3.6730    1.5970   -0.4070 ca        1 XD6     -0.202000
      5 C5         -3.8560    0.2650   -0.7830 ca        1 XD6      0.202100
      6 C6         -2.7890   -0.6600   -0.7070 ca        1 XD6     -0.104600
      7 C7         -1.5420   -0.2590   -0.2160 ca        1 XD6      0.071700
      8 C8         -0.4020   -1.2190   -0.1750 c3        1 XD6     -0.160100
      9 C9         -0.3520   -2.1010    1.0470 c         1 XD6      0.582100
     10 C10         0.8990   -2.9320    1.1680 c3        1 XD6     -0.179400
     11 C11         2.1520   -2.0890    1.3190 c3        1 XD6     -0.084400
     12 C12         3.0120   -2.1160    0.0710 c3        1 XD6     -0.075400
     13 C13         4.1710   -1.1360    0.1480 c3        1 XD6     -0.043200
     14 C14         3.8380    0.1940   -0.4450 ce        1 XD6     -0.217400
     15 C15         3.2110    1.1390    0.2770 c2        1 XD6     -0.108200
     16 C16         2.8280    2.4890   -0.1950 c3        1 XD6     -0.090200
     17 C17         1.7170    3.1110    0.6380 c3        1 XD6      0.139400
     18 O1          0.4310    2.6470    0.2070 os        1 XD6     -0.459900
     19 O2          0.5950    0.9570    1.6540 o         1 XD6     -0.529000
     20 O3         -2.3330    3.3220    0.4120 oh        1 XD6     -0.487100
     21 O4         -5.1080   -0.0540   -1.2350 oh        1 XD6     -0.480100
     22 CL1        -3.0520   -2.2660   -1.2150 cl        1 XD6     -0.081400
     23 O5         -1.2610   -2.1730    1.8760 o         1 XD6     -0.510100
     24 C21         4.2470    0.4090   -1.8450 c         1 XD6      0.563100
     25 O22         5.0640   -0.3000   -2.4370 o         1 XD6     -0.521100
     26 H4         -4.4990    2.3190   -0.4790 ha        1 XD6      0.180000
     27 H3         -1.4160    3.5460    0.6380 ho        1 XD6      0.443000
     28 HA         -5.1390   -1.0070   -1.4260 ho        1 XD6      0.438000
     29 H81C       -0.4410   -1.8930   -1.0770 hc        1 XD6      0.088700
     30 H82C        0.5730   -0.6580   -0.2330 hc        1 XD6      0.088700
     31 H101        0.7900   -3.6050    2.0610 hc        1 XD6      0.068200
     32 H102        0.9720   -3.5890    0.2610 hc        1 XD6      0.068200
     33 H111        1.8790   -1.0280    1.5710 hc        1 XD6      0.058700
     34 H112        2.7530   -2.4810    2.1820 hc        1 XD6      0.058700
     35 H121        3.4220   -3.1520   -0.0670 hc        1 XD6      0.042700
     36 H122        2.3840   -1.8910   -0.8310 hc        1 XD6      0.042700
     37 H131        4.4850   -1.0070    1.2190 hc        1 XD6      0.062200
     38 H132        5.0500   -1.5660   -0.4070 hc        1 XD6      0.062200
     39 H15         2.9380    0.9200    1.3290 ha        1 XD6      0.152000
     40 H161        3.7260    3.1640   -0.1310 hc        1 XD6      0.071700
     41 H162        2.4980    2.4660   -1.2690 hc        1 XD6      0.071700
     42 H171        1.8590    2.9120    1.7330 h1        1 XD6      0.071700
     43 H172        1.6590    4.2170    0.4460 h1        1 XD6      0.071700
     44 H21         3.7690    1.2750   -2.3600 h4        1 XD6     -0.006800
@<TRIPOS>BOND
     1    1    2 1   
     2    1   18 1   
     3    1   19 2   
     4    2    3 ar  
     5    2    7 ar  
     6    3    4 ar  
     7    3   20 1   
     8    4    5 ar  
     9    4   26 1   
    10    5    6 ar  
    11    5   21 1   
    12    6    7 ar  
    13    6   22 1   
    14    7    8 1   
    15    8    9 1   
    16    8   29 1   
    17    8   30 1   
    18    9   10 1   
    19    9   23 2   
    20   10   11 1   
    21   10   31 1   
    22   10   32 1   
    23   11   12 1   
    24   11   33 1   
    25   11   34 1   
    26   12   13 1   
    27   12   35 1   
    28   12   36 1   
    29   13   14 1   
    30   13   37 1   
    31   13   38 1   
    32   14   15 2   
    33   14   24 1   
    34   15   16 1   
    35   15   39 1   
    36   16   17 1   
    37   16   40 1   
    38   16   41 1   
    39   17   18 1   
    40   17   42 1   
    41   17   43 1   
    42   20   27 1   
    43   21   28 1   
    44   24   25 2   
    45   24   44 1   
@<TRIPOS>SUBSTRUCTURE
     1 XD6         1 TEMP              0 ****  ****    0 ROOT
