@<TRIPOS>MOLECULE
XD9
   31    32     1     0     0
SMALL
bcc


@<TRIPOS>ATOM
      1 CAA         1.4920   -0.1100   -0.7450 c3        1 XD9     -0.063900
      2 CAG         1.1520    0.3630    0.6090 c2        1 XD9     -0.214200
      3 CAH         2.0400    0.5460    1.5990 ce        1 XD9     -0.051200
      4 CAM         3.4530    0.3220    1.5240 cc        1 XD9     -0.096900
      5 CAI         4.3420    0.5240    2.5660 cd        1 XD9     -0.102000
      6 SAK         4.2610   -0.2380    0.1420 ss        1 XD9     -0.043800
      7 CAO         5.7730   -0.2060    0.8760 cc        1 XD9     -0.160400
      8 CAN         5.6890    0.2180    2.1920 cd        1 XD9     -0.048300
      9 CAR         6.8520    0.3410    3.1270 c3        1 XD9      0.069100
     10 CAL         6.4510   -0.2530    4.5300 c         1 XD9      0.909600
     11 OAC         5.9660    0.5860    5.3430 o         1 XD9     -0.816800
     12 OAB         6.6300   -1.4740    4.7500 o         1 XD9     -0.816800
     13 OAF         7.1860    1.7200    3.2680 oh        1 XD9     -0.630800
     14 CAJ         8.0760   -0.3790    2.5640 c3        1 XD9     -0.056400
     15 CAP         8.2450   -0.0890    1.0810 c3        1 XD9      0.120100
     16 OAD         9.4480   -0.7080    0.6410 oh        1 XD9     -0.606800
     17 CAQ         7.0520   -0.6270    0.2590 c3        1 XD9      0.185400
     18 OAE         7.1940   -0.2100   -1.0950 oh        1 XD9     -0.621800
     19 HAA1        2.2090    0.5960   -1.2430 hc        1 XD9      0.039700
     20 HAA2        1.9870   -1.1170   -0.7000 hc        1 XD9      0.039700
     21 HAA3        0.5810   -0.1950   -1.3850 hc        1 XD9      0.039700
     22 HAG         0.0850    0.5690    0.7910 ha        1 XD9      0.111000
     23 HAH         1.6880    0.9010    2.5860 ha        1 XD9      0.129000
     24 HAI         4.0950    0.8540    3.5820 ha        1 XD9      0.186000
     25 HAQ         7.1130   -1.7540    0.2000 h1        1 XD9      0.088700
     26 HAF         6.7590    2.0260    4.0850 ho        1 XD9      0.428000
     27 HAJ1        7.9540   -1.4790    2.7400 hc        1 XD9      0.073700
     28 HAJ2        8.9900   -0.0350    3.1120 hc        1 XD9      0.073700
     29 HAP         8.3270    1.0240    0.9190 h1        1 XD9      0.041700
     30 HAD         9.4380   -0.6590   -0.3230 ho        1 XD9      0.394000
     31 HAE         7.0730    0.7470   -1.1110 ho        1 XD9      0.400000
@<TRIPOS>BOND
     1    1    2 1   
     2    1   19 1   
     3    1   20 1   
     4    1   21 1   
     5    2    3 2   
     6    2   22 1   
     7    3    4 1   
     8    3   23 1   
     9    4    5 2   
    10    4    6 1   
    11    5    8 1   
    12    5   24 1   
    13    6    7 1   
    14    7    8 2   
    15    7   17 1   
    16    8    9 1   
    17    9   10 1   
    18    9   13 1   
    19    9   14 1   
    20   10   11 1   
    21   10   12 1   
    22   13   26 1   
    23   14   15 1   
    24   14   27 1   
    25   14   28 1   
    26   15   16 1   
    27   15   17 1   
    28   15   29 1   
    29   16   30 1   
    30   17   18 1   
    31   17   25 1   
    32   18   31 1   
@<TRIPOS>SUBSTRUCTURE
     1 XD9         1 TEMP              0 ****  ****    0 ROOT
