@<TRIPOS>MOLECULE
XD9
   31    32     1     0     0
SMALL
bcc


@<TRIPOS>ATOM
      1 CAA         1.5600    0.0610   -0.8630 c3        1 XD9     -0.063900
      2 CAG         1.1780    0.4210    0.5140 c2        1 XD9     -0.214200
      3 CAH         2.0360    0.5260    1.5410 ce        1 XD9     -0.051200
      4 CAM         3.4530    0.3130    1.4900 cc        1 XD9     -0.096900
      5 CAI         4.3100    0.4320    2.5700 cd        1 XD9     -0.102000
      6 SAK         4.3030   -0.1310    0.0900 ss        1 XD9     -0.043800
      7 CAO         5.7930   -0.1530    0.8680 cc        1 XD9     -0.160400
      8 CAN         5.6680    0.1630    2.2120 cd        1 XD9     -0.048300
      9 CAR         6.8030    0.2120    3.1870 c3        1 XD9      0.069100
     10 CAL         6.3660   -0.4940    4.5250 c         1 XD9      0.909600
     11 OAC         5.8530    0.2740    5.3890 o         1 XD9     -0.816800
     12 OAB         6.5450   -1.7290    4.6510 o         1 XD9     -0.816800
     13 OAF         7.1270    1.5760    3.4480 oh        1 XD9     -0.630800
     14 CAJ         8.0470   -0.4560    2.6040 c3        1 XD9     -0.056400
     15 CAP         8.2570   -0.0460    1.1540 c3        1 XD9      0.120100
     16 OAD         9.4760   -0.6240    0.7010 oh        1 XD9     -0.606800
     17 CAQ         7.0910   -0.5200    0.2570 c3        1 XD9      0.185400
     18 OAE         7.2700    0.0070   -1.0540 oh        1 XD9     -0.621800
     19 HAA1        2.2870    0.8070   -1.2810 hc        1 XD9      0.039700
     20 HAA2        0.6680    0.0250   -1.5340 hc        1 XD9      0.039700
     21 HAA3        2.0580   -0.9450   -0.8860 hc        1 XD9      0.039700
     22 HAG         0.1060    0.6080    0.6810 ha        1 XD9      0.111000
     23 HAH         1.6540    0.7980    2.5430 ha        1 XD9      0.129000
     24 HAI         4.0320    0.6780    3.6020 ha        1 XD9      0.186000
     25 HAQ         7.1600   -1.6370    0.1080 h1        1 XD9      0.088700
     26 HAF         6.6740    1.8140    4.2740 ho        1 XD9      0.428000
     27 HAJ1        8.9430   -0.1550    3.2040 hc        1 XD9      0.073700
     28 HAJ2        7.9260   -1.5680    2.6860 hc        1 XD9      0.073700
     29 HAP         8.3380    1.0760    1.0850 h1        1 XD9      0.041700
     30 HAD         9.4940   -0.4970   -0.2560 ho        1 XD9      0.394000
     31 HAE         7.1440    0.9620   -0.9960 ho        1 XD9      0.400000
@<TRIPOS>BOND
     1    1    2 1   
     2    1   19 1   
     3    1   20 1   
     4    1   21 1   
     5    2    3 2   
     6    2   22 1   
     7    3    4 1   
     8    3   23 1   
     9    4    5 2   
    10    4    6 1   
    11    5    8 1   
    12    5   24 1   
    13    6    7 1   
    14    7    8 2   
    15    7   17 1   
    16    8    9 1   
    17    9   10 1   
    18    9   13 1   
    19    9   14 1   
    20   10   11 1   
    21   10   12 1   
    22   13   26 1   
    23   14   15 1   
    24   14   27 1   
    25   14   28 1   
    26   15   16 1   
    27   15   17 1   
    28   15   29 1   
    29   16   30 1   
    30   17   18 1   
    31   17   25 1   
    32   18   31 1   
@<TRIPOS>SUBSTRUCTURE
     1 XD9         1 TEMP              0 ****  ****    0 ROOT
