@<TRIPOS>MOLECULE
XD9
   31    32     1     0     0
SMALL
bcc


@<TRIPOS>ATOM
      1 CAA         5.9490    0.1670   -0.0120 c3        1 XD9     -0.047900
      2 CAG         4.5430   -0.2690   -0.0750 c2        1 XD9     -0.217200
      3 CAH         3.5000    0.5580    0.0960 ce        1 XD9     -0.046200
      4 CAM         2.1220    0.1630    0.0380 cc        1 XD9     -0.097900
      5 CAI         1.0470    1.0060    0.2540 cd        1 XD9     -0.099000
      6 SAK         1.5990   -1.4100   -0.3180 ss        1 XD9     -0.054800
      7 CAO        -0.0320   -1.0170   -0.1740 cc        1 XD9     -0.149400
      8 CAN        -0.2050    0.3220    0.1320 cd        1 XD9     -0.049300
      9 CAR        -1.5310    0.9940    0.3090 c3        1 XD9      0.069100
     10 CAL        -1.5110    2.3830   -0.4330 c         1 XD9      0.909600
     11 OAC        -1.1430    3.3610    0.2790 o         1 XD9     -0.816800
     12 OAB        -1.8470    2.4340   -1.6410 o         1 XD9     -0.816800
     13 OAF        -1.7620    1.1980    1.7020 oh        1 XD9     -0.629800
     14 CAJ        -2.6590    0.1110   -0.2230 c3        1 XD9     -0.056400
     15 CAP        -2.4650   -1.3360    0.2010 c3        1 XD9      0.120100
     16 OAD        -3.5900   -2.0840   -0.2440 oh        1 XD9     -0.606800
     17 CAQ        -1.1720   -1.9350   -0.4000 c3        1 XD9      0.184400
     18 OAE        -0.9690   -3.2370    0.1380 oh        1 XD9     -0.620800
     19 HAA1        6.4910   -0.3900    0.7930 hc        1 XD9      0.030700
     20 HAA2        6.4620   -0.0440   -0.9840 hc        1 XD9      0.030700
     21 HAA3        6.0370    1.2620    0.1990 hc        1 XD9      0.030700
     22 HAG         4.3890   -1.3420   -0.2780 ha        1 XD9      0.117000
     23 HAH         3.6630    1.6330    0.2970 ha        1 XD9      0.129000
     24 HAI         1.0900    2.0790    0.4720 ha        1 XD9      0.186000
     25 HAQ        -1.3200   -2.1210   -1.5040 h1        1 XD9      0.088700
     26 HAF        -1.5010    2.1150    1.8930 ho        1 XD9      0.428000
     27 HAJ1       -3.6370    0.4820    0.1760 hc        1 XD9      0.074200
     28 HAJ2       -2.6810    0.1970   -1.3400 hc        1 XD9      0.074200
     29 HAP        -2.4070   -1.3990    1.3250 h1        1 XD9      0.041700
     30 HAD        -3.3620   -3.0140   -0.1190 ho        1 XD9      0.394000
     31 HAE        -0.7590   -3.1290    1.0730 ho        1 XD9      0.400000
@<TRIPOS>BOND
     1    1    2 1   
     2    1   19 1   
     3    1   20 1   
     4    1   21 1   
     5    2    3 2   
     6    2   22 1   
     7    3    4 1   
     8    3   23 1   
     9    4    5 2   
    10    4    6 1   
    11    5    8 1   
    12    5   24 1   
    13    6    7 1   
    14    7    8 2   
    15    7   17 1   
    16    8    9 1   
    17    9   10 1   
    18    9   13 1   
    19    9   14 1   
    20   10   11 1   
    21   10   12 1   
    22   13   26 1   
    23   14   15 1   
    24   14   27 1   
    25   14   28 1   
    26   15   16 1   
    27   15   17 1   
    28   15   29 1   
    29   16   30 1   
    30   17   18 1   
    31   17   25 1   
    32   18   31 1   
@<TRIPOS>SUBSTRUCTURE
     1 XD9         1 TEMP              0 ****  ****    0 ROOT
