@<TRIPOS>MOLECULE
XDA
   58    59     1     0     0
SMALL
bcc


@<TRIPOS>ATOM
      1 O8          0.5350    0.5390   -0.7180 o         1 XDA     -0.596100
      2 C7          1.6730    0.2890   -0.2730 c         1 XDA      0.662100
      3 N9          2.7300    0.1790   -1.1740 n         1 XDA     -0.482800
      4 C11         4.0980    0.0210   -0.7810 c3        1 XDA      0.079300
      5 C10         2.5160    0.4650   -2.5680 c3        1 XDA      0.079300
      6 C4          1.9220    0.0490    1.2080 c3        1 XDA     -0.135700
      7 C5          2.6450    1.2200    1.8550 c3        1 XDA     -0.074400
      8 C6          3.1240    0.8330    3.2440 c3        1 XDA     -0.042200
      9 C1          2.1570   -0.0190    3.9770 c2        1 XDA     -0.178200
     10 C2          1.0460   -0.5280    3.4410 c2        1 XDA     -0.156200
     11 C3          0.6350   -0.2810    2.0070 c3        1 XDA      0.154900
     12 N12        -0.3890    0.7480    1.9360 n         1 XDA     -0.519900
     13 C13        -1.6250    0.4710    2.5190 c         1 XDA      0.725100
     14 O14        -1.8830   -0.4100    3.3610 o         1 XDA     -0.614000
     15 O15        -2.6010    1.3430    2.1180 os        1 XDA     -0.419900
     16 C16        -3.8750    1.2010    2.7960 c3        1 XDA      0.208700
     17 C17        -4.7290    2.3450    2.3750 ca        1 XDA     -0.126300
     18 C22        -4.2500    3.6570    2.4430 ca        1 XDA     -0.142000
     19 C21        -5.0820    4.7180    2.1000 ca        1 XDA     -0.098000
     20 C18        -6.0410    2.1110    1.9530 ca        1 XDA     -0.142000
     21 C19        -6.8860    3.1730    1.6190 ca        1 XDA     -0.098000
     22 C20        -6.4040    4.4850    1.6960 ca        1 XDA     -0.105600
     23 C23        -7.2420    5.6800    1.3370 c         1 XDA      0.638700
     24 O24        -6.6560    6.7590    1.0270 o         1 XDA     -0.733100
     25 N25        -8.5880    5.5660    1.4320 n         1 XDA     -0.518900
     26 C26        -9.4910    6.5730    0.9430 c3        1 XDA      0.045000
     27 C27       -10.7570    5.9540    0.2820 c3        1 XDA      0.205400
     28 O28       -11.4290    5.1190    1.1350 os        1 XDA     -0.570200
     29 P29       -11.3640    3.4370    0.7320 p5        1 XDA      1.340900
     30 O31        -9.9420    3.1320    1.1850 o         1 XDA     -0.921167
     31 O30       -12.4560    2.8410    1.5630 o         1 XDA     -0.921167
     32 O32       -11.5350    3.4580   -0.7580 o         1 XDA     -0.921167
     33 H11B        4.1860   -0.4960    0.2090 h1        1 XDA      0.040200
     34 H11A        4.6350   -0.5990   -1.5510 h1        1 XDA      0.040200
     35 H11C        4.6150    1.0180   -0.7130 h1        1 XDA      0.040200
     36 H10C        2.9040   -0.3880   -3.1870 h1        1 XDA      0.040200
     37 H10B        1.4210    0.6020   -2.7790 h1        1 XDA      0.040200
     38 H10A        3.0640    1.4010   -2.8620 h1        1 XDA      0.040200
     39 H4          2.5600   -0.8780    1.3100 hc        1 XDA      0.070700
     40 H5A         3.5230    1.5320    1.2330 hc        1 XDA      0.056200
     41 H5B         1.9530    2.1000    1.9220 hc        1 XDA      0.056200
     42 H6B         4.1000    0.2810    3.1620 hc        1 XDA      0.042700
     43 H6A         3.3210    1.7660    3.8370 hc        1 XDA      0.042700
     44 H1          2.4190   -0.2220    5.0280 ha        1 XDA      0.120000
     45 H2          0.3250   -1.1270    4.0220 ha        1 XDA      0.163000
     46 H3          0.2230   -1.2520    1.5890 h1        1 XDA      0.053700
     47 H12        -0.4220    1.2720    1.0840 hn        1 XDA      0.337500
     48 H16A       -3.6900    1.2140    3.9030 h1        1 XDA      0.051200
     49 H16B       -4.3100    0.2100    2.5020 h1        1 XDA      0.051200
     50 H22        -3.2130    3.8400    2.7560 ha        1 XDA      0.119500
     51 H21        -4.7130    5.7550    2.1340 ha        1 XDA      0.204500
     52 H18        -6.4280    1.0830    1.8880 ha        1 XDA      0.119500
     53 H19        -7.9420    2.9530    1.3050 ha        1 XDA      0.204500
     54 H25        -9.0430    4.6340    1.5460 hn        1 XDA      0.413500
     55 H26A       -9.8120    7.2100    1.8150 h1        1 XDA      0.012200
     56 H26B       -8.9730    7.2400    0.1990 h1        1 XDA      0.012200
     57 H27A      -10.4660    5.4150   -0.6650 h1        1 XDA      0.002200
     58 H27B      -11.4140    6.8350    0.0140 h1        1 XDA      0.002200
@<TRIPOS>BOND
     1    1    2 2   
     2    2    3 1   
     3    2    6 1   
     4    3    4 1   
     5    3    5 1   
     6    4   33 1   
     7    4   34 1   
     8    4   35 1   
     9    5   36 1   
    10    5   37 1   
    11    5   38 1   
    12    6    7 1   
    13    6   11 1   
    14    6   39 1   
    15    7    8 1   
    16    7   40 1   
    17    7   41 1   
    18    8    9 1   
    19    8   42 1   
    20    8   43 1   
    21    9   10 2   
    22    9   44 1   
    23   10   11 1   
    24   10   45 1   
    25   11   12 1   
    26   11   46 1   
    27   12   13 1   
    28   12   47 1   
    29   13   14 2   
    30   13   15 1   
    31   15   16 1   
    32   16   17 1   
    33   16   48 1   
    34   16   49 1   
    35   17   18 ar  
    36   17   20 ar  
    37   18   19 ar  
    38   18   50 1   
    39   19   22 ar  
    40   19   51 1   
    41   20   21 ar  
    42   20   52 1   
    43   21   22 ar  
    44   21   53 1   
    45   22   23 1   
    46   23   24 2   
    47   23   25 1   
    48   25   26 1   
    49   25   54 1   
    50   26   27 1   
    51   26   55 1   
    52   26   56 1   
    53   27   28 1   
    54   27   57 1   
    55   27   58 1   
    56   28   29 1   
    57   29   30 1   
    58   29   31 1   
    59   29   32 1   
@<TRIPOS>SUBSTRUCTURE
     1 XDA         1 TEMP              0 ****  ****    0 ROOT
