@<TRIPOS>MOLECULE
XDA
   61    62     1     0     0
SMALL
bcc


@<TRIPOS>ATOM
      1 O8          0.0000    0.0000    0.0000 o         1 XDA     -0.716100
      2 C7          1.2120    0.0000    0.0000 c         1 XDA      0.008100
      3 N9          1.8860    0.0050   -1.1680 nx        1 XDA      0.233800
      4 C11         3.3440   -0.1360   -1.1720 c3        1 XDA      0.010100
      5 C10         1.1610    0.1500   -2.4320 c3        1 XDA      0.010100
      6 C4          1.9670    0.0000    1.3050 c3        1 XDA     -0.077700
      7 C5          2.7110    1.3310    1.4700 c3        1 XDA     -0.043400
      8 C6          3.6050    1.2340    2.7090 c3        1 XDA      0.006800
      9 C1          2.8170    0.7180    3.8750 c2        1 XDA     -0.057200
     10 C2          1.6790    0.1100    3.7710 c2        1 XDA     -0.248200
     11 C3          0.9830   -0.1520    2.4670 c3        1 XDA      0.089700
     12 N12        -0.1150    0.8040    2.3010 ny        1 XDA      0.017200
     13 C13        -1.3150    0.5550    2.8610 c         1 XDA      0.516100
     14 O14        -1.4870   -0.4630    3.5020 o         1 XDA     -0.508000
     15 O15        -2.3250    1.4330    2.7100 os        1 XDA     -0.404900
     16 C16        -3.5890    1.0990    3.3400 c3        1 XDA      0.297700
     17 C17        -4.5910    2.1900    3.0640 ca        1 XDA     -0.074300
     18 C22        -5.3960    2.1190    1.9400 ca        1 XDA     -0.063000
     19 C21        -6.3140    3.1150    1.6810 ca        1 XDA     -0.034000
     20 C18        -4.6990    3.2620    3.9320 ca        1 XDA     -0.063000
     21 C19        -5.6140    4.2640    3.6850 ca        1 XDA     -0.034000
     22 C20        -6.4320    4.1960    2.5560 ca        1 XDA     -0.211600
     23 C23        -7.4150    5.2660    2.2860 c         1 XDA      0.387700
     24 O24        -7.5130    6.2090    3.0470 o         1 XDA     -0.448100
     25 N25        -8.2040    5.1970    1.1950 ny        1 XDA      0.148200
     26 C26        -9.1780    6.2580    0.9260 c3        1 XDA     -0.039200
     27 C27        -9.9380    5.9380   -0.3630 c3        1 XDA      0.290400
     28 O28       -10.7120    4.7520   -0.1780 os        1 XDA     -0.524200
     29 P29       -11.6400    4.1220   -1.3320 p5        1 XDA      0.826900
     30 O31       -12.5880    5.1490   -1.8190 o         1 XDA     -0.399500
     31 O30       -10.7140    3.6230   -2.5510 o         1 XDA     -0.399500
     32 O32       -12.4630    2.8720   -0.7370 o         1 XDA     -0.399500
     33 H11B        3.8020    0.8460   -1.1640 hx        1 XDA      0.049700
     34 H11A        3.6570   -0.6870   -0.2930 hx        1 XDA      0.049700
     35 H11C        3.6530   -0.6710   -2.0620 hx        1 XDA      0.049700
     36 H10C        0.4970    1.0040   -2.3720 hx        1 XDA      0.049700
     37 H10B        1.8680    0.2980   -3.2390 hx        1 XDA      0.049700
     38 H10A        0.5800   -0.7450   -2.6200 hx        1 XDA      0.049700
     39 H4          2.6770   -0.8180    1.3210 hc        1 XDA      0.065700
     40 H5A         1.9960    2.1340    1.6000 hc        1 XDA      0.023200
     41 H5B         3.3220    1.5170    0.5950 hc        1 XDA      0.023200
     42 H6B         4.4270    0.5580    2.5050 hc        1 XDA      0.042700
     43 H6A         3.9940    2.2170    2.9470 hc        1 XDA      0.042700
     44 H1          3.2260    0.8620    4.8680 ha        1 XDA      0.118000
     45 H2          1.1990   -0.2310    4.6800 ha        1 XDA      0.134000
     46 H3          0.5890   -1.1610    2.4710 hx        1 XDA      0.102700
     47 H12         0.2010    1.6830    2.6600 hn        1 XDA      0.299800
     48 H16A       -3.9560    0.1620    2.9380 h1        1 XDA      0.034200
     49 H16B       -3.4460    1.0020    4.4090 h1        1 XDA      0.034200
     50 H22        -5.2950    1.2850    1.2550 ha        1 XDA      0.127500
     51 H21        -6.9850    3.0270    0.8350 ha        1 XDA      0.122000
     52 H18        -4.0560    3.3200    4.8020 ha        1 XDA      0.127500
     53 H19        -5.6510    5.1350    4.3290 ha        1 XDA      0.122000
     54 H25        -8.7170    4.3400    1.2610 hn        1 XDA      0.270800
     55 H26A       -8.6610    7.2030    0.8160 hx        1 XDA      0.082700
     56 H26B       -9.8780    6.3230    1.7510 hx        1 XDA      0.082700
     57 H27A       -9.2320    5.7870   -1.1700 h1        1 XDA      0.019700
     58 H27B      -10.5950    6.7640   -0.6080 h1        1 XDA      0.019700
     59 H91         1.9820    0.9990   -1.1090 hn        1 XDA      0.140800
     60 H122       -0.2650    0.9150    1.3180 hn        1 XDA      0.299800
     61 H252       -7.5980    5.1500    0.4000 hn        1 XDA      0.270800
@<TRIPOS>BOND
     1    1    2 2   
     2    2    3 1   
     3    2    6 1   
     4    3    4 1   
     5    3    5 1   
     6    3   59 1   
     7    4   33 1   
     8    4   34 1   
     9    4   35 1   
    10    5   36 1   
    11    5   37 1   
    12    5   38 1   
    13    6    7 1   
    14    6   11 1   
    15    6   39 1   
    16    7    8 1   
    17    7   40 1   
    18    7   41 1   
    19    8    9 1   
    20    8   42 1   
    21    8   43 1   
    22    9   10 2   
    23    9   44 1   
    24   10   11 1   
    25   10   45 1   
    26   11   12 1   
    27   11   46 1   
    28   12   13 1   
    29   12   47 1   
    30   12   60 1   
    31   13   14 2   
    32   13   15 1   
    33   15   16 1   
    34   16   17 1   
    35   16   48 1   
    36   16   49 1   
    37   17   18 ar  
    38   17   20 ar  
    39   18   19 ar  
    40   18   50 1   
    41   19   22 ar  
    42   19   51 1   
    43   20   21 ar  
    44   20   52 1   
    45   21   22 ar  
    46   21   53 1   
    47   22   23 1   
    48   23   24 2   
    49   23   25 1   
    50   25   26 1   
    51   25   54 1   
    52   25   61 1   
    53   26   27 1   
    54   26   55 1   
    55   26   56 1   
    56   27   28 1   
    57   27   57 1   
    58   27   58 1   
    59   28   29 1   
    60   29   30 1   
    61   29   31 1   
    62   29   32 1   
@<TRIPOS>SUBSTRUCTURE
     1 XDA         1 TEMP              0 ****  ****    0 ROOT
