@<TRIPOS>MOLECULE
XDE
   27    27     1     0     0
SMALL
bcc


@<TRIPOS>ATOM
      1 C1          0.1920   -0.2270   -0.2270 c2        1 XDE     -0.299000
      2 C2          1.4070    0.4130   -0.0090 c2        1 XDE      0.081000
      3 C3          1.9570    0.4450    1.2900 c2        1 XDE     -0.166000
      4 C4          1.2890   -0.1370    2.3660 c2        1 XDE      0.171000
      5 C5         -0.0140   -0.8280    2.1640 c3        1 XDE     -0.174000
      6 C6         -0.5190   -0.8440    0.8050 c1        1 XDE     -0.180000
      7 O1          3.1110    1.1560    1.5740 oh        1 XDE     -0.258000
      8 O2          1.7440   -0.1010    3.6300 oh        1 XDE     -0.200000
      9 O3         -1.2760    0.8470   -1.8490 oh        1 XDE     -0.354000
     10 C9         -3.0570   -2.6610   -2.9780 c3        1 XDE     -0.194000
     11 C8         -1.2250   -1.5610   -1.7440 c3        1 XDE     -0.175000
     12 C7         -0.4120   -0.2500   -1.5950 c3        1 XDE      0.098000
     13 H1          1.9630    0.9040   -0.8270 ha        1 XDE      0.156000
     14 H2          0.0690   -1.8960    2.5340 hc        1 XDE      0.195000
     15 H3         -0.7980   -0.3470    2.8280 hc        1 XDE      0.195000
     16 H4          3.8220    0.7770    1.0340 ho        1 XDE      0.227000
     17 H5          2.5880    0.3930    3.6660 ho        1 XDE      0.270000
     18 H6         -1.5850    1.1980   -1.0020 ho        1 XDE      0.241000
     19 H7         -2.6340   -0.6310   -2.9160 hn        1 XDE      0.252000
     20 H8         -3.7120   -2.6340   -2.0660 hx        1 XDE      0.145667
     21 H9         -3.6930   -2.5880   -3.9010 hx        1 XDE      0.145667
     22 H10        -2.4810   -3.6260   -2.9910 hx        1 XDE      0.145667
     23 H12        -1.5410   -1.5200   -3.7920 hn        1 XDE      0.252000
     24 H13        -1.8630   -1.7000   -0.8160 hx        1 XDE      0.169500
     25 H14        -0.5230   -2.4330   -1.8400 hx        1 XDE      0.169500
     26 H121        0.3760   -0.1890   -2.4000 h1        1 XDE      0.113000
     27 N1         -2.1150   -1.5240   -2.9430 n4        1 XDE     -0.026000
@<TRIPOS>BOND
     1    1    2 1   
     2    1    6 1   
     3    1   12 1   
     4    2    3 1   
     5    2   13 1   
     6    3    4 1   
     7    3    7 1   
     8    4    5 1   
     9    4    8 1   
    10    5    6 1   
    11    5   14 1   
    12    5   15 1   
    13    7   16 1   
    14    8   17 1   
    15    9   12 1   
    16    9   18 1   
    17   10   20 1   
    18   10   21 1   
    19   10   22 1   
    20   10   27 1   
    21   11   12 1   
    22   11   24 1   
    23   11   25 1   
    24   11   27 1   
    25   12   26 1   
    26   19   27 1   
    27   23   27 1   
@<TRIPOS>SUBSTRUCTURE
     1 XDE         1 TEMP              0 ****  ****    0 ROOT
