@<TRIPOS>MOLECULE
XDE
   26    26     1     0     0
SMALL
bcc


@<TRIPOS>ATOM
      1 C1         -0.0890   -0.0690    0.4560 ca        1 XDE     -0.112300
      2 C2          0.8070    0.9250    0.8580 ca        1 XDE     -0.115000
      3 C3          2.1650    0.8070    0.5370 ca        1 XDE      0.113100
      4 C4          2.6200   -0.3180   -0.1850 ca        1 XDE      0.045100
      5 C5          1.7200   -1.3090   -0.5820 ca        1 XDE     -0.167000
      6 C6          0.3700   -1.1790   -0.2610 ca        1 XDE     -0.127000
      7 O1          3.0010    1.8150    0.9520 oh        1 XDE     -0.492100
      8 O2          3.9720   -0.3590   -0.4600 oh        1 XDE     -0.515100
      9 O3         -2.0390   -1.0390    1.5330 oh        1 XDE     -0.591800
     10 C9         -4.6140    0.4310   -1.3610 c3        1 XDE      0.154100
     11 C8         -2.3670    0.2800   -0.4860 c3        1 XDE      0.135800
     12 C7         -1.5430    0.0720    0.8030 c3        1 XDE      0.178400
     13 H1          0.4670    1.8040    1.4260 ha        1 XDE      0.159000
     14 H2          2.0760   -2.1840   -1.1440 ha        1 XDE      0.137000
     15 H3         -0.3360   -1.9590   -0.5810 ha        1 XDE      0.130000
     16 H4          3.9030    1.5900    0.6750 ho        1 XDE      0.438000
     17 H5          4.1520   -1.1830   -0.9330 ho        1 XDE      0.430000
     18 H6         -1.8340   -1.8370    1.0310 ho        1 XDE      0.397000
     19 H7         -4.6240   -0.6080   -1.7950 h1        1 XDE      0.029033
     20 H8         -5.6600    0.7010   -1.0600 h1        1 XDE      0.029033
     21 H9         -4.2750    1.1380   -2.1640 h1        1 XDE      0.029033
     22 H10        -4.0870    0.0220    0.5550 hn        1 XDE      0.370800
     23 H12        -2.2400   -0.6400   -1.1320 h1        1 XDE      0.035200
     24 H13        -1.9350    1.1530   -1.0500 h1        1 XDE      0.035200
     25 H14        -1.6980    0.9410    1.5090 h1        1 XDE      0.097700
     26 N1         -3.7580    0.5750   -0.2160 n3        1 XDE     -0.826200
@<TRIPOS>BOND
     1    1    2 ar  
     2    1    6 ar  
     3    1   12 1   
     4    2    3 ar  
     5    2   13 1   
     6    3    4 ar  
     7    3    7 1   
     8    4    5 ar  
     9    4    8 1   
    10    5    6 ar  
    11    5   14 1   
    12    6   15 1   
    13    7   16 1   
    14    8   17 1   
    15    9   12 1   
    16    9   18 1   
    17   10   19 1   
    18   10   20 1   
    19   10   21 1   
    20   10   26 1   
    21   11   12 1   
    22   11   23 1   
    23   11   24 1   
    24   11   26 1   
    25   12   25 1   
    26   22   26 1   
@<TRIPOS>SUBSTRUCTURE
     1 XDE         1 TEMP              0 ****  ****    0 ROOT
