@<TRIPOS>MOLECULE
XDE
   27    27     1     0     0
SMALL
bcc


@<TRIPOS>ATOM
      1 C1          0.2530   -0.2620   -0.2660 c2        1 XDE     -0.299000
      2 C2          1.5040    0.3040   -0.0460 c2        1 XDE      0.081000
      3 C3          2.0370    0.3360    1.2610 c2        1 XDE     -0.166000
      4 C4          1.3170   -0.1710    2.3400 c2        1 XDE      0.171000
      5 C5         -0.0260   -0.7820    2.1370 c3        1 XDE     -0.174000
      6 C6         -0.5110   -0.8030    0.7700 c1        1 XDE     -0.180000
      7 O1          3.2300    0.9790    1.5430 oh        1 XDE     -0.258000
      8 O2          1.7550   -0.1300    3.6100 oh        1 XDE     -0.200000
      9 O3         -1.1200    0.8590   -1.9390 oh        1 XDE     -0.354000
     10 C9         -3.1060   -2.5590   -3.0030 c3        1 XDE     -0.194000
     11 C8         -1.2250   -1.5440   -1.7700 c3        1 XDE     -0.175000
     12 C7         -0.3320   -0.2840   -1.6430 c3        1 XDE      0.098000
     13 H1          2.1020    0.7350   -0.8680 ha        1 XDE      0.156000
     14 H2         -0.0180   -1.8430    2.5360 hc        1 XDE      0.195000
     15 H3         -0.7860   -0.2330    2.7750 hc        1 XDE      0.195000
     16 H4          3.9220    0.5400    1.0250 ho        1 XDE      0.227000
     17 H5          2.6290    0.3100    3.6460 ho        1 XDE      0.270000
     18 H6         -1.4180    1.2520   -1.1070 ho        1 XDE      0.241000
     19 H7         -2.5550   -0.5580   -2.9880 hn        1 XDE      0.252000
     20 H8         -3.7240   -2.4700   -3.9380 hx        1 XDE      0.145667
     21 H9         -3.7720   -2.4640   -2.1020 hx        1 XDE      0.145667
     22 H10        -2.5940   -3.5570   -2.9810 hx        1 XDE      0.145667
     23 H12        -1.5080   -1.5390   -3.8230 hn        1 XDE      0.252000
     24 H13        -0.5790   -2.4610   -1.8310 hx        1 XDE      0.169500
     25 H14        -1.8840   -1.6160   -0.8490 hx        1 XDE      0.169500
     26 H121        0.4700   -0.2950   -2.4360 h1        1 XDE      0.113000
     27 N1         -2.0940   -1.4830   -2.9840 ny        1 XDE     -0.026000
@<TRIPOS>BOND
     1    1    2 1   
     2    1    6 1   
     3    1   12 1   
     4    2    3 1   
     5    2   13 1   
     6    3    4 1   
     7    3    7 1   
     8    4    5 1   
     9    4    8 1   
    10    5    6 1   
    11    5   14 1   
    12    5   15 1   
    13    7   16 1   
    14    8   17 1   
    15    9   12 1   
    16    9   18 1   
    17   10   20 1   
    18   10   21 1   
    19   10   22 1   
    20   10   27 1   
    21   11   12 1   
    22   11   24 1   
    23   11   25 1   
    24   11   27 1   
    25   12   26 1   
    26   19   27 1   
    27   23   27 1   
@<TRIPOS>SUBSTRUCTURE
     1 XDE         1 TEMP              0 ****  ****    0 ROOT
