@<TRIPOS>MOLECULE
XDE
   27    26     1     0     0
SMALL
bcc


@<TRIPOS>ATOM
      1 C1         -0.0620    0.4490   -0.2970 c2        1 XDE     -0.347000
      2 C2          1.2460   -0.0970   -0.2700 c2        1 XDE      0.098000
      3 C3          1.8940   -0.2400    0.9490 c2        1 XDE     -0.150000
      4 C4          1.2860    0.1760    2.1610 c2        1 XDE      0.252000
      5 C5         -0.0870    0.7580    2.1640 c3        1 XDE     -0.189000
      6 C6         -0.7210    0.8600    0.8690 c1        1 XDE     -0.131000
      7 O1          3.1980   -0.6830    1.0790 oh        1 XDE     -0.259000
      8 O2          1.8930    0.0920    3.3390 oh        1 XDE     -0.161000
      9 O3         -1.9930    1.1240   -1.5330 oh        1 XDE     -0.149000
     10 C9         -1.5240   -2.1510   -3.5130 c3        1 XDE     -0.144500
     11 C8         -2.0780   -2.8450   -1.2680 c3        1 XDE     -0.144500
     12 C7         -0.7840    0.6140   -1.5070 c2        1 XDE      0.346000
     13 H1          1.7500   -0.4170   -1.2000 ha        1 XDE      0.169000
     14 H2         -0.7550    0.1500    2.8540 hc        1 XDE      0.217500
     15 H3         -0.0590    1.7920    2.6370 hc        1 XDE      0.217500
     16 H4          3.3120   -1.4600    0.5080 ho        1 XDE      0.248000
     17 H5          2.7950   -0.2930    3.2510 ho        1 XDE      0.296000
     18 H6         -2.3220    1.3350   -0.6170 ho        1 XDE      0.315000
     19 H7         -2.8810   -1.2980   -2.2860 hn        1 XDE      0.160000
     20 H8         -1.4880   -1.2480   -4.1770 h1        1 XDE      0.081167
     21 H9         -0.4910   -2.5800   -3.4240 h1        1 XDE      0.081167
     22 H10        -2.1790   -2.9230   -4.0000 h1        1 XDE      0.081167
     23 H12        -2.4650   -2.4580   -0.2890 h1        1 XDE      0.081167
     24 H13        -2.7560   -3.6720   -1.6150 h1        1 XDE      0.081167
     25 H14        -1.0560   -3.2800   -1.1080 h1        1 XDE      0.081167
     26 H121       -0.3910    0.3650   -2.5170 h4        1 XDE      0.211000
     27 N1         -1.9850   -1.7480   -2.2030 n3        1 XDE     -0.343000
@<TRIPOS>BOND
     1    1    2 1   
     2    1    6 1   
     3    1   12 1   
     4    2    3 1   
     5    2   13 1   
     6    3    4 1   
     7    3    7 1   
     8    4    5 1   
     9    4    8 1   
    10    5    6 1   
    11    5   14 1   
    12    5   15 1   
    13    7   16 1   
    14    8   17 1   
    15    9   12 1   
    16    9   18 1   
    17   10   20 1   
    18   10   21 1   
    19   10   22 1   
    20   10   27 1   
    21   11   23 1   
    22   11   24 1   
    23   11   25 1   
    24   11   27 1   
    25   12   26 1   
    26   19   27 1   
@<TRIPOS>SUBSTRUCTURE
     1 XDE         1 TEMP              0 ****  ****    0 ROOT
