@<TRIPOS>MOLECULE
XDH
   33    30     1     0     0
SMALL
bcc


@<TRIPOS>ATOM
      1 CAA        -2.1340    0.0200    0.9550 c3        1 XDH     -0.208000
      2 CAB        -0.1160    0.0200    2.3820 c3        1 XDH     -0.208000
      3 OAC         1.0730   -4.6610   -1.7490 oh        1 XDH     -0.228000
      4 OAD         1.3350    4.8250   -1.3390 oh        1 XDH     -0.228000
      5 CLAE        1.8310   -4.6120    1.0930 cl        1 XDH      0.005000
      6 CLAF       -0.6110   -3.0360   -3.3530 cl        1 XDH      0.005000
      7 CLAG       -1.5710    4.8230   -0.8570 cl        1 XDH      0.005000
      8 CLAH        3.3450    2.8580   -1.1540 cl        1 XDH      0.005000
      9 CAI         0.6050   -2.1950    0.9050 c1        1 XDH     -0.084000
     10 CAJ        -0.5380   -1.4270   -1.0610 c1        1 XDH     -0.084000
     11 CAK        -0.9760    2.3150    0.0020 c1        1 XDH     -0.084000
     12 CAL         1.2190    1.3500   -0.1170 c1        1 XDH     -0.084000
     13 CAM         0.4840   -3.5990   -1.0380 c2        1 XDH      0.101000
     14 CAN         0.8350    3.5660   -0.9570 c2        1 XDH      0.101000
     15 CAO         0.9050   -3.3870    0.2650 c2        1 XDH     -0.115500
     16 CAP        -0.2380   -2.6190   -1.7010 c1        1 XDH     -0.115500
     17 CAQ        -0.5000    3.4710   -0.5970 c1        1 XDH     -0.115500
     18 CAR         1.6950    2.5060   -0.7170 c2        1 XDH     -0.115500
     19 CAS        -0.1160   -1.2150    0.2420 c1        1 XDH     -0.089000
     20 CAT        -0.1160    1.2550    0.2420 c1        1 XDH     -0.089000
     21 CAU        -0.6200    0.0200    0.9550 c3        1 XDH      0.037000
     22 HAA        -2.4590   -0.8510    1.2520 hc        1 XDH      0.083333
     23 HAAA       -2.4590    0.1990    0.0520 hc        1 XDH      0.083333
     24 HAAB       -2.4590    0.7130    1.5610 hc        1 XDH      0.083333
     25 HAB        -0.3930    0.8440    2.8250 hc        1 XDH      0.083333
     26 HABA       -0.4880   -0.7460    2.8590 hc        1 XDH      0.083333
     27 HABB        0.8590   -0.0380    2.3820 hc        1 XDH      0.083333
     28 HOAC        0.5440   -5.3720   -1.7110 ho        1 XDH      0.233000
     29 HOAD        1.3010    4.9010   -2.2230 ho        1 XDH      0.233000
     30 HAI         0.9020   -2.0450    1.8230 ha        1 XDH      0.156000
     31 HAJ        -1.0460   -0.7370   -1.5280 ha        1 XDH      0.156000
     32 HAK        -1.9160    2.2480    0.2550 ha        1 XDH      0.156000
     33 HAL         1.8250    0.6040    0.0520 ha        1 XDH      0.156000
@<TRIPOS>BOND
     1    1   21 1   
     2    1   22 1   
     3    1   23 1   
     4    1   24 1   
     5    2   21 1   
     6    2   25 1   
     7    2   26 1   
     8    2   27 1   
     9    3   13 1   
    10    3   28 1   
    11    4   14 1   
    12    4   29 1   
    13    5   15 1   
    14    6   16 1   
    15    7   17 1   
    16    8   18 1   
    17    9   15 1   
    18    9   30 1   
    19   10   19 1   
    20   10   31 1   
    21   11   20 1   
    22   11   32 1   
    23   12   18 1   
    24   12   33 1   
    25   13   15 1   
    26   13   16 1   
    27   14   17 1   
    28   14   18 1   
    29   19   21 1   
    30   20   21 1   
@<TRIPOS>SUBSTRUCTURE
     1 XDH         1 TEMP              0 ****  ****    0 ROOT
