@<TRIPOS>MOLECULE
XDH
   33    34     1     0     0
SMALL
bcc


@<TRIPOS>ATOM
      1 CAA         0.0930    1.3610    2.7360 c3        1 XDH     -0.090100
      2 CAB        -0.0240   -1.1030    2.8210 c3        1 XDH     -0.090100
      3 OAD         4.4860   -0.7290   -1.5570 oh        1 XDH     -0.474100
      4 CLAE       -4.8070   -1.5150    0.7020 cl        1 XDH     -0.073400
      5 CLAF       -2.4200    2.5560   -1.9540 cl        1 XDH     -0.073400
      6 CLAG        4.7630    1.6240    0.3570 cl        1 XDH     -0.073400
      7 CLAH        2.2530   -2.6110   -1.9000 cl        1 XDH     -0.073400
      8 CAI        -2.3390   -0.6290    1.2230 ca        1 XDH     -0.084000
      9 CAJ        -1.2880    1.1850    0.0310 ca        1 XDH     -0.084000
     10 CAK         2.3260    0.7780    1.0590 ca        1 XDH     -0.084000
     11 CAL         1.2190   -1.1090    0.0440 ca        1 XDH     -0.084000
     12 CAM        -3.5390    0.5070   -0.5690 ca        1 XDH      0.146100
     13 CAN         3.4370   -0.4760   -0.7120 ca        1 XDH      0.146100
     14 CAO        -3.4820   -0.4800    0.4320 ca        1 XDH     -0.037100
     15 CAP        -2.4210    1.3460   -0.7640 ca        1 XDH     -0.037100
     16 CAQ         3.4280    0.5750    0.2230 ca        1 XDH     -0.037100
     17 CAR         2.3110   -1.3240   -0.7950 ca        1 XDH     -0.037100
     18 CAS        -1.2340    0.2000    1.0290 ca        1 XDH     -0.096300
     19 CAT         1.2140   -0.0600    0.9760 ca        1 XDH     -0.096300
     20 CAU         0.0120    0.0990    1.8770 c3        1 XDH      0.051600
     21 HAA         0.9590    1.2980    3.4380 hc        1 XDH      0.044033
     22 HAAA        0.2020    2.2690    2.0970 hc        1 XDH      0.044033
     23 HAAB       -0.8420    1.4630    3.3390 hc        1 XDH      0.044033
     24 HAB        -0.8540   -0.9930    3.5590 hc        1 XDH      0.044033
     25 HABA       -0.1640   -2.0510    2.2490 hc        1 XDH      0.044033
     26 HABB        0.9400   -1.1670    3.3810 hc        1 XDH      0.044033
     27 HOAC       -5.3110    0.0560   -1.1340 ho        1 XDH      0.434000
     28 HOAD        5.1770   -0.0660   -1.3940 ho        1 XDH      0.434000
     29 HAI        -2.3320   -1.4110    1.9980 ha        1 XDH      0.156000
     30 HAJ        -0.4130    1.8380   -0.1290 ha        1 XDH      0.156000
     31 HAK         2.3560    1.6100    1.7800 ha        1 XDH      0.156000
     32 HAL         0.3390   -1.7700   -0.0290 ha        1 XDH      0.156000
     33 OAC        -4.6300    0.7060   -1.3750 oh        1 XDH     -0.474100
@<TRIPOS>BOND
     1    1   20 1   
     2    1   21 1   
     3    1   22 1   
     4    1   23 1   
     5    2   20 1   
     6    2   24 1   
     7    2   25 1   
     8    2   26 1   
     9    3   13 1   
    10    3   28 1   
    11    4   14 1   
    12    5   15 1   
    13    6   16 1   
    14    7   17 1   
    15    8   14 ar  
    16    8   18 ar  
    17    8   29 1   
    18    9   15 ar  
    19    9   18 ar  
    20    9   30 1   
    21   10   16 ar  
    22   10   19 ar  
    23   10   31 1   
    24   11   17 ar  
    25   11   19 ar  
    26   11   32 1   
    27   12   14 ar  
    28   12   15 ar  
    29   12   33 1   
    30   13   16 ar  
    31   13   17 ar  
    32   18   20 1   
    33   19   20 1   
    34   27   33 1   
@<TRIPOS>SUBSTRUCTURE
     1 XDH         1 TEMP              0 ****  ****    0 ROOT
