@<TRIPOS>MOLECULE
XDH
   33    32     1     0     0
SMALL
bcc


@<TRIPOS>ATOM
      1 CAA         0.2400   -0.5010    0.2370 c3        1 XDH     -0.213500
      2 CAB         1.8670    0.2830    1.9420 c3        1 XDH     -0.213500
      3 OAD         3.1640    4.6580   -2.8900 oh        1 XDH     -0.225000
      4 ClAE        2.6250   -4.6250    0.0580 cl        1 XDH      0.001000
      5 ClAF        2.2600   -3.0610   -5.0500 cl        1 XDH      0.024000
      6 ClAG        0.4700    3.3210   -3.0840 cl        1 XDH      0.040000
      7 ClAH        5.7440    3.4390   -1.8050 cl        1 XDH      0.031000
      8 CAI         2.5880   -2.0720   -0.5410 c1        1 XDH     -0.129000
      9 CAJ         1.3280   -1.6340   -3.0410 c1        1 XDH     -0.082000
     10 CAK         1.7660    1.4780   -1.6310 c2        1 XDH     -0.102000
     11 CAL         4.0300    1.7570   -0.7680 c1        1 XDH      0.177000
     12 CAM         2.6630   -3.6040   -2.4490 c2        1 XDH      0.163000
     13 CAN         3.0490    3.4330   -2.2880 c2        1 XDH      0.106000
     14 CAO         2.6240   -3.2950   -1.0180 c2        1 XDH     -0.096000
     15 CAP         2.0650   -2.7720   -3.3810 c2        1 XDH     -0.201000
     16 CAQ         1.8590    2.7710   -2.3030 c2        1 XDH     -0.159000
     17 CAR         4.1730    2.8170   -1.5810 c2        1 XDH     -0.366000
     18 CAS         2.7230   -0.8920   -0.0110 c2        1 XDH     -0.044000
     19 CAT         1.7850    1.3590   -0.2870 c2        1 XDH     -0.111000
     20 CAU         1.6470    0.0500    0.4430 c3        1 XDH      0.012000
     21 HAA        -0.0810   -0.3850   -0.8260 hc        1 XDH      0.089667
     22 HAAA       -0.4850    0.0580    0.8780 hc        1 XDH      0.089667
     23 HAAB        0.2040   -1.5810    0.5160 hc        1 XDH      0.089667
     24 HAB         1.1150    1.0120    2.3270 hc        1 XDH      0.089667
     25 HABA        1.7500   -0.6780    2.4960 hc        1 XDH      0.089667
     26 HABB        2.8890    0.6890    2.1270 hc        1 XDH      0.089667
     27 HOAC        3.9080   -5.0290   -2.1320 ho        1 XDH      0.238000
     28 HOAD        4.1080    4.8780   -2.9530 ho        1 XDH      0.232000
     29 HAI         3.7510   -0.4890    0.1440 ha        1 XDH      0.187000
     30 HAJ         0.7680   -1.6410   -2.0940 ha        1 XDH      0.064000
     31 HAK         1.6550    0.6010   -2.3060 ha        1 XDH      0.191000
     32 HAL         1.8160    2.2520    0.3650 ha        1 XDH      0.147000
     33 OAC         3.4060   -4.6600   -2.8780 oh        1 XDH     -0.207000
@<TRIPOS>BOND
     1    1   20 1   
     2    1   21 1   
     3    1   22 1   
     4    1   23 1   
     5    2   20 1   
     6    2   24 1   
     7    2   25 1   
     8    2   26 1   
     9    3   13 1   
    10    3   28 1   
    11    4   14 1   
    12    5   15 1   
    13    6   16 1   
    14    7   17 1   
    15    8   14 1   
    16    8   18 1   
    17    9   15 1   
    18    9   30 1   
    19   10   16 1   
    20   10   19 1   
    21   10   31 1   
    22   11   17 1   
    23   12   14 1   
    24   12   15 1   
    25   12   33 1   
    26   13   16 1   
    27   13   17 1   
    28   18   20 1   
    29   18   29 1   
    30   19   20 1   
    31   19   32 1   
    32   27   33 1   
@<TRIPOS>SUBSTRUCTURE
     1 XDH         1 TEMP              0 ****  ****    0 ROOT
