@<TRIPOS>MOLECULE
XDI
   33    33     1     0     0
SMALL
bcc


@<TRIPOS>ATOM
      1 CAA         0.2810   -0.9130    0.7760 c3        1 XDI     -0.211500
      2 CAB         1.4430    1.1490    1.5140 c3        1 XDI     -0.211500
      3 OAD         4.2840    3.4980   -3.4660 oh        1 XDI     -0.174000
      4 BRAE        3.1450   -4.4990    0.0920 br        1 XDI      0.093000
      5 BRAF        3.0650   -2.3600   -5.0670 br        1 XDI      0.072000
      6 BRAG        2.7690    0.5750   -3.8960 br        1 XDI      0.155000
      7 BRAH        3.8510    5.3750   -0.7600 br        1 XDI      0.119000
      8 CAI         2.8950   -1.7380   -0.2840 c1        1 XDI     -0.083000
      9 CAJ         1.2320   -2.2410   -2.9850 c1        1 XDI     -0.078000
     10 CAK         1.9050    1.7820   -1.3990 c2        1 XDI     -0.074000
     11 CAL         2.0570    3.1110   -0.6710 c1        1 XDI      0.104000
     12 CAM         3.4800   -2.9520   -2.2980 c2        1 XDI      0.244000
     13 CAN         3.4460    3.0900   -2.5100 c2        1 XDI      0.231000
     14 CAO         3.1630   -2.8820   -0.8590 c2        1 XDI     -0.230000
     15 CAP         2.5660   -2.5640   -3.2580 c2        1 XDI     -0.321000
     16 CAQ         2.6440    1.8110   -2.5440 c2        1 XDI     -0.319000
     17 CAR         3.1360    3.7900   -1.3450 c2        1 XDI     -0.433000
     18 CAS         2.6930   -0.5830    0.2810 c2        1 XDI     -0.053000
     19 CAT         0.9750    0.7480   -0.9280 c3        1 XDI     -0.120000
     20 CAU         1.3620    0.1010    0.4120 c3        1 XDI     -0.005000
     21 HAA         0.5340   -1.4140    1.7410 hc        1 XDI      0.089500
     22 HAAA       -0.7010   -0.3950    0.8900 hc        1 XDI      0.089500
     23 HAAB        0.1860   -1.6910   -0.0190 hc        1 XDI      0.089500
     24 HAB         1.6610    0.6620    2.4940 hc        1 XDI      0.089500
     25 HABA        2.2430    1.8990    1.2960 hc        1 XDI      0.089500
     26 HABB        0.4700    1.6940    1.5890 hc        1 XDI      0.089500
     27 HOAC        5.2470   -3.5500   -1.8530 ho        1 XDI      0.244000
     28 HOAD        4.2540    2.8690   -4.2130 ho        1 XDI      0.253000
     29 HAI         3.5560   -0.0300    0.7040 ha        1 XDI      0.168000
     30 HAJ         0.8570   -2.4180   -1.9640 ha        1 XDI      0.047000
     31 HAK         0.8610   -0.0650   -1.7000 hc        1 XDI      0.122500
     32 HAL        -0.0330    1.2350   -0.7930 hc        1 XDI      0.122500
     33 OAC         4.7270   -3.3480   -2.6500 oh        1 XDI     -0.200000
@<TRIPOS>BOND
     1    1   20 1   
     2    1   21 1   
     3    1   22 1   
     4    1   23 1   
     5    2   20 1   
     6    2   24 1   
     7    2   25 1   
     8    2   26 1   
     9    3   13 1   
    10    3   28 1   
    11    4   14 1   
    12    5   15 1   
    13    6   16 1   
    14    7   17 1   
    15    8   14 1   
    16    8   18 1   
    17    9   15 1   
    18    9   30 1   
    19   10   11 1   
    20   10   16 1   
    21   10   19 1   
    22   11   17 1   
    23   12   14 1   
    24   12   15 1   
    25   12   33 1   
    26   13   16 1   
    27   13   17 1   
    28   18   20 1   
    29   18   29 1   
    30   19   20 1   
    31   19   31 1   
    32   19   32 1   
    33   27   33 1   
@<TRIPOS>SUBSTRUCTURE
     1 XDI         1 TEMP              0 ****  ****    0 ROOT
