@<TRIPOS>MOLECULE
XDI
   33    34     1     0     0
SMALL
bcc


@<TRIPOS>ATOM
      1 CAA         0.1500    1.2630    3.0460 c3        1 XDI     -0.091100
      2 CAB        -0.1270   -1.1890    3.0730 c3        1 XDI     -0.091100
      3 OAD         4.4890   -1.0200   -1.1940 oh        1 XDI     -0.473100
      4 BRAE       -5.0130   -1.3530    0.8870 br        1 XDI     -0.065600
      5 BRAF       -2.1230    2.8520   -1.7900 br        1 XDI     -0.065600
      6 BRAG        2.1080   -2.8800   -1.7450 br        1 XDI     -0.065600
      7 BRAH        5.0190    1.3800    0.8190 br        1 XDI     -0.065600
      8 CAI        -2.3710   -0.5280    1.4350 ca        1 XDI     -0.053000
      9 CAJ        -1.1750    1.2310    0.3050 ca        1 XDI     -0.053000
     10 CAK         1.1770   -1.2150    0.3220 ca        1 XDI     -0.053000
     11 CAL         2.3820    0.5670    1.4050 ca        1 XDI     -0.053000
     12 CAM        -3.4450    0.7170   -0.3540 ca        1 XDI      0.187100
     13 CAN         3.4420   -0.7150   -0.3660 ca        1 XDI      0.187100
     14 CAO        -3.4860   -0.2940    0.6250 ca        1 XDI     -0.089900
     15 CAP        -2.2720    1.4880   -0.5140 ca        1 XDI     -0.089900
     16 CAQ         2.2670   -1.4890   -0.5000 ca        1 XDI     -0.089900
     17 CAR         3.4910    0.3160    0.5920 ca        1 XDI     -0.089900
     18 CAS        -1.2090    0.2270    1.2840 ca        1 XDI     -0.115300
     19 CAT         1.2180   -0.1910    1.2790 ca        1 XDI     -0.115300
     20 CAU         0.0080    0.0280    2.1570 c3        1 XDI      0.053600
     21 HAA         0.9920    1.1300    3.7670 hc        1 XDI      0.044700
     22 HAAA        0.3340    2.1750    2.4300 hc        1 XDI      0.044700
     23 HAAB       -0.7910    1.4140    3.6290 hc        1 XDI      0.044700
     24 HAB        -0.9630   -1.0400    3.7970 hc        1 XDI      0.044700
     25 HABA       -0.3150   -2.1140    2.4780 hc        1 XDI      0.044700
     26 HABB        0.8190   -1.3270    3.6520 hc        1 XDI      0.044700
     27 HOAC       -5.2310    0.3990   -0.9700 ho        1 XDI      0.437000
     28 HOAD        5.2230   -0.4110   -1.0020 ho        1 XDI      0.437000
     29 HAI        -2.4250   -1.3220    2.1980 ha        1 XDI      0.155500
     30 HAJ        -0.2510    1.8230    0.1850 ha        1 XDI      0.155500
     31 HAK         0.2520   -1.8100    0.2210 ha        1 XDI      0.155500
     32 HAL         2.4420    1.3770    2.1500 ha        1 XDI      0.155500
     33 OAC        -4.4980    1.0040   -1.1810 oh        1 XDI     -0.473100
@<TRIPOS>BOND
     1    1   20 1   
     2    1   21 1   
     3    1   22 1   
     4    1   23 1   
     5    2   20 1   
     6    2   24 1   
     7    2   25 1   
     8    2   26 1   
     9    3   13 1   
    10    3   28 1   
    11    4   14 1   
    12    5   15 1   
    13    6   16 1   
    14    7   17 1   
    15    8   14 ar  
    16    8   18 ar  
    17    8   29 1   
    18    9   15 ar  
    19    9   18 ar  
    20    9   30 1   
    21   10   16 ar  
    22   10   19 ar  
    23   10   31 1   
    24   11   17 ar  
    25   11   19 ar  
    26   11   32 1   
    27   12   14 ar  
    28   12   15 ar  
    29   12   33 1   
    30   13   16 ar  
    31   13   17 ar  
    32   18   20 1   
    33   19   20 1   
    34   27   33 1   
@<TRIPOS>SUBSTRUCTURE
     1 XDI         1 TEMP              0 ****  ****    0 ROOT
