@<TRIPOS>MOLECULE
XDI
   33    33     1     0     0
SMALL
bcc


@<TRIPOS>ATOM
      1 CAA         0.2640   -0.8580    0.7840 c3        1 XDI     -0.211500
      2 CAB         1.5140    1.1460    1.5370 c3        1 XDI     -0.211500
      3 OAD         4.3980    3.4470   -3.4400 oh        1 XDI     -0.174000
      4 BrAE        2.9760   -4.5450    0.0240 br        1 XDI      0.093000
      5 BrAF        2.9320   -2.3360   -5.1060 br        1 XDI      0.072000
      6 BrAG        2.7640    0.5930   -3.8930 br        1 XDI      0.155000
      7 BrAH        4.0660    5.3030   -0.7060 br        1 XDI      0.119000
      8 CAI         2.8320   -1.7720   -0.3140 c1        1 XDI     -0.083000
      9 CAJ         1.1250   -2.1720   -3.0030 c1        1 XDI     -0.078000
     10 CAK         1.9730    1.8000   -1.3730 c2        1 XDI     -0.074000
     11 CAL         2.1840    3.1110   -0.6280 c1        1 XDI      0.104000
     12 CAM         3.3500   -2.9810   -2.3490 c2        1 XDI      0.244000
     13 CAN         3.5540    3.0600   -2.4820 c2        1 XDI      0.231000
     14 CAO         3.0490   -2.9180   -0.9060 c2        1 XDI     -0.230000
     15 CAP         2.4430   -2.5440   -3.2940 c2        1 XDI     -0.321000
     16 CAQ         2.7010    1.8140   -2.5240 c2        1 XDI     -0.319000
     17 CAR         3.2840    3.7560   -1.3040 c2        1 XDI     -0.433000
     18 CAS         2.6820   -0.6170    0.2690 c2        1 XDI     -0.053000
     19 CAT         1.0070    0.7970   -0.9050 c3        1 XDI     -0.120000
     20 CAU         1.3810    0.1160    0.4220 c3        1 XDI     -0.005000
     21 HAA         0.5060   -1.3820    1.7390 hc        1 XDI      0.089500
     22 HAAA       -0.6960   -0.3030    0.9140 hc        1 XDI      0.089500
     23 HAAB        0.1300   -1.6210   -0.0210 hc        1 XDI      0.089500
     24 HAB         1.7220    0.6370    2.5080 hc        1 XDI      0.089500
     25 HABA        2.3410    1.8670    1.3210 hc        1 XDI      0.089500
     26 HABB        0.5650    1.7280    1.6290 hc        1 XDI      0.089500
     27 HOAC        5.0960   -3.6550   -1.9300 ho        1 XDI      0.244000
     28 HOAD        4.3360    2.8300   -4.1950 ho        1 XDI      0.253000
     29 HAI         3.5700   -0.1050    0.6910 ha        1 XDI      0.168000
     30 HAJ         0.7530   -2.3480   -1.9810 ha        1 XDI      0.047000
     31 HAK         0.8530   -0.0000   -1.6860 hc        1 XDI      0.123000
     32 HAL         0.0200    1.3220   -0.7540 hc        1 XDI      0.123000
     33 OAC         4.5760   -3.4210   -2.7190 oh        1 XDI     -0.200000
@<TRIPOS>BOND
     1    1   20 1   
     2    1   21 1   
     3    1   22 1   
     4    1   23 1   
     5    2   20 1   
     6    2   24 1   
     7    2   25 1   
     8    2   26 1   
     9    3   13 1   
    10    3   28 1   
    11    4   14 1   
    12    5   15 1   
    13    6   16 1   
    14    7   17 1   
    15    8   14 1   
    16    8   18 1   
    17    9   15 1   
    18    9   30 1   
    19   10   11 1   
    20   10   16 1   
    21   10   19 1   
    22   11   17 1   
    23   12   14 1   
    24   12   15 1   
    25   12   33 1   
    26   13   16 1   
    27   13   17 1   
    28   18   20 1   
    29   18   29 1   
    30   19   20 1   
    31   19   31 1   
    32   19   32 1   
    33   27   33 1   
@<TRIPOS>SUBSTRUCTURE
     1 XDI         1 TEMP              0 ****  ****    0 ROOT
