@<TRIPOS>MOLECULE
XDI
   33    30     1     0     0
SMALL
bcc


@<TRIPOS>ATOM
      1 CAA        -2.1940    0.1390    1.1250 c3        1 XDI     -0.209000
      2 CAB        -0.0140    0.1690    2.4970 c3        1 XDI     -0.209000
      3 OAC         0.8930   -4.6660   -1.7690 oh        1 XDI     -0.227000
      4 OAD         1.4130    4.5670   -1.9070 oh        1 XDI     -0.227000
      5 BRAE        1.9350   -4.8430    1.2200 br        1 XDI      0.073500
      6 BRAF       -0.5490   -2.7520   -3.4330 br        1 XDI      0.076500
      7 BRAG        3.6170    2.7240   -1.2720 br        1 XDI      0.076500
      8 BRAH       -1.7410    4.8060   -1.4170 br        1 XDI      0.073500
      9 CAI         0.5990   -2.2610    1.0670 c1        1 XDI     -0.056500
     10 CAJ        -0.5210   -1.4000   -0.9080 c1        1 XDI     -0.049500
     11 CAK         1.2190    1.3840   -0.0040 c1        1 XDI     -0.049500
     12 CAL        -1.0140    2.2240   -0.2050 c1        1 XDI     -0.056500
     13 CAM         0.3730   -3.6330   -0.9320 c2        1 XDI      0.142000
     14 CAN         0.7240    3.4590   -1.2630 c2        1 XDI      0.142000
     15 CAO         0.8260   -3.4630    0.4020 c2        1 XDI     -0.232500
     16 CAP        -0.3010   -2.5880   -1.5740 c1        1 XDI     -0.228000
     17 CAQ         1.6650    2.5130   -0.7980 c1        1 XDI     -0.228000
     18 CAR        -0.5840    3.3150   -0.9720 c2        1 XDI     -0.232500
     19 CAS        -0.0630   -1.2370    0.4340 c1        1 XDI     -0.108000
     20 CAT        -0.0550    1.2470    0.2780 c1        1 XDI     -0.108000
     21 CAU        -0.5420    0.0810    1.0840 c3        1 XDI      0.039000
     22 HAA        -2.5590   -0.7070    1.5350 hc        1 XDI      0.084000
     23 HAAA       -2.5040    0.9940    1.7230 hc        1 XDI      0.084000
     24 HAAB       -2.5100    0.2280    0.3020 hc        1 XDI      0.084000
     25 HAB        -0.1940    1.0840    2.8660 hc        1 XDI      0.084000
     26 HABA        0.9440   -0.0050    2.5020 hc        1 XDI      0.084000
     27 HABB       -0.5340   -0.5960    3.1340 hc        1 XDI      0.084000
     28 HOAC        0.4900   -5.3240   -1.6520 ho        1 XDI      0.236000
     29 HOAD        1.4210    4.4250   -2.9130 ho        1 XDI      0.236000
     30 HAI         0.8940   -2.1500    1.9340 ha        1 XDI      0.155000
     31 HAJ        -1.0120   -0.6380   -1.3730 ha        1 XDI      0.157000
     32 HAK         1.8110    0.7840    0.2900 ha        1 XDI      0.157000
     33 HAL        -1.9350    2.1220   -0.0020 ha        1 XDI      0.155000
@<TRIPOS>BOND
     1    1   21 1   
     2    1   22 1   
     3    1   23 1   
     4    1   24 1   
     5    2   21 1   
     6    2   25 1   
     7    2   26 1   
     8    2   27 1   
     9    3   13 1   
    10    3   28 1   
    11    4   14 1   
    12    4   29 1   
    13    5   15 1   
    14    6   16 1   
    15    7   17 1   
    16    8   18 1   
    17    9   15 1   
    18    9   30 1   
    19   10   19 1   
    20   10   31 1   
    21   11   20 1   
    22   11   32 1   
    23   12   18 1   
    24   12   33 1   
    25   13   15 1   
    26   13   16 1   
    27   14   17 1   
    28   14   18 1   
    29   19   21 1   
    30   20   21 1   
@<TRIPOS>SUBSTRUCTURE
     1 XDI         1 TEMP              0 ****  ****    0 ROOT
