@<TRIPOS>MOLECULE
XDK
   21    22     1     0     0
SMALL
bcc


@<TRIPOS>ATOM
      1 C7A         0.0670    0.2190   -0.0200 ca        1 XDK     -0.254300
      2 C3A         1.4150   -0.1780    0.0060 ca        1 XDK      0.404200
      3 N2A         2.0710   -0.5020    1.1390 nb        1 XDK     -0.667000
      4 C1A         1.3860   -0.4330    2.2940 ca        1 XDK      0.416200
      5 C5A         0.0300   -0.0370    2.3740 cp        1 XDK     -0.272800
      6 C4         -0.6400    0.0260    3.6820 cp        1 XDK      0.539800
      7 N3         -1.9440   -0.3310    3.7620 nb        1 XDK     -0.754000
      8 C5          0.0910    0.4650    4.8100 ca        1 XDK     -0.418600
      9 C6         -0.5990    0.5200    6.0340 ca        1 XDK      0.467200
     10 N1         -1.8840    0.1740    6.1770 nb        1 XDK     -0.748000
     11 C2         -2.5290   -0.2680    5.0210 ca        1 XDK      0.872900
     12 N7         -3.8370   -0.7380    5.1480 nv        1 XDK     -0.931500
     13 C9         -0.6350    0.2860    1.1840 ca        1 XDK     -0.052000
     14 H7A        -0.4210    0.4670   -0.9720 ha        1 XDK      0.146000
     15 H3A         2.0070   -0.2440   -0.9250 h4        1 XDK      0.024100
     16 H9         -1.6940    0.5870    1.1970 ha        1 XDK      0.154000
     17 H1A         1.9460   -0.7160    3.2040 h4        1 XDK      0.027100
     18 H5          1.1410    0.7640    4.7330 ha        1 XDK      0.156000
     19 H6         -0.0940    0.8660    6.9550 h4        1 XDK      0.027100
     20 H71N       -4.3300   -0.4810    5.9700 hn        1 XDK      0.431300
     21 H72N       -4.3670   -0.8350    4.3150 hn        1 XDK      0.431300
@<TRIPOS>BOND
     1    1    2 ar  
     2    1   13 ar  
     3    1   14 1   
     4    2    3 ar  
     5    2   15 1   
     6    3    4 ar  
     7    4    5 ar  
     8    4   17 1   
     9    5    6 1   
    10    5   13 ar  
    11    6    7 ar  
    12    6    8 ar  
    13    7   11 ar  
    14    8    9 ar  
    15    8   18 1   
    16    9   10 ar  
    17    9   19 1   
    18   10   11 ar  
    19   11   12 1   
    20   12   20 1   
    21   12   21 1   
    22   13   16 1   
@<TRIPOS>SUBSTRUCTURE
     1 XDK         1 TEMP              0 ****  ****    0 ROOT
