@<TRIPOS>MOLECULE
XDK
   22    23     1     0     0
SMALL
bcc


@<TRIPOS>ATOM
      1 C7A         0.0610    0.2990   -0.0190 ca        1 XDK     -0.245300
      2 C3A         1.4000   -0.1380   -0.0080 ca        1 XDK      0.446200
      3 N2A         2.0490   -0.5030    1.1160 nb        1 XDK     -0.647000
      4 C1A         1.3770   -0.4350    2.2760 ca        1 XDK      0.441200
      5 C5A         0.0320   -0.0010    2.3720 cp        1 XDK     -0.333800
      6 C4         -0.6220    0.0550    3.6780 cp        1 XDK      0.565800
      7 N3         -1.9550   -0.2200    3.7670 nb        1 XDK     -0.679000
      8 C5          0.1310    0.3880    4.8370 ca        1 XDK     -0.302600
      9 C6         -0.5310    0.4160    6.0740 ca        1 XDK      0.463200
     10 N1         -1.8490    0.1430    6.2020 nb        1 XDK     -0.669000
     11 C2         -2.4850   -0.1590    5.0270 ca        1 XDK      0.694900
     12 N7         -3.9450   -0.4660    5.1330 n4        1 XDK     -0.815300
     13 C9         -0.6320    0.3640    1.1880 ca        1 XDK     -0.035000
     14 H7A        -0.4230    0.5820   -0.9650 ha        1 XDK      0.167000
     15 H3A         1.9880   -0.2030   -0.9450 h4        1 XDK      0.050100
     16 H9         -1.6780    0.7040    1.2080 ha        1 XDK      0.151000
     17 H1A         1.9400   -0.7590    3.1710 h4        1 XDK      0.031100
     18 H5          1.2030    0.6290    4.7630 ha        1 XDK      0.198000
     19 H6         -0.0050    0.6670    7.0190 h4        1 XDK      0.077100
     20 H71N       -4.4740    0.2410    4.6090 hn        1 XDK      0.480800
     21 H72N       -4.1240   -1.3940    4.7310 hn        1 XDK      0.480800
     22 H73        -4.2350   -0.4540    6.1200 hn        1 XDK      0.480800
@<TRIPOS>BOND
     1    1    2 ar  
     2    1   13 ar  
     3    1   14 1   
     4    2    3 ar  
     5    2   15 1   
     6    3    4 ar  
     7    4    5 ar  
     8    4   17 1   
     9    5    6 1   
    10    5   13 ar  
    11    6    7 ar  
    12    6    8 ar  
    13    7   11 ar  
    14    8    9 ar  
    15    8   18 1   
    16    9   10 ar  
    17    9   19 1   
    18   10   11 ar  
    19   11   12 1   
    20   12   20 1   
    21   12   21 1   
    22   12   22 1   
    23   13   16 1   
@<TRIPOS>SUBSTRUCTURE
     1 XDK         1 TEMP              0 ****  ****    0 ROOT
