@<TRIPOS>MOLECULE
XDK
   21    22     1     0     0
SMALL
bcc


@<TRIPOS>ATOM
      1 C7A        -3.0280    1.3250   -0.3570 ca        1 XDK     -0.254300
      2 C3A        -3.7820    0.2610    0.1690 ca        1 XDK      0.404200
      3 N2A        -3.2340   -0.8870    0.6140 nb        1 XDK     -0.668000
      4 C1A        -1.8970   -1.0070    0.5380 ca        1 XDK      0.415200
      5 C5A        -1.0520    0.0010    0.0190 cp        1 XDK     -0.273800
      6 C4          0.4010   -0.2160   -0.0420 cp        1 XDK      0.538800
      7 N3          1.2250    0.8310    0.2020 nb        1 XDK     -0.752000
      8 C5          0.8930   -1.5050   -0.3490 ca        1 XDK     -0.416600
      9 C6          2.2900   -1.6640   -0.3760 ca        1 XDK      0.467200
     10 N1          3.1540   -0.6690   -0.1390 nb        1 XDK     -0.747000
     11 C2          2.5890    0.5780    0.1260 ca        1 XDK      0.868900
     12 N7          3.4550    1.6660    0.2670 nh        1 XDK     -0.926500
     13 C9         -1.6410    1.1920   -0.4290 ca        1 XDK     -0.051000
     14 H7A        -3.5250    2.2420   -0.7010 ha        1 XDK      0.147000
     15 H3A        -4.8830    0.3270    0.2420 h4        1 XDK      0.024100
     16 H9         -1.0200    2.0070   -0.8300 ha        1 XDK      0.157000
     17 H1A        -1.4760   -1.9550    0.9200 h4        1 XDK      0.027100
     18 H5          0.2190   -2.3410   -0.5620 ha        1 XDK      0.157000
     19 H6          2.7450   -2.6480   -0.5960 h4        1 XDK      0.028100
     20 H71N        3.0840    2.4810    0.6970 hn        1 XDK      0.428300
     21 H72N        4.4060    1.4560    0.4630 hn        1 XDK      0.428300
@<TRIPOS>BOND
     1    1    2 ar  
     2    1   13 ar  
     3    1   14 1   
     4    2    3 ar  
     5    2   15 1   
     6    3    4 ar  
     7    4    5 ar  
     8    4   17 1   
     9    5    6 1   
    10    5   13 ar  
    11    6    7 ar  
    12    6    8 ar  
    13    7   11 ar  
    14    8    9 ar  
    15    8   18 1   
    16    9   10 ar  
    17    9   19 1   
    18   10   11 ar  
    19   11   12 1   
    20   12   20 1   
    21   12   21 1   
    22   13   16 1   
@<TRIPOS>SUBSTRUCTURE
     1 XDK         1 TEMP              0 ****  ****    0 ROOT
