@<TRIPOS>MOLECULE
XDK
   21    22     1     0     0
SMALL
bcc


@<TRIPOS>ATOM
      1 C7A         0.0710    0.2150   -0.0190 ca        1 XDK     -0.254300
      2 C3A         1.4100   -0.2120    0.0090 ca        1 XDK      0.404200
      3 N2A         2.0580   -0.5510    1.1420 nb        1 XDK     -0.668000
      4 C1A         1.3740   -0.4640    2.2960 ca        1 XDK      0.415200
      5 C5A         0.0280   -0.0390    2.3760 cp        1 XDK     -0.273800
      6 C4         -0.6430    0.0420    3.6820 cp        1 XDK      0.538800
      7 N3         -1.9520   -0.2950    3.7620 nb        1 XDK     -0.752000
      8 C5          0.0960    0.4640    4.8110 ca        1 XDK     -0.416600
      9 C6         -0.5870    0.5050    6.0390 ca        1 XDK      0.467200
     10 N1         -1.8780    0.1810    6.1810 nb        1 XDK     -0.747000
     11 C2         -2.5440   -0.1970    5.0150 ca        1 XDK      0.868900
     12 N7         -3.9180   -0.4340    5.1000 nh        1 XDK     -0.926500
     13 C9         -0.6300    0.2990    1.1850 ca        1 XDK     -0.051000
     14 H7A        -0.4100    0.4750   -0.9710 ha        1 XDK      0.147000
     15 H3A         2.0010   -0.2910   -0.9220 h4        1 XDK      0.024100
     16 H9         -1.6810    0.6250    1.1980 ha        1 XDK      0.157000
     17 H1A         1.9280   -0.7590    3.2060 h4        1 XDK      0.027100
     18 H5          1.1490    0.7520    4.7330 ha        1 XDK      0.157000
     19 H6         -0.0690    0.8130    6.9670 h4        1 XDK      0.028100
     20 H71N       -4.3330   -0.9370    4.3500 hn        1 XDK      0.428300
     21 H72N       -4.2850   -0.6100    6.0060 hn        1 XDK      0.428300
@<TRIPOS>BOND
     1    1    2 ar  
     2    1   13 ar  
     3    1   14 1   
     4    2    3 ar  
     5    2   15 1   
     6    3    4 ar  
     7    4    5 ar  
     8    4   17 1   
     9    5    6 1   
    10    5   13 ar  
    11    6    7 ar  
    12    6    8 ar  
    13    7   11 ar  
    14    8    9 ar  
    15    8   18 1   
    16    9   10 ar  
    17    9   19 1   
    18   10   11 ar  
    19   11   12 1   
    20   12   20 1   
    21   12   21 1   
    22   13   16 1   
@<TRIPOS>SUBSTRUCTURE
     1 XDK         1 TEMP              0 ****  ****    0 ROOT
