@<TRIPOS>MOLECULE
XDL
   17    17     1     0     0
SMALL
bcc


@<TRIPOS>ATOM
      1 N1          0.0720   -0.1150   -0.0150 n         1 XDL     -0.557900
      2 C2          1.4400    0.0320    0.0140 c         1 XDL      0.658500
      3 C3          2.1810   -0.0460    1.3520 c3        1 XDL      0.089100
      4 O3          3.3240    0.7890    1.3270 oh        1 XDL     -0.592800
      5 C4          1.3150    0.3960    2.5240 c3        1 XDL     -0.082400
      6 C5         -0.0230   -0.3050    2.4670 c3        1 XDL     -0.092400
      7 C6         -0.7500   -0.0020    1.1580 c3        1 XDL      0.095000
      8 O2          2.0890    0.1650   -1.0460 o         1 XDL     -0.656500
      9 H1         -0.3850   -0.0280   -0.8940 hn        1 XDL      0.321500
     10 H3          2.5070   -1.1190    1.4840 h1        1 XDL      0.060700
     11 HA          3.7320    0.6940    0.4530 ho        1 XDL      0.431000
     12 H4C1        1.1790    1.5080    2.4870 hc        1 XDL      0.066200
     13 H4C2        1.8450    0.1540    3.4810 hc        1 XDL      0.066200
     14 H5C1       -0.6690    0.0340    3.3160 hc        1 XDL      0.056700
     15 H5C2        0.1240   -1.4120    2.5710 hc        1 XDL      0.056700
     16 H6C1       -1.6170   -0.7140    1.0460 h1        1 XDL      0.040200
     17 H6C2       -1.1760    1.0440    1.2170 h1        1 XDL      0.040200
@<TRIPOS>BOND
     1    1    2 1   
     2    1    7 1   
     3    1    9 1   
     4    2    3 1   
     5    2    8 2   
     6    3    4 1   
     7    3    5 1   
     8    3   10 1   
     9    4   11 1   
    10    5    6 1   
    11    5   12 1   
    12    5   13 1   
    13    6    7 1   
    14    6   14 1   
    15    6   15 1   
    16    7   16 1   
    17    7   17 1   
@<TRIPOS>SUBSTRUCTURE
     1 XDL         1 TEMP              0 ****  ****    0 ROOT
