@<TRIPOS>MOLECULE
XDL
   17    17     1     0     0
SMALL
bcc


@<TRIPOS>ATOM
      1 N1         -1.3540   -0.0460   -0.7060 n         1 XDL     -0.557900
      2 C2         -0.8010    0.0670    0.5490 c         1 XDL      0.658500
      3 C3          0.6910    0.3810    0.6930 c3        1 XDL      0.089100
      4 O3          1.2080   -0.2270    1.8610 oh        1 XDL     -0.592800
      5 C4          1.5090   -0.1260   -0.4880 c3        1 XDL     -0.082400
      6 C5          0.8640    0.3090   -1.7840 c3        1 XDL     -0.092400
      7 C6         -0.5650   -0.2220   -1.8940 c3        1 XDL      0.095000
      8 O2         -1.5160   -0.0220    1.5700 o         1 XDL     -0.656500
      9 H1         -2.3190   -0.2810   -0.7690 hn        1 XDL      0.321500
     10 H3          0.7830    1.5020    0.7850 h1        1 XDL      0.060700
     11 HA          0.5430   -0.1240    2.5590 ho        1 XDL      0.431000
     12 H4C1        2.5500    0.2810   -0.4120 hc        1 XDL      0.066200
     13 H4C2        1.5810   -1.2430   -0.4390 hc        1 XDL      0.066200
     14 H5C1        0.8590    1.4290   -1.8490 hc        1 XDL      0.056700
     15 H5C2        1.4530   -0.0800   -2.6540 hc        1 XDL      0.056700
     16 H6C1       -1.0890    0.3070   -2.7420 h1        1 XDL      0.040200
     17 H6C2       -0.5210   -1.3210   -2.1550 h1        1 XDL      0.040200
@<TRIPOS>BOND
     1    1    2 1   
     2    1    7 1   
     3    1    9 1   
     4    2    3 1   
     5    2    8 2   
     6    3    4 1   
     7    3    5 1   
     8    3   10 1   
     9    4   11 1   
    10    5    6 1   
    11    5   12 1   
    12    5   13 1   
    13    6    7 1   
    14    6   14 1   
    15    6   15 1   
    16    7   16 1   
    17    7   17 1   
@<TRIPOS>SUBSTRUCTURE
     1 XDL         1 TEMP              0 ****  ****    0 ROOT
