@<TRIPOS>MOLECULE
XDL
   17    17     1     0     0
SMALL
bcc


@<TRIPOS>ATOM
      1 N1          0.0660   -0.1240   -0.0150 n         1 XDL     -0.557900
      2 C2          1.4340    0.0100    0.0150 c         1 XDL      0.658500
      3 C3          2.1720   -0.0620    1.3550 c3        1 XDL      0.089100
      4 O3          3.3220    0.7620    1.3250 oh        1 XDL     -0.592800
      5 C4          1.3080    0.3990    2.5210 c3        1 XDL     -0.082400
      6 C5         -0.0360   -0.2900    2.4680 c3        1 XDL     -0.092400
      7 C6         -0.7580    0.0090    1.1550 c3        1 XDL      0.095000
      8 O2          2.0860    0.1260   -1.0440 o         1 XDL     -0.656500
      9 H1         -0.3900   -0.0410   -0.8960 hn        1 XDL      0.321500
     10 H3          2.4880   -1.1360    1.4990 h1        1 XDL      0.060700
     11 HA          3.7320    0.6540    0.4530 ho        1 XDL      0.431000
     12 H4C1        1.8330    0.1620    3.4820 hc        1 XDL      0.066200
     13 H4C2        1.1830    1.5130    2.4740 hc        1 XDL      0.066200
     14 H5C1        0.1000   -1.3970    2.5840 hc        1 XDL      0.056700
     15 H5C2       -0.6810    0.0640    3.3130 hc        1 XDL      0.056700
     16 H6C1       -1.6320   -0.6970    1.0480 h1        1 XDL      0.040200
     17 H6C2       -1.1740    1.0590    1.2030 h1        1 XDL      0.040200
@<TRIPOS>BOND
     1    1    2 1   
     2    1    7 1   
     3    1    9 1   
     4    2    3 1   
     5    2    8 2   
     6    3    4 1   
     7    3    5 1   
     8    3   10 1   
     9    4   11 1   
    10    5    6 1   
    11    5   12 1   
    12    5   13 1   
    13    6    7 1   
    14    6   14 1   
    15    6   15 1   
    16    7   16 1   
    17    7   17 1   
@<TRIPOS>SUBSTRUCTURE
     1 XDL         1 TEMP              0 ****  ****    0 ROOT
