@<TRIPOS>MOLECULE
XDN
   20    20     1     0     0
SMALL
bcc


@<TRIPOS>ATOM
      1 C1          0.0700    0.0170   -0.0150 c3        1 XDN      0.144300
      2 C2          1.6070    0.0340    0.0800 c3        1 XDN      0.127600
      3 O2          2.1460   -1.1730   -0.4410 oh        1 XDN     -0.604300
      4 C3          2.0470    0.0960    1.5490 c3        1 XDN      0.109100
      5 O3          3.4500    0.2770    1.6540 oh        1 XDN     -0.609800
      6 C4          1.3960    1.3090    2.2340 c3        1 XDN      0.127600
      7 O4          1.6440    1.2810    3.6290 oh        1 XDN     -0.604300
      8 C5         -0.1340    1.2530    2.0690 c3        1 XDN      0.144300
      9 N5         -0.5330    1.1340    0.6810 n3        1 XDN     -0.819200
     10 H11        -0.2850   -0.9850    0.3680 h1        1 XDN      0.043700
     11 H12        -0.2270    0.0920   -1.0990 h1        1 XDN      0.043700
     12 H2          2.0300    0.9110   -0.4830 h1        1 XDN      0.062200
     13 HO2         1.8880   -1.2190   -1.3690 ho        1 XDN      0.415500
     14 H3          1.7530   -0.8550    2.0750 h1        1 XDN      0.060700
     15 HO3         3.8580   -0.4440    1.1570 ho        1 XDN      0.423000
     16 H4          1.8140    2.2560    1.7940 h1        1 XDN      0.062200
     17 HO4         2.6040    1.2330    3.7320 ho        1 XDN      0.415500
     18 H51        -0.5180    0.4070    2.7110 h1        1 XDN      0.043700
     19 H52        -0.5660    2.2120    2.4690 h1        1 XDN      0.043700
     20 HN5        -1.5330    1.0750    0.6190 hn        1 XDN      0.372800
@<TRIPOS>BOND
     1    1    2 1   
     2    1    9 1   
     3    1   10 1   
     4    1   11 1   
     5    2    3 1   
     6    2    4 1   
     7    2   12 1   
     8    3   13 1   
     9    4    5 1   
    10    4    6 1   
    11    4   14 1   
    12    5   15 1   
    13    6    7 1   
    14    6    8 1   
    15    6   16 1   
    16    7   17 1   
    17    8    9 1   
    18    8   18 1   
    19    8   19 1   
    20    9   20 1   
@<TRIPOS>SUBSTRUCTURE
     1 XDN         1 TEMP              0 ****  ****    0 ROOT
