@<TRIPOS>MOLECULE
XDN
   20    20     1     0     0
SMALL
bcc


@<TRIPOS>ATOM
      1 C1         -1.0800   -0.2990   -1.2270 c3        1 XDN      0.128300
      2 C2          0.4440   -0.2990   -1.2270 c3        1 XDN      0.129600
      3 O2          0.9070   -1.4660   -1.9180 oh        1 XDN     -0.601300
      4 C3          1.0100   -0.2990    0.1500 c3        1 XDN      0.114100
      5 O3          0.7300   -1.5800    0.7720 oh        1 XDN     -0.613800
      6 C4          0.4360    0.7820    0.9950 c3        1 XDN      0.129600
      7 O4          0.8900    0.6080    2.3420 oh        1 XDN     -0.601300
      8 C5         -1.0890    0.7780    0.9860 c3        1 XDN      0.128300
      9 N5         -1.6450    0.7710   -0.3820 n3        1 XDN     -0.813200
     10 H11        -1.3950   -0.1780   -2.1430 h1        1 XDN      0.042450
     11 H12        -1.3950   -1.1620   -0.8960 h1        1 XDN      0.042450
     12 H2          0.7610    0.4940   -1.6990 h1        1 XDN      0.072700
     13 HO2         1.2940   -1.2250   -2.6800 ho        1 XDN      0.414500
     14 H3          1.9780   -0.1780    0.0950 h1        1 XDN      0.059700
     15 HO3         1.4940   -1.9850    0.9720 ho        1 XDN      0.427000
     16 H4          0.7510    1.6440    0.6640 h1        1 XDN      0.072700
     17 HO4         1.2730    1.3580    2.6250 ho        1 XDN      0.414500
     18 H51        -1.4050   -0.0160    1.4580 h1        1 XDN      0.042450
     19 H52        -1.4100    1.5720    1.4530 h1        1 XDN      0.042450
     20 HN5        -2.5510    0.6800   -0.3410 hn        1 XDN      0.369800
@<TRIPOS>BOND
     1    1    2 1   
     2    1    9 1   
     3    1   10 1   
     4    1   11 1   
     5    2    3 1   
     6    2    4 1   
     7    2   12 1   
     8    3   13 1   
     9    4    5 1   
    10    4    6 1   
    11    4   14 1   
    12    5   15 1   
    13    6    7 1   
    14    6    8 1   
    15    6   16 1   
    16    7   17 1   
    17    8    9 1   
    18    8   18 1   
    19    8   19 1   
    20    9   20 1   
@<TRIPOS>SUBSTRUCTURE
     1 XDN         1 TEMP              0 ****  ****    0 ROOT
