@<TRIPOS>MOLECULE
XDN
   20    20     1     0     0
SMALL
bcc


@<TRIPOS>ATOM
      1 C1         -1.2120    1.4960    0.1990 c3        1 XDN      0.135800
      2 C2         -1.3150    0.0310   -0.2720 c3        1 XDN      0.091100
      3 O2         -2.4860   -0.5030    0.3190 oh        1 XDN     -0.598300
      4 C3         -0.0740   -0.7560    0.1840 c3        1 XDN      0.109100
      5 O3         -0.1820   -2.0460   -0.3950 oh        1 XDN     -0.610800
      6 C4          1.2070   -0.0490   -0.2860 c3        1 XDN      0.091100
      7 O4          2.2820   -0.7620    0.3070 oh        1 XDN     -0.598300
      8 C5          1.2010    1.4230    0.1690 c3        1 XDN      0.135800
      9 N5          0.0120    2.1640   -0.1890 n3        1 XDN     -0.792200
     10 H11        -2.0870    2.0680   -0.2130 h1        1 XDN      0.067450
     11 H12        -1.2840    1.5130    1.3230 h1        1 XDN      0.067450
     12 H2         -1.4010   -0.0280   -1.3930 h1        1 XDN      0.046700
     13 HO2        -2.4950   -1.4450    0.1030 ho        1 XDN      0.415000
     14 H3         -0.0640   -0.8460    1.3060 h1        1 XDN      0.065700
     15 HO3         0.6200   -2.5250   -0.1500 ho        1 XDN      0.424000
     16 H4          1.2880   -0.1190   -1.4070 h1        1 XDN      0.046700
     17 HO4         3.0920   -0.2900    0.0780 ho        1 XDN      0.415000
     18 H51         1.3000    1.4430    1.2920 h1        1 XDN      0.067450
     19 H52         2.0960    1.9450   -0.2680 h1        1 XDN      0.067450
     20 HN5         0.0060    2.3490   -1.1760 hn        1 XDN      0.355800
@<TRIPOS>BOND
     1    1    2 1   
     2    1    9 1   
     3    1   10 1   
     4    1   11 1   
     5    2    3 1   
     6    2    4 1   
     7    2   12 1   
     8    3   13 1   
     9    4    5 1   
    10    4    6 1   
    11    4   14 1   
    12    5   15 1   
    13    6    7 1   
    14    6    8 1   
    15    6   16 1   
    16    7   17 1   
    17    8    9 1   
    18    8   18 1   
    19    8   19 1   
    20    9   20 1   
@<TRIPOS>SUBSTRUCTURE
     1 XDN         1 TEMP              0 ****  ****    0 ROOT
