@<TRIPOS>MOLECULE
XDN
   20    20     1     0     0
SMALL
bcc


@<TRIPOS>ATOM
      1 C1         -0.0320    0.0090   -0.0040 c3        1 XDN      0.160300
      2 C2          1.5080    0.0280    0.0240 c3        1 XDN      0.131100
      3 O2          1.9370   -1.1820   -0.5850 oh        1 XDN     -0.599800
      4 C3          2.0000    0.0820    1.4770 c3        1 XDN      0.068100
      5 O3          3.4120    0.2360    1.5250 oh        1 XDN     -0.608800
      6 C4          1.3980    1.3070    2.1810 c3        1 XDN      0.131100
      7 O4          1.7060    1.2880    3.5650 oh        1 XDN     -0.599800
      8 C5         -0.1390    1.2620    2.0810 c3        1 XDN      0.160300
      9 N5         -0.5960    1.1350    0.7130 n3        1 XDN     -0.824200
     10 H11        -0.3710    0.0760   -1.0750 h1        1 XDN      0.047700
     11 H12        -0.3710   -0.9890    0.4030 h1        1 XDN      0.047700
     12 H2          1.9030    0.9150   -0.5430 h1        1 XDN      0.061700
     13 HO2         2.8420   -1.0320   -0.8810 ho        1 XDN      0.411500
     14 H3          1.7000   -0.8590    2.0180 h1        1 XDN      0.061700
     15 HO3         3.7890   -0.6090    1.2540 ho        1 XDN      0.407000
     16 H4          1.8040    2.2470    1.7150 h1        1 XDN      0.061700
     17 HO4         2.6700    1.2530    3.6250 ho        1 XDN      0.411500
     18 H51        -0.5470    2.2280    2.4920 h1        1 XDN      0.047700
     19 H52        -0.5010    0.4240    2.7460 h1        1 XDN      0.047700
     20 HN5        -1.5980    1.0830    0.6920 hn        1 XDN      0.373800
@<TRIPOS>BOND
     1    1    2 1   
     2    1    9 1   
     3    1   10 1   
     4    1   11 1   
     5    2    3 1   
     6    2    4 1   
     7    2   12 1   
     8    3   13 1   
     9    4    5 1   
    10    4    6 1   
    11    4   14 1   
    12    5   15 1   
    13    6    7 1   
    14    6    8 1   
    15    6   16 1   
    16    7   17 1   
    17    8    9 1   
    18    8   18 1   
    19    8   19 1   
    20    9   20 1   
@<TRIPOS>SUBSTRUCTURE
     1 XDN         1 TEMP              0 ****  ****    0 ROOT
