@<TRIPOS>MOLECULE
XDN
   20    20     1     0     0
SMALL
bcc


@<TRIPOS>ATOM
      1 C1          0.0820    0.0090   -0.0220 c3        1 XDN      0.144300
      2 C2          1.6170    0.0300    0.0860 c3        1 XDN      0.127600
      3 O2          2.1640   -1.1780   -0.4230 oh        1 XDN     -0.604300
      4 C3          2.0450    0.1000    1.5590 c3        1 XDN      0.109100
      5 O3          3.4460    0.2850    1.6750 oh        1 XDN     -0.609800
      6 C4          1.3850    1.3140    2.2320 c3        1 XDN      0.127600
      7 O4          1.6190    1.2940    3.6300 oh        1 XDN     -0.604300
      8 C5         -0.1440    1.2540    2.0540 c3        1 XDN      0.144300
      9 N5         -0.5310    1.1270    0.6630 n7        1 XDN     -0.819200
     10 H11        -0.2050    0.0780   -1.1090 h1        1 XDN      0.043700
     11 H12        -0.2740   -0.9920    0.3620 h1        1 XDN      0.043700
     12 H2          2.0440    0.9060   -0.4770 h1        1 XDN      0.062200
     13 HO2         1.9150   -1.2290   -1.3530 ho        1 XDN      0.415500
     14 H3          1.7480   -0.8490    2.0870 h1        1 XDN      0.060700
     15 HO3         3.8600   -0.4370    1.1860 ho        1 XDN      0.423000
     16 H4          1.8040    2.2610    1.7920 h1        1 XDN      0.062200
     17 HO4         2.5790    1.2490    3.7420 ho        1 XDN      0.415500
     18 H51        -0.5320    0.4100    2.6960 h1        1 XDN      0.043700
     19 H52        -0.5820    2.2140    2.4450 h1        1 XDN      0.043700
     20 HN5        -1.5300    1.0650    0.5930 hn        1 XDN      0.372800
@<TRIPOS>BOND
     1    1    2 1   
     2    1    9 1   
     3    1   10 1   
     4    1   11 1   
     5    2    3 1   
     6    2    4 1   
     7    2   12 1   
     8    3   13 1   
     9    4    5 1   
    10    4    6 1   
    11    4   14 1   
    12    5   15 1   
    13    6    7 1   
    14    6    8 1   
    15    6   16 1   
    16    7   17 1   
    17    8    9 1   
    18    8   18 1   
    19    8   19 1   
    20    9   20 1   
@<TRIPOS>SUBSTRUCTURE
     1 XDN         1 TEMP              0 ****  ****    0 ROOT
