@<TRIPOS>MOLECULE
XDP
   29    28     1     0     0
SMALL
bcc


@<TRIPOS>ATOM
      1 C1          0.6820   -0.4060   -2.3610 c3        1 XDP      0.175400
      2 C2         -0.3280   -0.0490   -1.2230 c3        1 XDP      0.282600
      3 C3          0.3860    0.2790    0.1200 c3        1 XDP      0.158100
      4 C4         -0.4830    0.1870    1.3990 c3        1 XDP      0.102100
      5 C5          0.2420   -0.6100    2.5130 c3        1 XDP      0.196400
      6 O1          0.0320   -1.0550   -3.3880 os        1 XDP     -0.588200
      7 O21        -1.2400   -1.1130   -1.0180 oh        1 XDP     -0.662800
      8 O22        -1.1420    1.0400   -1.5970 oh        1 XDP     -0.662800
      9 O3          0.9760    1.5640    0.0030 oh        1 XDP     -0.622800
     10 O4         -0.7850    1.5050    1.8320 oh        1 XDP     -0.676800
     11 O5         -0.5580   -0.7670    3.6240 os        1 XDP     -0.581200
     12 P1          0.0050   -0.2320   -4.9050 p5        1 XDP      1.323900
     13 P2          0.0060   -0.0310    5.0720 p5        1 XDP      1.324900
     14 O1P         1.4560    0.0370   -5.2050 o         1 XDP     -0.938833
     15 O2P        -0.6630   -1.2250   -5.8200 o         1 XDP     -0.938833
     16 O3P        -0.8200    0.9770   -4.5320 o         1 XDP     -0.938833
     17 O4P        -0.0450    1.4300    4.6890 o         1 XDP     -0.941833
     18 O5P        -0.9970   -0.4710    6.1090 o         1 XDP     -0.941833
     19 O6P         1.3920   -0.5980    5.2550 o         1 XDP     -0.941833
     20 H11         1.1690    0.5410   -2.7200 h1        1 XDP      0.006700
     21 H12         1.4630   -1.0890   -1.9190 h1        1 XDP      0.006700
     22 H3          1.2590   -0.4270    0.2150 h1        1 XDP      0.043700
     23 H4         -1.4580   -0.3130    1.1480 h1        1 XDP      0.051700
     24 H51         0.4960   -1.6240    2.0860 h1        1 XDP     -0.006800
     25 H52         1.1980   -0.0780    2.7840 h1        1 XDP     -0.006800
     26 HO21       -1.4680   -1.4400   -1.9000 ho        1 XDP      0.442500
     27 HO22       -1.1710    1.0560   -2.5810 ho        1 XDP      0.442500
     28 HO3         0.2420    2.1930    0.0380 ho        1 XDP      0.419000
     29 HO4        -0.5680    1.5520    2.7920 ho        1 XDP      0.475000
@<TRIPOS>BOND
     1    1    2 1   
     2    1    6 1   
     3    1   20 1   
     4    1   21 1   
     5    2    3 1   
     6    2    7 1   
     7    2    8 1   
     8    3    4 1   
     9    3    9 1   
    10    3   22 1   
    11    4    5 1   
    12    4   10 1   
    13    4   23 1   
    14    5   11 1   
    15    5   24 1   
    16    5   25 1   
    17    6   12 1   
    18    7   26 1   
    19    8   27 1   
    20    9   28 1   
    21   10   29 1   
    22   11   13 1   
    23   12   14 1   
    24   12   15 1   
    25   12   16 1   
    26   13   17 1   
    27   13   18 1   
    28   13   19 1   
@<TRIPOS>SUBSTRUCTURE
     1 XDP         1 TEMP              0 ****  ****    0 ROOT
