@<TRIPOS>MOLECULE
XDR
   69    76     1     0     0
SMALL
bcc


@<TRIPOS>ATOM
      1 CAR         5.0290   -1.3540    0.2530 c3        1 XDR      0.140400
      2 OAV         3.7180   -0.8820   -0.1190 os        1 XDR     -0.440900
      3 CAY         2.6610   -1.4280    0.5460 c         1 XDR      0.601100
      4 OAD         2.8750   -2.2930    1.3960 o         1 XDR     -0.523000
      5 CBM         1.3250   -0.8850    0.0530 c3        1 XDR      0.081800
      6 OAE         1.5150    0.0370   -0.9940 oh        1 XDR     -0.549800
      7 CAT         0.4330   -2.0690   -0.3610 c3        1 XDR     -0.151400
      8 CBL        -0.7190   -2.1100    0.6770 c3        1 XDR      0.264800
      9 OAW        -0.3110   -1.2440    1.7490 os        1 XDR     -0.396600
     10 CBN         0.5320   -0.1780    1.2530 c3        1 XDR      0.302500
     11 CAB         1.4770    0.1480    2.4190 c3        1 XDR     -0.110100
     12 NBK        -0.2970    0.9350    0.8320 na        1 XDR     -0.088300
     13 CBE        -0.0020    2.3150    0.8940 ca        1 XDR      0.040800
     14 CAM         1.1700    2.9880    1.2540 ca        1 XDR     -0.159000
     15 CAI         1.1750    4.3810    1.2240 ca        1 XDR     -0.093000
     16 CAF         0.0500    5.1130    0.8360 ca        1 XDR     -0.162000
     17 CAJ        -1.1220    4.4640    0.4530 ca        1 XDR     -0.068000
     18 CBB        -1.1630    3.0770    0.4720 cp        1 XDR     -0.090000
     19 CBF        -2.1970    2.1230    0.1190 cp        1 XDR      0.009000
     20 CBI        -1.6110    0.8080    0.3380 ca        1 XDR     -0.001200
     21 CBH        -2.3600   -0.3300    0.0580 ca        1 XDR     -0.018200
     22 NBJ        -1.9880   -1.6810    0.1520 na        1 XDR     -0.110300
     23 CBD        -3.1190   -2.4640   -0.1480 ca        1 XDR      0.022800
     24 CAL        -3.2760   -3.8520   -0.1580 ca        1 XDR     -0.172000
     25 CAH        -4.5170   -4.3640   -0.5360 ca        1 XDR     -0.088000
     26 CAG        -5.5780   -3.5290   -0.8990 ca        1 XDR     -0.166000
     27 CAK        -5.4370   -2.1410   -0.8930 ca        1 XDR     -0.054000
     28 CBC        -4.2170   -1.5940   -0.5180 cp        1 XDR     -0.089000
     29 CBG        -3.7420   -0.2270   -0.3930 cp        1 XDR      0.034000
     30 CBA        -4.2710    1.0260   -0.5820 ca        1 XDR     -0.164600
     31 CAZ        -3.4930    2.2010   -0.3310 ca        1 XDR     -0.189900
     32 CAS        -4.3890    3.3480   -0.6470 cc        1 XDR      0.519800
     33 NAU        -5.5790    2.9870   -1.0440 nd        1 XDR     -0.609100
     34 CAX        -5.6230    1.5150   -1.0410 c         1 XDR      0.693100
     35 OAC        -6.5980    0.8400   -1.3600 o         1 XDR     -0.479100
     36 HAR         5.1890   -1.1440    1.3430 h1        1 XDR      0.055200
     37 HARA        5.0760   -2.4600    0.0790 h1        1 XDR      0.055200
     38 C28         6.0080   -0.5960   -0.6220 c3        1 XDR     -0.086400
     39 HOAE        2.0940   -0.3800   -1.6480 ho        1 XDR      0.426000
     40 HAT         0.0630   -1.9190   -1.4060 hc        1 XDR      0.089700
     41 HATA        0.9900   -3.0370   -0.3140 hc        1 XDR      0.089700
     42 HBL        -0.8340   -3.1320    1.1440 h2        1 XDR      0.108700
     43 HAB         2.4460    0.5390    2.0270 hc        1 XDR      0.073367
     44 HABA        1.0220    0.8950    3.1120 hc        1 XDR      0.073367
     45 HABB        1.6700   -0.7960    2.9900 hc        1 XDR      0.073367
     46 HAM         2.0820    2.4480    1.5400 ha        1 XDR      0.141000
     47 HAI         2.0940    4.9150    1.5090 ha        1 XDR      0.134000
     48 HAF         0.0920    6.2120    0.8270 ha        1 XDR      0.136000
     49 HAJ        -2.0040    5.0400    0.1370 ha        1 XDR      0.135000
     50 HAL        -2.4550   -4.5240    0.1240 ha        1 XDR      0.135000
     51 HAH        -4.6620   -5.4560   -0.5460 ha        1 XDR      0.134000
     52 HAG        -6.5400   -3.9730   -1.1920 ha        1 XDR      0.139000
     53 HAK        -6.2730   -1.4800   -1.1790 ha        1 XDR      0.169000
     54 HAS        -4.0780    4.3970   -0.5550 h4        1 XDR      0.046800
     55 H19         5.8780    0.5060   -0.4620 hc        1 XDR      0.056700
     56 C29         7.4260   -1.0100   -0.2940 c3        1 XDR     -0.078400
     57 H20         5.7840   -0.8030   -1.7010 hc        1 XDR      0.056700
     58 H21         7.5430   -2.1150   -0.4490 hc        1 XDR      0.043700
     59 C30         8.4220   -0.2680   -1.1590 c3        1 XDR     -0.078400
     60 H22         7.6390   -0.8030    0.7880 hc        1 XDR      0.043700
     61 C31         9.8430   -0.6770   -0.8340 c3        1 XDR     -0.080400
     62 H23         8.2090   -0.4750   -2.2410 hc        1 XDR      0.042700
     63 H24         8.3040    0.8370   -1.0040 hc        1 XDR      0.042700
     64 H25         9.9570   -1.7830   -0.9880 hc        1 XDR      0.039700
     65 C32        10.8380    0.0590   -1.6930 c3        1 XDR     -0.093100
     66 H26        10.0530   -0.4700    0.2480 hc        1 XDR      0.039700
     67 H27        11.8790   -0.2570   -1.4380 hc        1 XDR      0.034367
     68 H28        10.6600   -0.1530   -2.7750 hc        1 XDR      0.034367
     69 H29        10.7560    1.1620   -1.5350 hc        1 XDR      0.034367
@<TRIPOS>BOND
     1    1    2 1   
     2    1   36 1   
     3    1   37 1   
     4    1   38 1   
     5    2    3 1   
     6    3    4 2   
     7    3    5 1   
     8    5    6 1   
     9    5    7 1   
    10    5   10 1   
    11    6   39 1   
    12    7    8 1   
    13    7   40 1   
    14    7   41 1   
    15    8    9 1   
    16    8   22 1   
    17    8   42 1   
    18    9   10 1   
    19   10   11 1   
    20   10   12 1   
    21   11   43 1   
    22   11   44 1   
    23   11   45 1   
    24   12   13 1   
    25   12   20 1   
    26   13   14 ar  
    27   13   18 ar  
    28   14   15 ar  
    29   14   46 1   
    30   15   16 ar  
    31   15   47 1   
    32   16   17 ar  
    33   16   48 1   
    34   17   18 ar  
    35   17   49 1   
    36   18   19 1   
    37   19   20 ar  
    38   19   31 ar  
    39   20   21 ar  
    40   21   22 1   
    41   21   29 ar  
    42   22   23 1   
    43   23   24 ar  
    44   23   28 ar  
    45   24   25 ar  
    46   24   50 1   
    47   25   26 ar  
    48   25   51 1   
    49   26   27 ar  
    50   26   52 1   
    51   27   28 ar  
    52   27   53 1   
    53   28   29 1   
    54   29   30 ar  
    55   30   31 ar  
    56   30   34 1   
    57   31   32 1   
    58   32   33 2   
    59   32   54 1   
    60   33   34 1   
    61   34   35 2   
    62   38   55 1   
    63   38   56 1   
    64   38   57 1   
    65   56   58 1   
    66   56   59 1   
    67   56   60 1   
    68   59   61 1   
    69   59   62 1   
    70   59   63 1   
    71   61   64 1   
    72   61   65 1   
    73   61   66 1   
    74   65   67 1   
    75   65   68 1   
    76   65   69 1   
@<TRIPOS>SUBSTRUCTURE
     1 XDR         1 TEMP              0 ****  ****    0 ROOT
