@<TRIPOS>MOLECULE
XDS
   21    22     1     0     0
SMALL
bcc


@<TRIPOS>ATOM
      1 O4         -0.0560   -0.4250   -0.1600 o         1 XDS     -0.542500
      2 C4          1.1750   -0.2870   -0.1530 c         1 XDS      0.846900
      3 N2          1.8220   -0.1180    1.1090 ns        1 XDS     -0.613500
      4 C3          3.1930   -0.1860    1.2920 c         1 XDS      0.704500
      5 O3          3.7250   -0.0200    2.3970 o         1 XDS     -0.574500
      6 N3          1.9310   -0.2010   -1.3670 ne        1 XDS     -0.626100
      7 C5          3.2260   -0.2990   -1.2690 c2        1 XDS      0.536900
      8 N           4.2100   -0.0470   -2.2340 n         1 XDS     -0.370300
      9 C           3.9370    0.4300   -3.5570 c3        1 XDS      0.084300
     10 C2          4.0020   -0.6340    0.0600 c3        1 XDS      0.051900
     11 O1          4.0430   -2.1030    0.1230 os        1 XDS     -0.188800
     12 O2          4.8600   -2.5420    1.0070 oh        1 XDS     -0.375000
     13 N1          5.3070   -0.0150   -0.1460 ns        1 XDS     -0.483900
     14 C1          5.4710    0.1620   -1.5620 c         1 XDS      0.784500
     15 O           6.5150    0.4890   -2.1350 o         1 XDS     -0.559500
     16 H2          1.2400    0.0510    1.9030 hn        1 XDS      0.353500
     17 HC1         3.4170    1.4250   -3.5300 h1        1 XDS      0.069033
     18 HC2         3.2770   -0.3130   -4.0810 h1        1 XDS      0.069033
     19 HC3         4.9120    0.5290   -4.1050 h1        1 XDS      0.069033
     20 H1          6.0760   -0.4160    0.3510 hn        1 XDS      0.343500
     21 H3          4.3880   -2.5950    1.8740 ho        1 XDS      0.420000
@<TRIPOS>BOND
     1    1    2 2   
     2    2    3 1   
     3    2    6 1   
     4    3    4 1   
     5    3   16 1   
     6    4    5 2   
     7    4   10 1   
     8    6    7 2   
     9    7    8 1   
    10    7   10 1   
    11    8    9 1   
    12    8   14 1   
    13    9   17 1   
    14    9   18 1   
    15    9   19 1   
    16   10   11 1   
    17   10   13 1   
    18   11   12 1   
    19   12   21 1   
    20   13   14 1   
    21   13   20 1   
    22   14   15 2   
@<TRIPOS>SUBSTRUCTURE
     1 XDS         1 TEMP              0 ****  ****    0 ROOT
