@<TRIPOS>MOLECULE
XDS
   21    22     1     0     0
SMALL
bcc


@<TRIPOS>ATOM
      1 O4         -0.0730   -0.3170   -0.1000 o         1 XDS     -0.544500
      2 C4          1.1580   -0.1830   -0.1040 c         1 XDS      0.847900
      3 N2          1.8190    0.0500    1.1370 n         1 XDS     -0.613500
      4 C3          3.1980    0.0040    1.3000 c         1 XDS      0.720500
      5 O3          3.7590    0.3630    2.3400 o         1 XDS     -0.555500
      6 N3          1.9050   -0.1580   -1.3320 ne        1 XDS     -0.619100
      7 C5          3.1950   -0.2980   -1.2390 c2        1 XDS      0.525900
      8 N           4.1860   -0.1510   -2.2230 n         1 XDS     -0.368300
      9 C           3.9300    0.3250   -3.5490 c3        1 XDS      0.082300
     10 C2          3.9610   -0.6030    0.1070 c3        1 XDS      0.078900
     11 O1          3.8990   -2.0620    0.2280 os        1 XDS     -0.198800
     12 O2          4.4400   -2.4900    1.3140 oh        1 XDS     -0.375000
     13 N1          5.2980   -0.0990   -0.1550 n         1 XDS     -0.528900
     14 C1          5.4620    0.0170   -1.5670 c         1 XDS      0.793500
     15 O           6.5260    0.2490   -2.1540 o         1 XDS     -0.570500
     16 H2          1.2490    0.2590    1.9290 hn        1 XDS      0.355500
     17 HC1         4.8980    0.3250   -4.1190 h1        1 XDS      0.069033
     18 HC2         3.1950   -0.3660   -4.0430 h1        1 XDS      0.069033
     19 HC3         3.5020    1.3640   -3.5350 h1        1 XDS      0.069033
     20 H1          6.0590   -0.3880    0.4120 hn        1 XDS      0.347500
     21 H3          5.2900   -2.9260    1.0670 ho        1 XDS      0.415000
@<TRIPOS>BOND
     1    1    2 2   
     2    2    3 1   
     3    2    6 1   
     4    3    4 1   
     5    3   16 1   
     6    4    5 2   
     7    4   10 1   
     8    6    7 2   
     9    7    8 1   
    10    7   10 1   
    11    8    9 1   
    12    8   14 1   
    13    9   17 1   
    14    9   18 1   
    15    9   19 1   
    16   10   11 1   
    17   10   13 1   
    18   11   12 1   
    19   12   21 1   
    20   13   14 1   
    21   13   20 1   
    22   14   15 2   
@<TRIPOS>SUBSTRUCTURE
     1 XDS         1 TEMP              0 ****  ****    0 ROOT
