@<TRIPOS>MOLECULE
XDS
   21    22     1     0     0
SMALL
bcc


@<TRIPOS>ATOM
      1 O4         -0.0790   -0.3550   -0.1130 o         1 XDS     -0.544500
      2 C4          1.1510   -0.2100   -0.1110 c         1 XDS      0.847900
      3 N2          1.8050    0.0210    1.1330 n         1 XDS     -0.613500
      4 C3          3.1840   -0.0120    1.3020 c         1 XDS      0.720500
      5 O3          3.7370    0.3450    2.3460 o         1 XDS     -0.555500
      6 N3          1.9030   -0.1710   -1.3360 ne        1 XDS     -0.619100
      7 C5          3.1930   -0.3000   -1.2390 c2        1 XDS      0.525900
      8 N           4.1870   -0.1380   -2.2180 n         1 XDS     -0.368300
      9 C           3.9320    0.3440   -3.5420 c3        1 XDS      0.082300
     10 C2          3.9570   -0.6060    0.1080 c3        1 XDS      0.078900
     11 O1          3.9080   -2.0660    0.2210 os        1 XDS     -0.198800
     12 O2          4.4500   -2.4960    1.3050 oh        1 XDS     -0.375000
     13 N1          5.2900   -0.0880   -0.1450 n         1 XDS     -0.528900
     14 C1          5.4590    0.0380   -1.5560 c         1 XDS      0.793500
     15 O           6.5220    0.2830   -2.1380 o         1 XDS     -0.570500
     16 H2          1.2300    0.2210    1.9250 hn        1 XDS      0.355500
     17 HC1         4.9020    0.3560   -4.1080 h1        1 XDS      0.069033
     18 HC2         3.2050   -0.3510   -4.0430 h1        1 XDS      0.069033
     19 HC3         3.4950    1.3790   -3.5240 h1        1 XDS      0.069033
     20 H1          6.0520   -0.3730    0.4230 hn        1 XDS      0.347500
     21 H3          5.3040   -2.9230    1.0580 ho        1 XDS      0.415000
@<TRIPOS>BOND
     1    1    2 2   
     2    2    3 1   
     3    2    6 1   
     4    3    4 1   
     5    3   16 1   
     6    4    5 2   
     7    4   10 1   
     8    6    7 2   
     9    7    8 1   
    10    7   10 1   
    11    8    9 1   
    12    8   14 1   
    13    9   17 1   
    14    9   18 1   
    15    9   19 1   
    16   10   11 1   
    17   10   13 1   
    18   11   12 1   
    19   12   21 1   
    20   13   14 1   
    21   13   20 1   
    22   14   15 2   
@<TRIPOS>SUBSTRUCTURE
     1 XDS         1 TEMP              0 ****  ****    0 ROOT
