@<TRIPOS>MOLECULE
XDT
   19    18     1     0     0
SMALL
bcc


@<TRIPOS>ATOM
      1 N          -0.8030    1.4210    1.1440 n3        1 XDT     -0.880800
      2 CA         -0.2420    0.3210    0.3720 c3        1 XDT     -0.005500
      3 C          -1.2340   -0.2890   -0.6750 c         1 XDT      0.882600
      4 O          -0.8290   -1.2740   -1.3560 o         1 XDT     -0.844300
      5 CB          1.0930    0.6420   -0.3400 c3        1 XDT      0.157100
      6 OG1         2.1420   -0.1720    0.2180 os        1 XDT     -0.450600
      7 CG2         1.5880    2.0710   -0.2090 c3        1 XDT     -0.082100
      8 CD1         2.1200   -1.5070   -0.2570 c3        1 XDT      0.102700
      9 OXT        -2.3890    0.2150   -0.7710 o         1 XDT     -0.844300
     10 H          -0.9410    2.2040    0.5290 hn        1 XDT      0.329800
     11 H2         -1.7230    1.1330    1.4360 hn        1 XDT      0.329800
     12 HCA        -0.0290   -0.5050    1.1150 h1        1 XDT      0.055700
     13 HB          0.9800    0.3840   -1.4320 h1        1 XDT      0.056700
     14 HG21        0.8590    2.7680   -0.6860 hc        1 XDT      0.029033
     15 HG22        1.7220    2.3490    0.8620 hc        1 XDT      0.029033
     16 HG23        2.5740    2.1730   -0.7240 hc        1 XDT      0.029033
     17 HD11        1.0760   -1.8590   -0.4710 h1        1 XDT      0.034367
     18 HD12        2.7380   -1.5690   -1.1890 h1        1 XDT      0.034367
     19 HD13        2.5930   -2.1150    0.5530 h1        1 XDT      0.034367
@<TRIPOS>BOND
     1    1    2 1   
     2    1   10 1   
     3    1   11 1   
     4    2    3 1   
     5    2    5 1   
     6    2   12 1   
     7    3    4 1   
     8    3    9 1   
     9    5    6 1   
    10    5    7 1   
    11    5   13 1   
    12    6    8 1   
    13    7   14 1   
    14    7   15 1   
    15    7   16 1   
    16    8   17 1   
    17    8   18 1   
    18    8   19 1   
@<TRIPOS>SUBSTRUCTURE
     1 XDT         1 TEMP              0 ****  ****    0 ROOT
