@<TRIPOS>MOLECULE
XE4
   63    65     1     0     0
SMALL
bcc


@<TRIPOS>ATOM
      1 C1         -5.9120    0.0730   -1.1610 c3        1 XE4     -0.075200
      2 C2         -6.5510    1.4540   -1.0210 c3        1 XE4      0.145100
      3 C3         -6.9420    1.7340    0.4240 c3        1 XE4     -0.069400
      4 C4         -5.7290    1.6230    1.3420 c3        1 XE4      0.183300
      5 C5         -4.9920    0.3210    1.1450 ce        1 XE4     -0.121200
      6 C6         -4.7500   -0.0860   -0.2390 ce        1 XE4     -0.064200
      7 C7         -3.5830   -0.5920   -0.6910 cf        1 XE4     -0.119000
      8 C8         -2.3900   -0.7630    0.1050 cf        1 XE4     -0.147000
      9 C9         -1.3690   -1.5900   -0.1760 c2        1 XE4     -0.079400
     10 C10        -4.6180   -0.4170    2.1970 c2        1 XE4     -0.194000
     11 O1         -7.7490    1.5240   -1.7850 oh        1 XE4     -0.599800
     12 O2         -4.9010    2.7510    1.0710 oh        1 XE4     -0.596800
     13 C11        -0.1620   -1.7150    0.6820 c3        1 XE4     -0.036500
     14 C12         1.1250   -1.4720   -0.1480 c3        1 XE4     -0.037000
     15 C13         1.2170   -2.5720   -1.1910 c3        1 XE4     -0.067400
     16 C14        -0.0150   -2.5610   -2.0790 c3        1 XE4     -0.073400
     17 C15        -1.3330   -2.5530   -1.3200 c3        1 XE4     -0.044200
     18 C16         0.0280   -0.8460    1.9180 c3        1 XE4     -0.074400
     19 C17         1.5340   -0.8800    2.1930 c3        1 XE4     -0.072400
     20 C18         2.2090   -1.5190    0.9580 c3        1 XE4      0.011400
     21 C19         3.4380   -0.8770    0.6070 c1        1 XE4     -0.068100
     22 C20         4.4870   -0.3620    0.3290 cg        1 XE4     -0.069000
     23 C21         5.6660    0.2190    0.0120 cg        1 XE4     -0.026000
     24 C22         6.7130    0.7350   -0.2660 c1        1 XE4     -0.137100
     25 C23         7.9740    1.3680   -0.6090 c3        1 XE4      0.238900
     26 C24         8.4030    2.3170    0.5120 c3        1 XE4     -0.101100
     27 O3          8.9930    0.3880   -0.8250 oh        1 XE4     -0.588800
     28 C25         7.8530    2.1260   -1.9330 c3        1 XE4     -0.101100
     29 C26         1.1260   -0.1050   -0.8120 c3        1 XE4     -0.085100
     30 H11A       -5.5980   -0.0810   -2.2280 hc        1 XE4      0.054700
     31 H12        -6.6810   -0.7100   -0.9210 hc        1 XE4      0.054700
     32 H2         -5.8290    2.2450   -1.3730 h1        1 XE4      0.054700
     33 H31        -7.3700    2.7660    0.4950 hc        1 XE4      0.067200
     34 H32        -7.7230    1.0030    0.7540 hc        1 XE4      0.067200
     35 H4         -6.0750    1.6980    2.4150 h1        1 XE4      0.038700
     36 H7         -3.5050   -0.8750   -1.7560 ha        1 XE4      0.125000
     37 H8         -2.3400   -0.1370    1.0170 ha        1 XE4      0.127000
     38 H101       -4.8180   -0.1080    3.2320 ha        1 XE4      0.121000
     39 H102       -4.1000   -1.3790    2.0840 ha        1 XE4      0.121000
     40 HO1        -7.4960    1.3990   -2.7070 ho        1 XE4      0.399000
     41 HO2        -4.0400    2.5720    1.4660 ho        1 XE4      0.403000
     42 H11        -0.1390   -2.7920    1.0330 hc        1 XE4      0.055700
     43 H131        1.3080   -3.5680   -0.6820 hc        1 XE4      0.045700
     44 H132        2.1320   -2.4290   -1.8210 hc        1 XE4      0.045700
     45 H141        0.0070   -3.4660   -2.7430 hc        1 XE4      0.043700
     46 H142        0.0260   -1.6600   -2.7480 hc        1 XE4      0.043700
     47 H151       -1.5190   -3.5800   -0.9010 hc        1 XE4      0.048700
     48 H152       -2.1590   -2.3410   -2.0480 hc        1 XE4      0.048700
     49 H161       -0.5540   -1.2410    2.7860 hc        1 XE4      0.047700
     50 H162       -0.3080    0.2040    1.7260 hc        1 XE4      0.047700
     51 H171        1.7600   -1.4870    3.1030 hc        1 XE4      0.050700
     52 H172        1.9210    0.1540    2.3650 hc        1 XE4      0.050700
     53 H18         2.4340   -2.6030    1.1850 hc        1 XE4      0.070700
     54 H241        7.6540    3.1340    0.6290 hc        1 XE4      0.050367
     55 H242        8.4910    1.7640    1.4780 hc        1 XE4      0.050367
     56 H243        9.3960    2.7590    0.2590 hc        1 XE4      0.050367
     57 HO3         9.0780   -0.1200   -0.0090 ho        1 XE4      0.405000
     58 H251        8.8340    2.5980   -2.1780 hc        1 XE4      0.050367
     59 H252        7.5800    1.4210   -2.7520 hc        1 XE4      0.050367
     60 H253        7.0710    2.9140   -1.8420 hc        1 XE4      0.050367
     61 H261        0.1890    0.0480   -1.4000 hc        1 XE4      0.042367
     62 H262        1.1920    0.7010   -0.0410 hc        1 XE4      0.042367
     63 H263        2.0020   -0.0140   -1.4980 hc        1 XE4      0.042367
@<TRIPOS>BOND
     1    1    2 1   
     2    1    6 1   
     3    1   30 1   
     4    1   31 1   
     5    2    3 1   
     6    2   11 1   
     7    2   32 1   
     8    3    4 1   
     9    3   33 1   
    10    3   34 1   
    11    4    5 1   
    12    4   12 1   
    13    4   35 1   
    14    5    6 1   
    15    5   10 2   
    16    6    7 2   
    17    7    8 1   
    18    7   36 1   
    19    8    9 2   
    20    8   37 1   
    21    9   13 1   
    22    9   17 1   
    23   10   38 1   
    24   10   39 1   
    25   11   40 1   
    26   12   41 1   
    27   13   14 1   
    28   13   18 1   
    29   13   42 1   
    30   14   15 1   
    31   14   20 1   
    32   14   29 1   
    33   15   16 1   
    34   15   43 1   
    35   15   44 1   
    36   16   17 1   
    37   16   45 1   
    38   16   46 1   
    39   17   47 1   
    40   17   48 1   
    41   18   19 1   
    42   18   49 1   
    43   18   50 1   
    44   19   20 1   
    45   19   51 1   
    46   19   52 1   
    47   20   21 1   
    48   20   53 1   
    49   21   22 3   
    50   22   23 1   
    51   23   24 3   
    52   24   25 1   
    53   25   26 1   
    54   25   27 1   
    55   25   28 1   
    56   26   54 1   
    57   26   55 1   
    58   26   56 1   
    59   27   57 1   
    60   28   58 1   
    61   28   59 1   
    62   28   60 1   
    63   29   61 1   
    64   29   62 1   
    65   29   63 1   
@<TRIPOS>SUBSTRUCTURE
     1 XE4         1 TEMP              0 ****  ****    0 ROOT
