@<TRIPOS>MOLECULE
XE4
   63    65     1     0     0
SMALL
bcc


@<TRIPOS>ATOM
      1 C1         -0.1070    0.2150   -0.1010 c3        1 XE4     -0.036200
      2 C2          1.3500    0.6430    0.0600 c3        1 XE4      0.146100
      3 C3          1.6850    0.8740    1.5290 c3        1 XE4     -0.147400
      4 C4          1.4380   -0.3870    2.3500 c3        1 XE4      0.186300
      5 C5          0.0570   -0.9450    2.1100 ce        1 XE4     -0.070200
      6 C6         -0.3990   -0.9960    0.7220 ce        1 XE4     -0.069200
      7 C7         -1.0600   -2.0400    0.1800 cf        1 XE4     -0.112000
      8 C8         -1.3650   -3.2730    0.8680 cf        1 XE4     -0.143000
      9 C9         -2.3480   -4.1290    0.5450 c2        1 XE4     -0.086400
     10 C10        -0.6980   -1.3430    3.1420 c2        1 XE4     -0.192000
     11 O1          1.5000    1.8420   -0.6900 oh        1 XE4     -0.599800
     12 O2          2.3710   -1.4150    2.0260 oh        1 XE4     -0.589800
     13 C11        -2.6050   -5.3930    1.2860 c3        1 XE4     -0.033500
     14 C12        -2.6010   -6.6020    0.3160 c3        1 XE4     -0.037000
     15 C13        -3.7590   -6.4220   -0.6510 c3        1 XE4     -0.066400
     16 C14        -3.6130   -5.1140   -1.4110 c3        1 XE4     -0.073400
     17 C15        -3.3670   -3.9030   -0.5250 c3        1 XE4     -0.044200
     18 C16        -1.7060   -5.8370    2.4320 c3        1 XE4     -0.075400
     19 C17        -1.9460   -7.3440    2.5550 c3        1 XE4     -0.072400
     20 C18        -2.7480   -7.7830    1.3080 c3        1 XE4      0.010400
     21 C19        -2.3170   -9.0460    0.7920 c1        1 XE4     -0.064100
     22 C20        -1.9800  -10.1210    0.3780 cg        1 XE4     -0.073000
     23 C21        -1.5970  -11.3310   -0.0900 cg        1 XE4     -0.023000
     24 C22        -1.2580  -12.4040   -0.5070 c1        1 XE4     -0.140100
     25 C23        -0.8570  -13.7060   -1.0100 c3        1 XE4      0.239900
     26 C24        -1.0370  -13.7560   -2.5290 c3        1 XE4     -0.101100
     27 O3          0.5070  -13.9820   -0.6790 oh        1 XE4     -0.588800
     28 C25        -1.6690  -14.8150   -0.3390 c3        1 XE4     -0.101100
     29 C26        -1.2880   -6.7240   -0.4390 c3        1 XE4     -0.085100
     30 H11A       -0.3100    0.0270   -1.1880 hc        1 XE4      0.062700
     31 H12        -0.7740    1.0580    0.2230 hc        1 XE4      0.062700
     32 H2          2.0310   -0.1520   -0.3560 h1        1 XE4      0.048700
     33 H31         1.0500    1.7060    1.9290 hc        1 XE4      0.053200
     34 H32         2.7570    1.1830    1.6270 hc        1 XE4      0.053200
     35 H4          1.5590   -0.1330    3.4450 h1        1 XE4      0.035700
     36 H7         -1.3710   -1.9810   -0.8790 ha        1 XE4      0.125000
     37 H8         -0.7000   -3.5070    1.7230 ha        1 XE4      0.137000
     38 H101       -1.7180   -1.7280    3.0060 ha        1 XE4      0.120000
     39 H102       -0.3430   -1.3020    4.1800 ha        1 XE4      0.120000
     40 HO1         2.4230    2.1070   -0.6060 ho        1 XE4      0.399000
     41 HO2         3.2490   -1.0280    2.1210 ho        1 XE4      0.397000
     42 H11        -3.6520   -5.3020    1.7080 hc        1 XE4      0.053700
     43 H131       -4.7270   -6.4260   -0.0860 hc        1 XE4      0.044200
     44 H132       -3.7880   -7.2750   -1.3780 hc        1 XE4      0.044200
     45 H141       -2.7660   -5.2110   -2.1410 hc        1 XE4      0.042200
     46 H142       -4.5460   -4.9360   -2.0080 hc        1 XE4      0.042200
     47 H151       -3.0730   -3.0400   -1.1800 hc        1 XE4      0.047700
     48 H152       -4.3310   -3.6180   -0.0200 hc        1 XE4      0.047700
     49 H161       -1.9620   -5.3050    3.3790 hc        1 XE4      0.050700
     50 H162       -0.6300   -5.6330    2.2010 hc        1 XE4      0.050700
     51 H171       -0.9730   -7.8910    2.6120 hc        1 XE4      0.050700
     52 H172       -2.5280   -7.5820    3.4790 hc        1 XE4      0.050700
     53 H18        -3.8380   -7.8740    1.5880 hc        1 XE4      0.070700
     54 H241       -2.1120  -13.6260   -2.7910 hc        1 XE4      0.050200
     55 H242       -0.4440  -12.9470   -3.0180 hc        1 XE4      0.050200
     56 H243       -0.6810  -14.7430   -2.9080 hc        1 XE4      0.050200
     57 HO3         1.0430  -13.2800   -1.0680 ho        1 XE4      0.405000
     58 H251       -1.5020  -14.7970    0.7640 hc        1 XE4      0.050200
     59 H252       -1.3400  -15.8040   -0.7360 hc        1 XE4      0.050200
     60 H253       -2.7520  -14.6670   -0.5540 hc        1 XE4      0.050200
     61 H261       -1.3660   -7.5240   -1.2150 hc        1 XE4      0.042033
     62 H262       -0.4610   -6.9890    0.2630 hc        1 XE4      0.042033
     63 H263       -1.0300   -5.7590   -0.9380 hc        1 XE4      0.042033
@<TRIPOS>BOND
     1    1    2 1   
     2    1    6 1   
     3    1   30 1   
     4    1   31 1   
     5    2    3 1   
     6    2   11 1   
     7    2   32 1   
     8    3    4 1   
     9    3   33 1   
    10    3   34 1   
    11    4    5 1   
    12    4   12 1   
    13    4   35 1   
    14    5    6 1   
    15    5   10 2   
    16    6    7 2   
    17    7    8 1   
    18    7   36 1   
    19    8    9 2   
    20    8   37 1   
    21    9   13 1   
    22    9   17 1   
    23   10   38 1   
    24   10   39 1   
    25   11   40 1   
    26   12   41 1   
    27   13   14 1   
    28   13   18 1   
    29   13   42 1   
    30   14   15 1   
    31   14   20 1   
    32   14   29 1   
    33   15   16 1   
    34   15   43 1   
    35   15   44 1   
    36   16   17 1   
    37   16   45 1   
    38   16   46 1   
    39   17   47 1   
    40   17   48 1   
    41   18   19 1   
    42   18   49 1   
    43   18   50 1   
    44   19   20 1   
    45   19   51 1   
    46   19   52 1   
    47   20   21 1   
    48   20   53 1   
    49   21   22 3   
    50   22   23 1   
    51   23   24 3   
    52   24   25 1   
    53   25   26 1   
    54   25   27 1   
    55   25   28 1   
    56   26   54 1   
    57   26   55 1   
    58   26   56 1   
    59   27   57 1   
    60   28   58 1   
    61   28   59 1   
    62   28   60 1   
    63   29   61 1   
    64   29   62 1   
    65   29   63 1   
@<TRIPOS>SUBSTRUCTURE
     1 XE4         1 TEMP              0 ****  ****    0 ROOT
