@<TRIPOS>MOLECULE
XE4
   63    63     1     0     0
SMALL
bcc


@<TRIPOS>ATOM
      1 C1          0.3020   -0.0420    0.4330 c3        1 XE4     -0.127000
      2 C2          1.2810   -0.2380   -0.7320 c3        1 XE4     -0.074000
      3 C3          2.0760    0.9650   -0.9540 c1        1 XE4     -0.033000
      4 C4          2.0910   -1.7640    2.1460 c3        1 XE4      0.007000
      5 C5          0.5920   -1.8400    2.1750 c2        1 XE4     -0.075000
      6 C6         -0.1400   -1.3490    1.0080 c2        1 XE4     -0.073000
      7 C7         -1.1920   -1.9970    0.4600 c2        1 XE4     -0.118000
      8 C8         -1.6900   -3.2800    0.8980 c2        1 XE4     -0.148000
      9 C9         -2.9260   -3.7640    0.6730 c2        1 XE4     -0.075000
     10 C10        -0.0340   -2.3120    3.2620 c2        1 XE4     -0.195000
     11 O1          0.6030   -0.6380   -1.9200 oh        1 XE4     -0.354000
     12 O2          2.5690   -2.5810    1.0830 oh        1 XE4     -0.328000
     13 C11        -3.3660   -5.1040    1.1700 c3        1 XE4     -0.070000
     14 C12        -2.8800   -6.3130    0.3210 c3        1 XE4     -0.003000
     15 C13        -3.7870   -6.5060   -0.8500 c2        1 XE4     -0.159000
     16 C14        -3.4170   -6.5420   -2.1270 c2        1 XE4     -0.209000
     17 C15        -3.9850   -3.0240   -0.0580 c3        1 XE4     -0.188000
     18 C16        -2.9620   -5.4160    2.6130 c3        1 XE4     -0.156000
     19 C17        -2.7640   -6.9220    2.7100 c3        1 XE4     -0.153000
     20 C18        -3.0460   -7.5020    1.3160 c3        1 XE4      0.001000
     21 C19        -2.2230   -8.6350    1.0160 c1        1 XE4     -0.093000
     22 C20        -1.5600   -9.6070    0.7770 c1        1 XE4     -0.069000
     23 C21        -0.8110  -10.7000    0.5090 c1        1 XE4     -0.024000
     24 C22        -0.1470  -11.6700    0.2680 c1        1 XE4     -0.166000
     25 C23         0.6650  -12.8380   -0.0220 c3        1 XE4      0.195000
     26 C24         0.9350  -12.9240   -1.5260 c3        1 XE4     -0.219000
     27 O3          0.0150  -14.0340    0.4180 oh        1 XE4     -0.316000
     28 C25         1.9830  -12.7840    0.7540 c3        1 XE4     -0.219000
     29 C26        -1.4270   -6.1720   -0.0850 c3        1 XE4     -0.206000
     30 H11A        0.7980    0.5830    1.2210 hc        1 XE4      0.109000
     31 H12        -0.5880    0.5260    0.0520 hc        1 XE4      0.109000
     32 H2          2.0420   -1.0400   -0.4450 h1        1 XE4      0.156000
     33 H31         2.4200   -0.7020    1.9740 h1        1 XE4      0.075000
     34 H32         2.1290    1.3220   -1.9950 ha        1 XE4      0.057000
     35 H4          2.5200   -2.1240    3.1210 h1        1 XE4      0.075000
     36 H7         -1.7050   -1.5350   -0.4040 ha        1 XE4      0.127000
     37 H8         -0.9540   -3.8940    1.4530 ha        1 XE4      0.137000
     38 H101        0.5110   -2.6820    4.1410 ha        1 XE4      0.120500
     39 H102       -1.1290   -2.3480    3.3380 ha        1 XE4      0.120500
     40 HO1         0.1280   -1.4540   -1.7230 ho        1 XE4      0.206000
     41 HO2         3.5300   -2.5990    1.1700 ho        1 XE4      0.202000
     42 H11        -4.4970   -5.1230    1.1380 hc        1 XE4      0.092000
     43 H131       -4.4710   -3.6990   -0.8080 hc        1 XE4      0.084667
     44 H132       -4.8510   -6.6250   -0.5770 ha        1 XE4      0.115000
     45 H141       -3.5890   -2.1310   -0.5980 hc        1 XE4      0.084667
     46 H142       -4.1470   -6.6900   -2.9350 ha        1 XE4      0.114500
     47 H151       -4.7700   -2.6770    0.6610 hc        1 XE4      0.084667
     48 H152       -2.3780   -6.4300   -2.4620 ha        1 XE4      0.114500
     49 H161       -3.7610   -5.0710    3.3160 hc        1 XE4      0.087500
     50 H162       -2.0200   -4.8830    2.8970 hc        1 XE4      0.087500
     51 H171       -1.7180   -7.1580    3.0290 hc        1 XE4      0.091000
     52 H172       -3.4560   -7.3750    3.4610 hc        1 XE4      0.091000
     53 H18        -4.1250   -7.8390    1.2790 hc        1 XE4      0.111000
     54 H241        1.5190  -13.8510   -1.7420 hc        1 XE4      0.089500
     55 H242       -0.0250  -12.9640   -2.0930 hc        1 XE4      0.089500
     56 H243        1.5180  -12.0350   -1.8620 hc        1 XE4      0.089500
     57 HO3        -0.8320  -14.0830   -0.0420 ho        1 XE4      0.204000
     58 H251        2.5510  -11.8710    0.4620 hc        1 XE4      0.089500
     59 H252        2.5860  -13.6930    0.5200 hc        1 XE4      0.089500
     60 H253        1.7780  -12.7620    1.8510 hc        1 XE4      0.089500
     61 H261       -1.0920   -7.0740   -0.6530 hc        1 XE4      0.084000
     62 H262       -0.7870   -6.0680    0.8260 hc        1 XE4      0.084000
     63 H263       -1.2840   -5.2690   -0.7260 hc        1 XE4      0.084000
@<TRIPOS>BOND
     1    1    2 1   
     2    1    6 1   
     3    1   30 1   
     4    1   31 1   
     5    2    3 1   
     6    2   11 1   
     7    2   32 1   
     8    3   34 1   
     9    4    5 1   
    10    4   12 1   
    11    4   33 1   
    12    4   35 1   
    13    5    6 1   
    14    5   10 1   
    15    6    7 1   
    16    7    8 1   
    17    7   36 1   
    18    8    9 1   
    19    8   37 1   
    20    9   13 1   
    21    9   17 1   
    22   10   38 1   
    23   10   39 1   
    24   11   40 1   
    25   12   41 1   
    26   13   14 1   
    27   13   18 1   
    28   13   42 1   
    29   14   15 1   
    30   14   20 1   
    31   14   29 1   
    32   15   16 1   
    33   15   44 1   
    34   16   46 1   
    35   16   48 1   
    36   17   43 1   
    37   17   45 1   
    38   17   47 1   
    39   18   19 1   
    40   18   49 1   
    41   18   50 1   
    42   19   20 1   
    43   19   51 1   
    44   19   52 1   
    45   20   21 1   
    46   20   53 1   
    47   21   22 1   
    48   22   23 1   
    49   23   24 1   
    50   24   25 1   
    51   25   26 1   
    52   25   27 1   
    53   25   28 1   
    54   26   54 1   
    55   26   55 1   
    56   26   56 1   
    57   27   57 1   
    58   28   58 1   
    59   28   59 1   
    60   28   60 1   
    61   29   61 1   
    62   29   62 1   
    63   29   63 1   
@<TRIPOS>SUBSTRUCTURE
     1 XE4         1 TEMP              0 ****  ****    0 ROOT
