@<TRIPOS>MOLECULE
XE4
   63    60     1     0     0
SMALL
bcc


@<TRIPOS>ATOM
      1 C1          3.2260   -2.4830    1.4740 c3        1 XE4     -0.122000
      2 C2          3.5210   -4.0710    1.9530 c3        1 XE4      0.035000
      3 C3          4.4810   -4.2220    2.7510 c3        1 XE4     -0.187000
      4 C4          4.3720   -3.3620    4.1620 c3        1 XE4      0.073000
      5 C5          4.0790   -1.9560    3.9210 c2        1 XE4     -0.116000
      6 C6          3.1390   -1.5950    2.5870 c2        1 XE4     -0.061000
      7 C7          2.3120   -0.4820    2.5630 c1        1 XE4     -0.121000
      8 C8          1.4490   -0.1780    1.3000 c1        1 XE4     -0.146000
      9 C9          0.4370    0.7730    1.3630 c1        1 XE4     -0.073000
     10 C10         4.5480   -0.9840    4.7410 c1        1 XE4     -0.199000
     11 O1          3.8040   -4.8890    0.7190 oh        1 XE4     -0.330000
     12 O2          3.4240   -3.9550    5.0760 oh        1 XE4     -0.326000
     13 C11         0.1300    1.3250    0.4480 c2        1 XE4     -0.071000
     14 C12        -0.9390    1.7000    0.4440 c3        1 XE4     -0.031000
     15 C13        -1.3270    2.5020    1.7720 c3        1 XE4     -0.149000
     16 C14        -1.0640    1.9330    2.7150 c3        1 XE4     -0.150000
     17 C15         0.1560    1.5470    2.7140 c3        1 XE4     -0.127000
     18 C16         0.9250    2.2870    0.0700 c3        1 XE4     -0.152000
     19 C17         0.2940    2.9440   -0.9470 c3        1 XE4     -0.153000
     20 C18        -0.9740    2.7850   -0.7120 c3        1 XE4     -0.002000
     21 C19        -1.8500    2.3430   -2.0240 c1        1 XE4     -0.096000
     22 C20        -2.4970    2.0160   -2.9930 c1        1 XE4     -0.073000
     23 C21        -3.3130    1.6060   -4.2160 c1        1 XE4     -0.095000
     24 C22        -3.9560    1.2840   -5.1820 c1        1 XE4     -0.095000
     25 C23        -4.7760    0.8740   -6.4130 c2        1 XE4      0.195000
     26 C24        -5.9860    1.7860   -6.5430 c3        1 XE4     -0.219000
     27 O3         -3.9760    0.9880   -7.5710 oh        1 XE4     -0.316000
     28 C25        -5.2400   -0.5700   -6.2570 c3        1 XE4     -0.219000
     29 C26        -1.9380    0.5520    0.1650 c3        1 XE4     -0.205000
     30 H11A        2.4330   -2.5170    0.9070 hc        1 XE4      0.104500
     31 H12         3.8890   -2.1320    0.8480 hc        1 XE4      0.104500
     32 H2          2.7090   -4.4210    2.3770 h1        1 XE4      0.094000
     33 H31         5.3070   -3.9570    2.2930 hc        1 XE4      0.099000
     34 H32         4.5460   -5.1730    2.9760 hc        1 XE4      0.099000
     35 H4          5.2030   -3.4500    4.6770 h1        1 XE4      0.077000
     36 H7          2.2700    0.1140    3.3430 ha        1 XE4      0.123000
     37 H8          1.5860   -0.6880    0.4850 ha        1 XE4      0.128000
     38 H101        4.3390   -0.0490    4.5590 DU        1 XE4      0.122000
     39 H102        5.1000   -1.2220    5.5210 ha        1 XE4      0.116000
     40 HO1         3.5390   -5.7270    0.8520 ho        1 XE4      0.200000
     41 HO2         3.8530   -4.2280    5.8160 ho        1 XE4      0.204000
     42 H11         0.1720    0.6580   -0.2750 ha        1 XE4      0.100000
     43 H131       -2.2920    2.6780    1.7650 hc        1 XE4      0.082000
     44 H132       -0.8460    3.3620    1.7750 hc        1 XE4      0.082000
     45 H141       -1.6450    1.1490    2.7860 hc        1 XE4      0.084000
     46 H142       -1.2150    2.5150    3.4940 hc        1 XE4      0.084000
     47 H151        0.7900    2.2930    2.8180 hc        1 XE4      0.088000
     48 H152        0.3590    1.0080    3.5060 hc        1 XE4      0.088000
     49 H161        1.7730    1.9150   -0.2470 hc        1 XE4      0.087000
     50 H162        1.0860    2.9000    0.8160 hc        1 XE4      0.087000
     51 H171        0.5270    3.8980   -0.9330 hc        1 XE4      0.090500
     52 H172        0.5330    2.5470   -1.8090 hc        1 XE4      0.090500
     53 H18        -1.4140    3.6140   -0.4390 hc        1 XE4      0.113000
     54 H241       -6.2190    1.8880   -7.4900 hc        1 XE4      0.089667
     55 H242       -5.7760    2.6660   -6.1610 hc        1 XE4      0.089667
     56 H243       -6.7440    1.3930   -6.0610 hc        1 XE4      0.089667
     57 HO3        -3.8590    0.1870   -7.9300 ho        1 XE4      0.204000
     58 H251       -4.4580   -1.1580   -6.1630 hc        1 XE4      0.089667
     59 H252       -5.7570   -0.8360   -7.0480 hc        1 XE4      0.089667
     60 H253       -5.8050   -0.6480   -5.4560 hc        1 XE4      0.089667
     61 H261       -1.7210    0.1300   -0.6970 hc        1 XE4      0.081333
     62 H262       -2.8510    0.9140    0.1320 hc        1 XE4      0.081333
     63 H263       -1.8760   -0.1180    0.8830 hc        1 XE4      0.081333
@<TRIPOS>BOND
     1    1    2 1   
     2    1    6 1   
     3    1   30 1   
     4    1   31 1   
     5    2    3 1   
     6    2   11 1   
     7    2   32 1   
     8    3    4 1   
     9    3   33 1   
    10    3   34 1   
    11    4    5 1   
    12    4   12 1   
    13    4   35 1   
    14    5    6 1   
    15    5   10 1   
    16    6    7 1   
    17    7   36 1   
    18    8    9 1   
    19    8   37 1   
    20    9   17 1   
    21   10   39 1   
    22   11   40 1   
    23   12   41 1   
    24   13   14 1   
    25   13   18 1   
    26   13   42 1   
    27   14   15 1   
    28   14   20 1   
    29   14   29 1   
    30   15   16 1   
    31   15   43 1   
    32   15   44 1   
    33   16   17 1   
    34   16   45 1   
    35   16   46 1   
    36   17   47 1   
    37   17   48 1   
    38   18   19 1   
    39   18   49 1   
    40   18   50 1   
    41   19   20 1   
    42   19   51 1   
    43   19   52 1   
    44   20   21 1   
    45   20   53 1   
    46   21   22 1   
    47   23   24 1   
    48   25   26 1   
    49   25   27 1   
    50   25   28 1   
    51   26   54 1   
    52   26   55 1   
    53   26   56 1   
    54   27   57 1   
    55   28   58 1   
    56   28   59 1   
    57   28   60 1   
    58   29   61 1   
    59   29   62 1   
    60   29   63 1   
@<TRIPOS>SUBSTRUCTURE
     1 XE4         1 TEMP              0 ****  ****    0 ROOT
