@<TRIPOS>MOLECULE
XEB
   42    44     1     0     0
SMALL
bcc


@<TRIPOS>ATOM
      1 N01        -0.2470    0.7340    0.1450 nb        1 XEB     -0.746000
      2 C02         1.0990    0.7120    0.0450 ca        1 XEB      0.662200
      3 N02         1.7180    1.3130   -1.0510 nh        1 XEB     -0.936500
      4 C03         1.9470    0.1420    1.0830 ca        1 XEB     -0.269300
      5 C04         1.3650   -0.3670    2.2080 ca        1 XEB     -0.052000
      6 C05        -0.0520   -0.3380    2.3530 ca        1 XEB     -0.180300
      7 C06        -0.7050   -0.8450    3.5030 ca        1 XEB     -0.081000
      8 C07        -2.0730   -0.7980    3.6100 ca        1 XEB     -0.142000
      9 C08        -2.8450   -0.2440    2.5580 ca        1 XEB     -0.096300
     10 C09        -2.2440    0.2570    1.4260 ca        1 XEB     -0.150300
     11 C10        -0.8170    0.2280    1.2890 ca        1 XEB      0.442600
     12 C11        -4.3320   -0.2420    2.6920 c3        1 XEB      0.176700
     13 O12        -4.7770    1.0790    2.3120 os        1 XEB     -0.309900
     14 C21        -6.1220    1.3150    2.3930 ca        1 XEB      0.162100
     15 C22        -7.0950    0.3650    2.7340 ca        1 XEB     -0.167000
     16 C23        -8.4390    0.7350    2.7610 ca        1 XEB     -0.059000
     17 C24        -8.8130    2.0430    2.4510 ca        1 XEB     -0.031600
     18 C25        -7.8410    3.0030    2.1230 ca        1 XEB     -0.141300
     19 C26        -6.4980    2.6420    2.0840 ca        1 XEB     -0.124000
     20 CL        -10.4670    2.4630    2.4800 cl        1 XEB     -0.092400
     21 C28        -8.2110    4.4270    1.8700 c3        1 XEB      0.168100
     22 N29        -9.0690    4.5640    0.6460 n4        1 XEB     -0.767000
     23 C30        -9.4260    5.9710    0.3700 c3        1 XEB      0.078100
     24 HN02        1.1450    1.5440   -1.8310 hn        1 XEB      0.417800
     25 HN0A        2.6200    0.9620   -1.2730 hn        1 XEB      0.417800
     26 H03         3.0380    0.1370    0.9520 ha        1 XEB      0.151000
     27 H04         1.9740   -0.8040    3.0150 ha        1 XEB      0.146000
     28 H06        -0.0930   -1.2760    4.3110 ha        1 XEB      0.142000
     29 H07        -2.5780   -1.1870    4.5070 ha        1 XEB      0.136000
     30 H09        -2.8530    0.6930    0.6180 ha        1 XEB      0.150000
     31 H11        -4.7950   -0.9920    1.9950 h1        1 XEB      0.056700
     32 H11A       -4.6540   -0.4460    3.7480 h1        1 XEB      0.056700
     33 H22        -6.8140   -0.6700    2.9840 ha        1 XEB      0.169000
     34 H23        -9.2050   -0.0120    3.0300 ha        1 XEB      0.173000
     35 H26        -5.7090    3.3690    1.8340 ha        1 XEB      0.168000
     36 H28        -7.2900    5.0630    1.7200 hx        1 XEB      0.114700
     37 H28A       -8.7950    4.8390    2.7450 hx        1 XEB      0.114700
     38 HN29       -9.9270    4.0030    0.7910 hn        1 XEB      0.459800
     39 H30        -9.9870    6.3960    1.2460 hx        1 XEB      0.108033
     40 H30A      -10.0740    6.0150   -0.5470 hx        1 XEB      0.108033
     41 H30B       -8.4930    6.5720    0.2000 hx        1 XEB      0.108033
     42 H292       -8.5670    4.1680   -0.1580 hn        1 XEB      0.459800
@<TRIPOS>BOND
     1    1    2 ar  
     2    1   11 ar  
     3    2    3 1   
     4    2    4 ar  
     5    3   24 1   
     6    3   25 1   
     7    4    5 ar  
     8    4   26 1   
     9    5    6 ar  
    10    5   27 1   
    11    6    7 ar  
    12    6   11 ar  
    13    7    8 ar  
    14    7   28 1   
    15    8    9 ar  
    16    8   29 1   
    17    9   10 ar  
    18    9   12 1   
    19   10   11 ar  
    20   10   30 1   
    21   12   13 1   
    22   12   31 1   
    23   12   32 1   
    24   13   14 1   
    25   14   15 ar  
    26   14   19 ar  
    27   15   16 ar  
    28   15   33 1   
    29   16   17 ar  
    30   16   34 1   
    31   17   18 ar  
    32   17   20 1   
    33   18   19 ar  
    34   18   21 1   
    35   19   35 1   
    36   21   22 1   
    37   21   36 1   
    38   21   37 1   
    39   22   23 1   
    40   22   38 1   
    41   22   42 1   
    42   23   39 1   
    43   23   40 1   
    44   23   41 1   
@<TRIPOS>SUBSTRUCTURE
     1 XEB         1 TEMP              0 ****  ****    0 ROOT
