@<TRIPOS>MOLECULE
XEB
   42    44     1     0     0
SMALL
bcc


@<TRIPOS>ATOM
      1 N01        -0.2410    0.7350    0.1540 nb        1 XEB     -0.746000
      2 C02         1.1060    0.7140    0.0560 ca        1 XEB      0.662200
      3 N02         1.7260    1.3140   -1.0390 nv        1 XEB     -0.936500
      4 C03         1.9510    0.1470    1.0970 ca        1 XEB     -0.269300
      5 C04         1.3670   -0.3610    2.2220 ca        1 XEB     -0.052000
      6 C05        -0.0510   -0.3330    2.3640 ca        1 XEB     -0.180300
      7 C06        -0.7050   -0.8390    3.5130 ca        1 XEB     -0.081000
      8 C07        -2.0730   -0.7930    3.6170 ca        1 XEB     -0.142000
      9 C08        -2.8440   -0.2430    2.5620 ca        1 XEB     -0.096300
     10 C09        -2.2410    0.2570    1.4310 ca        1 XEB     -0.150300
     11 C10        -0.8140    0.2300    1.2970 ca        1 XEB      0.442600
     12 C11        -4.3310   -0.2420    2.6930 c3        1 XEB      0.176700
     13 O12        -4.7760    1.0790    2.3110 os        1 XEB     -0.309900
     14 C21        -6.1210    1.3150    2.3890 ca        1 XEB      0.162100
     15 C22        -7.0950    0.3650    2.7290 ca        1 XEB     -0.167000
     16 C23        -8.4380    0.7340    2.7530 ca        1 XEB     -0.059000
     17 C24        -8.8130    2.0420    2.4410 ca        1 XEB     -0.031600
     18 C25        -7.8400    3.0020    2.1140 ca        1 XEB     -0.141300
     19 C26        -6.4970    2.6410    2.0790 ca        1 XEB     -0.124000
     20 Cl        -10.4660    2.4610    2.4670 cl        1 XEB     -0.092400
     21 C28        -8.2100    4.4260    1.8610 c3        1 XEB      0.168100
     22 N29        -9.0650    4.5620    0.6340 ny        1 XEB     -0.767000
     23 C30        -9.4230    5.9680    0.3570 c3        1 XEB      0.078100
     24 HN02        1.1550    1.5420   -1.8210 hn        1 XEB      0.417800
     25 HN0A        2.6290    0.9630   -1.2580 hn        1 XEB      0.417800
     26 H03         3.0430    0.1430    0.9690 ha        1 XEB      0.151000
     27 H04         1.9750   -0.7960    3.0310 ha        1 XEB      0.146000
     28 H06        -0.0950   -1.2680    4.3240 ha        1 XEB      0.142000
     29 H07        -2.5800   -1.1810    4.5130 ha        1 XEB      0.136000
     30 H09        -2.8480    0.6910    0.6210 ha        1 XEB      0.150000
     31 H11        -4.6550   -0.4450    3.7480 h1        1 XEB      0.056700
     32 H11A       -4.7920   -0.9920    1.9950 h1        1 XEB      0.056700
     33 H22        -6.8140   -0.6700    2.9790 ha        1 XEB      0.169000
     34 H23        -9.2050   -0.0130    3.0210 ha        1 XEB      0.173000
     35 H26        -5.7080    3.3690    1.8300 ha        1 XEB      0.168000
     36 H28        -8.7960    4.8380    2.7350 hx        1 XEB      0.114700
     37 H28A       -7.2890    5.0620    1.7120 hx        1 XEB      0.114700
     38 HN29       -8.5610    4.1660   -0.1680 hn        1 XEB      0.459800
     39 H30       -10.0680    6.0120   -0.5620 hx        1 XEB      0.108033
     40 H30A       -9.9860    6.3930    1.2320 hx        1 XEB      0.108033
     41 H30B       -8.4890    6.5700    0.1890 hx        1 XEB      0.108033
     42 H292       -9.9230    4.0010    0.7780 hn        1 XEB      0.459800
@<TRIPOS>BOND
     1    1    2 ar  
     2    1   11 ar  
     3    2    3 1   
     4    2    4 ar  
     5    3   24 1   
     6    3   25 1   
     7    4    5 ar  
     8    4   26 1   
     9    5    6 ar  
    10    5   27 1   
    11    6    7 ar  
    12    6   11 ar  
    13    7    8 ar  
    14    7   28 1   
    15    8    9 ar  
    16    8   29 1   
    17    9   10 ar  
    18    9   12 1   
    19   10   11 ar  
    20   10   30 1   
    21   12   13 1   
    22   12   31 1   
    23   12   32 1   
    24   13   14 1   
    25   14   15 ar  
    26   14   19 ar  
    27   15   16 ar  
    28   15   33 1   
    29   16   17 ar  
    30   16   34 1   
    31   17   18 ar  
    32   17   20 1   
    33   18   19 ar  
    34   18   21 1   
    35   19   35 1   
    36   21   22 1   
    37   21   36 1   
    38   21   37 1   
    39   22   23 1   
    40   22   38 1   
    41   22   42 1   
    42   23   39 1   
    43   23   40 1   
    44   23   41 1   
@<TRIPOS>SUBSTRUCTURE
     1 XEB         1 TEMP              0 ****  ****    0 ROOT
