@<TRIPOS>MOLECULE
XED
   45    48     1     0     0
SMALL
bcc


@<TRIPOS>ATOM
      1 C1          0.0570   -0.2290    0.0960 c3        1 XED      0.175300
      2 C2          1.5880   -0.0840   -0.0140 c3        1 XED      0.169800
      3 N3         -0.5540    0.9250    0.7420 nh        1 XED     -0.610000
      4 N4          2.2280    0.2500    1.2500 n3        1 XED     -0.731600
      5 C5          0.0570    1.2260    2.0310 c3        1 XED      0.175300
      6 C6          1.5870    1.3710    1.9250 c3        1 XED      0.169800
      7 C7          3.6530    0.4370    1.1100 c3        1 XED      0.160100
      8 C8         -1.9830    0.8580    0.7950 ca        1 XED      0.079600
      9 C9         -2.7510    1.8280    0.1280 ca        1 XED      0.070100
     10 C10        -2.6960   -0.1550    1.5100 ca        1 XED      0.040900
     11 F11        -2.0100   -1.1050    2.2020 f         1 XED     -0.154900
     12 C12        -4.1810    1.7990    0.1280 ca        1 XED      0.146600
     13 C13        -4.0900   -0.1970    1.5080 ca        1 XED     -0.098000
     14 C14        -4.8430    0.7570    0.8200 ca        1 XED     -0.177600
     15 O15        -2.0830    2.8730   -0.5030 os        1 XED     -0.304900
     16 N16        -4.9170    2.7720   -0.5410 na        1 XED     -0.532800
     17 C17        -6.3080    2.7560   -0.4450 cc        1 XED      0.072000
     18 C18        -4.2190    3.8210   -1.2630 c3        1 XED      0.205500
     19 C19        -2.7870    3.3850   -1.6330 c3        1 XED      0.109400
     20 C20        -4.9190    4.2770   -2.5420 c3        1 XED     -0.108100
     21 C21        -7.0120    1.7990    0.2140 cd        1 XED     -0.268400
     22 C22        -6.3320    0.6630    0.8260 c         1 XED      0.598900
     23 O23        -9.0920    2.3800   -0.7790 o         1 XED     -0.816300
     24 C24        -8.5310    1.9850    0.2830 c         1 XED      0.930800
     25 O25        -9.1060    1.8000    1.3840 o         1 XED     -0.816300
     26 O26        -6.8780   -0.3440    1.2990 o         1 XED     -0.546100
     27 H1C1       -0.3610   -0.3020   -0.9460 h1        1 XED      0.046950
     28 H1C2       -0.1790   -1.1900    0.6390 h1        1 XED      0.046950
     29 H2C1        2.0010   -1.0750   -0.3540 h1        1 XED      0.031450
     30 H2C2        1.8220    0.6800   -0.8120 h1        1 XED      0.031450
     31 H5C1       -0.3620    2.2080    2.3880 h1        1 XED      0.046950
     32 H5C2       -0.1830    0.4380    2.8020 h1        1 XED      0.046950
     33 H6C1        1.9990    1.4180    2.9720 h1        1 XED      0.031450
     34 H6C2        1.8230    2.3510    1.4160 h1        1 XED      0.031450
     35 H7C1        3.9300    1.3100    0.4550 h1        1 XED      0.026033
     36 H7C2        4.0970    0.6030    2.1270 h1        1 XED      0.026033
     37 H7C3        4.0980   -0.4930    0.6680 h1        1 XED      0.026033
     38 H13        -4.6230   -0.9960    2.0530 ha        1 XED      0.172000
     39 H17        -6.8380    3.5850   -0.9520 h4        1 XED      0.173000
     40 H18        -4.1370    4.7120   -0.5660 h1        1 XED      0.055700
     41 H191       -2.1810    4.2750   -1.9450 h1        1 XED      0.058700
     42 H192       -2.8030    2.6180   -2.4490 h1        1 XED      0.058700
     43 H201       -5.1890    3.4080   -3.1890 hc        1 XED      0.049700
     44 H202       -5.8510    4.8440   -2.3050 hc        1 XED      0.049700
     45 H203       -4.2300    4.9490   -3.1080 hc        1 XED      0.049700
@<TRIPOS>BOND
     1    1    2 1   
     2    1    3 1   
     3    1   27 1   
     4    1   28 1   
     5    2    4 1   
     6    2   29 1   
     7    2   30 1   
     8    3    5 1   
     9    3    8 1   
    10    4    6 1   
    11    4    7 1   
    12    5    6 1   
    13    5   31 1   
    14    5   32 1   
    15    6   33 1   
    16    6   34 1   
    17    7   35 1   
    18    7   36 1   
    19    7   37 1   
    20    8    9 ar  
    21    8   10 ar  
    22    9   12 ar  
    23    9   15 1   
    24   10   11 1   
    25   10   13 ar  
    26   12   14 ar  
    27   12   16 1   
    28   13   14 ar  
    29   13   38 1   
    30   14   22 1   
    31   15   19 1   
    32   16   17 1   
    33   16   18 1   
    34   17   21 2   
    35   17   39 1   
    36   18   19 1   
    37   18   20 1   
    38   18   40 1   
    39   19   41 1   
    40   19   42 1   
    41   20   43 1   
    42   20   44 1   
    43   20   45 1   
    44   21   22 1   
    45   21   24 1   
    46   22   26 2   
    47   23   24 1   
    48   24   25 1   
@<TRIPOS>SUBSTRUCTURE
     1 XED         1 TEMP              0 ****  ****    0 ROOT
