@<TRIPOS>MOLECULE
XED
   45    48     1     0     0
SMALL
bcc


@<TRIPOS>ATOM
      1 C1          0.0580   -0.2280    0.0940 c3        1 XED      0.175300
      2 C2          1.5880   -0.0820   -0.0160 c3        1 XED      0.169800
      3 N3         -0.5540    0.9250    0.7420 nh        1 XED     -0.610000
      4 N4          2.2280    0.2500    1.2500 n3        1 XED     -0.731600
      5 C5          0.0560    1.2240    2.0310 c3        1 XED      0.175300
      6 C6          1.5870    1.3700    1.9260 c3        1 XED      0.169800
      7 C7          3.6530    0.4380    1.1100 c3        1 XED      0.160100
      8 C8         -1.9830    0.8570    0.7940 ca        1 XED      0.079600
      9 C9         -2.7510    1.8280    0.1290 ca        1 XED      0.070100
     10 C10        -2.6950   -0.1570    1.5080 ca        1 XED      0.040900
     11 F11        -2.0100   -1.1080    2.1980 f         1 XED     -0.154900
     12 C12        -4.1810    1.7980    0.1280 ca        1 XED      0.146600
     13 C13        -4.0900   -0.2000    1.5040 ca        1 XED     -0.098000
     14 C14        -4.8430    0.7550    0.8180 ca        1 XED     -0.177600
     15 O15        -2.0830    2.8740   -0.5000 os        1 XED     -0.304900
     16 N16        -4.9170    2.7720   -0.5400 na        1 XED     -0.532800
     17 C17        -6.3080    2.7550   -0.4440 cc        1 XED      0.072000
     18 C18        -4.2200    3.8230   -1.2590 c3        1 XED      0.205500
     19 C19        -2.7870    3.3880   -1.6290 c3        1 XED      0.109400
     20 C20        -4.9200    4.2800   -2.5380 c3        1 XED     -0.108100
     21 C21        -7.0120    1.7970    0.2130 cd        1 XED     -0.268400
     22 C22        -6.3320    0.6600    0.8230 c         1 XED      0.598900
     23 O23        -9.0920    2.3780   -0.7800 o         1 XED     -0.816300
     24 C24        -8.5310    1.9820    0.2820 c         1 XED      0.930800
     25 O25        -9.1070    1.7950    1.3820 o         1 XED     -0.816300
     26 O26        -6.8770   -0.3480    1.2940 o         1 XED     -0.546100
     27 H1C1       -0.3600   -0.3000   -0.9480 h1        1 XED      0.046950
     28 H1C2       -0.1780   -1.1900    0.6350 h1        1 XED      0.046950
     29 H2C1        2.0020   -1.0720   -0.3570 h1        1 XED      0.031450
     30 H2C2        1.8230    0.6840   -0.8120 h1        1 XED      0.031450
     31 H5C1       -0.3630    2.2050    2.3900 h1        1 XED      0.046950
     32 H5C2       -0.1840    0.4340    2.8010 h1        1 XED      0.046950
     33 H6C1        1.9980    1.4150    2.9730 h1        1 XED      0.031450
     34 H6C2        1.8220    2.3510    1.4190 h1        1 XED      0.031450
     35 H7C1        3.9300    1.3120    0.4570 h1        1 XED      0.026033
     36 H7C2        4.0980   -0.4900    0.6670 h1        1 XED      0.026033
     37 H7C3        4.0970    0.6020    2.1270 h1        1 XED      0.026033
     38 H13        -4.6220   -1.0000    2.0470 ha        1 XED      0.172000
     39 H17        -6.8380    3.5840   -0.9500 h4        1 XED      0.173000
     40 H18        -4.1390    4.7120   -0.5600 h1        1 XED      0.055700
     41 H191       -2.1820    4.2790   -1.9390 h1        1 XED      0.058700
     42 H192       -2.8030    2.6220   -2.4470 h1        1 XED      0.058700
     43 H201       -5.8520    4.8470   -2.3000 hc        1 XED      0.049700
     44 H202       -4.2310    4.9540   -3.1020 hc        1 XED      0.049700
     45 H203       -5.1880    3.4120   -3.1860 hc        1 XED      0.049700
@<TRIPOS>BOND
     1    1    2 1   
     2    1    3 1   
     3    1   27 1   
     4    1   28 1   
     5    2    4 1   
     6    2   29 1   
     7    2   30 1   
     8    3    5 1   
     9    3    8 1   
    10    4    6 1   
    11    4    7 1   
    12    5    6 1   
    13    5   31 1   
    14    5   32 1   
    15    6   33 1   
    16    6   34 1   
    17    7   35 1   
    18    7   36 1   
    19    7   37 1   
    20    8    9 ar  
    21    8   10 ar  
    22    9   12 ar  
    23    9   15 1   
    24   10   11 1   
    25   10   13 ar  
    26   12   14 ar  
    27   12   16 1   
    28   13   14 ar  
    29   13   38 1   
    30   14   22 1   
    31   15   19 1   
    32   16   17 1   
    33   16   18 1   
    34   17   21 2   
    35   17   39 1   
    36   18   19 1   
    37   18   20 1   
    38   18   40 1   
    39   19   41 1   
    40   19   42 1   
    41   20   43 1   
    42   20   44 1   
    43   20   45 1   
    44   21   22 1   
    45   21   24 1   
    46   22   26 2   
    47   23   24 1   
    48   24   25 1   
@<TRIPOS>SUBSTRUCTURE
     1 XED         1 TEMP              0 ****  ****    0 ROOT
