@<TRIPOS>MOLECULE
XED
   45    48     1     0     0
SMALL
bcc


@<TRIPOS>ATOM
      1 C1         -0.2710    1.2280   -3.4650 c3        1 XED      0.175300
      2 C2          0.2420    1.1830   -4.9180 c3        1 XED      0.169800
      3 N3          0.0300   -0.0000   -2.7420 nh        1 XED     -0.610000
      4 N4         -0.1810   -0.0080   -5.6410 n3        1 XED     -0.731600
      5 C5         -0.4380   -1.1870   -3.4460 c3        1 XED      0.175300
      6 C6          0.0720   -1.2360   -4.8990 c3        1 XED      0.169800
      7 C7          0.3600   -0.0560   -6.9800 c3        1 XED      0.160100
      8 C8         -0.3660    0.0360   -1.3670 ca        1 XED      0.079600
      9 C9          0.6060   -0.0740   -0.3580 ca        1 XED      0.070100
     10 C10        -1.7270    0.1700   -0.9460 ca        1 XED      0.040900
     11 F11        -2.7180    0.2490   -1.8740 f         1 XED     -0.154900
     12 C12         0.2710   -0.0230    1.0310 ca        1 XED      0.146600
     13 C13        -2.0620    0.2310    0.4070 ca        1 XED     -0.098000
     14 C14        -1.0850    0.1470    1.4010 ca        1 XED     -0.177600
     15 O15         1.9260   -0.2920   -0.7410 os        1 XED     -0.304900
     16 N16         1.2540   -0.1330    2.0100 na        1 XED     -0.532800
     17 C17         0.8750   -0.1650    3.3510 cc        1 XED      0.072000
     18 C18         2.6410   -0.2860    1.6100 c3        1 XED      0.205500
     19 C19         2.8710    0.2460    0.1810 c3        1 XED      0.109400
     20 C20         3.6410    0.4020    2.5370 c3        1 XED     -0.108100
     21 C21        -0.4060   -0.0240    3.7810 cd        1 XED     -0.268400
     22 C22        -1.4850    0.2380    2.8360 c         1 XED      0.598900
     23 O23         0.2000    0.3960    6.0410 o         1 XED     -0.816300
     24 C24        -0.6470   -0.1640    5.2880 c         1 XED      0.930800
     25 O25        -1.6140   -0.8640    5.6760 o         1 XED     -0.816300
     26 O26        -2.6490    0.5480    3.1260 o         1 XED     -0.546100
     27 H1C1       -1.3780    1.4490   -3.4770 h1        1 XED      0.046950
     28 H1C2        0.2490    2.0750   -2.9380 h1        1 XED      0.046950
     29 H2C1       -0.1790    2.0760   -5.4570 h1        1 XED      0.031450
     30 H2C2        1.3670    1.2840   -4.9070 h1        1 XED      0.031450
     31 H5C1       -0.0360   -2.0880   -2.9050 h1        1 XED      0.046950
     32 H5C2       -1.5650   -1.2520   -3.4520 h1        1 XED      0.046950
     33 H6C1       -0.4730   -2.0690   -5.4250 h1        1 XED      0.031450
     34 H6C2        1.1720   -1.4940   -4.8880 h1        1 XED      0.031450
     35 H7C1       -0.0710   -0.9440   -7.5120 h1        1 XED      0.026033
     36 H7C2        0.0560    0.8750   -7.5260 h1        1 XED      0.026033
     37 H7C3        1.4820   -0.1350   -7.0090 h1        1 XED      0.026033
     38 H13        -3.1160    0.3510    0.7130 ha        1 XED      0.172000
     39 H17         1.6930   -0.3090    4.0820 h4        1 XED      0.173000
     40 H18         2.8690   -1.3970    1.6040 h1        1 XED      0.055700
     41 H191        2.8250    1.3660    0.1620 h1        1 XED      0.058700
     42 H192        3.8590   -0.1120   -0.2090 h1        1 XED      0.058700
     43 H201        4.6500    0.3770    2.0590 hc        1 XED      0.049700
     44 H202        3.3560    1.4650    2.7250 hc        1 XED      0.049700
     45 H203        3.7030   -0.1260    3.5190 hc        1 XED      0.049700
@<TRIPOS>BOND
     1    1    2 1   
     2    1    3 1   
     3    1   27 1   
     4    1   28 1   
     5    2    4 1   
     6    2   29 1   
     7    2   30 1   
     8    3    5 1   
     9    3    8 1   
    10    4    6 1   
    11    4    7 1   
    12    5    6 1   
    13    5   31 1   
    14    5   32 1   
    15    6   33 1   
    16    6   34 1   
    17    7   35 1   
    18    7   36 1   
    19    7   37 1   
    20    8    9 ar  
    21    8   10 ar  
    22    9   12 ar  
    23    9   15 1   
    24   10   11 1   
    25   10   13 ar  
    26   12   14 ar  
    27   12   16 1   
    28   13   14 ar  
    29   13   38 1   
    30   14   22 1   
    31   15   19 1   
    32   16   17 1   
    33   16   18 1   
    34   17   21 2   
    35   17   39 1   
    36   18   19 1   
    37   18   20 1   
    38   18   40 1   
    39   19   41 1   
    40   19   42 1   
    41   20   43 1   
    42   20   44 1   
    43   20   45 1   
    44   21   22 1   
    45   21   24 1   
    46   22   26 2   
    47   23   24 1   
    48   24   25 1   
@<TRIPOS>SUBSTRUCTURE
     1 XED         1 TEMP              0 ****  ****    0 ROOT
