@<TRIPOS>MOLECULE
XEG
   50    53     1     0     0
SMALL
bcc


@<TRIPOS>ATOM
      1 OAA         0.4610   -2.1890   -1.6420 o         1 XEG     -0.527000
      2 OAC         1.6910    5.1500   -0.5390 oh        1 XEG     -0.487100
      3 OAD         2.4840    3.2170    1.3130 oh        1 XEG     -0.540100
      4 OAF         4.8800    1.1540    0.7090 oh        1 XEG     -0.503600
      5 OAG        -4.1250   -3.7710    0.1430 oh        1 XEG     -0.493100
      6 OAH         6.5510   -1.0130    0.2010 oh        1 XEG     -0.508100
      7 CAI        -0.3130    3.9460   -0.9590 ca        1 XEG     -0.148000
      8 CAJ        -1.1400    2.8530   -0.7170 ca        1 XEG     -0.075000
      9 CAK        -5.7790   -2.1120    0.1820 ca        1 XEG     -0.272000
     10 CAL         3.3080   -2.4350   -0.7620 ca        1 XEG     -0.134500
     11 CAM         2.9460   -0.1470   -0.0120 ca        1 XEG     -0.134500
     12 CAN        -5.2070    0.2660    0.1820 ca        1 XEG     -0.213000
     13 CAO         0.3920    2.0260    0.9690 ca        1 XEG     -0.120000
     14 CAP        -1.9820   -1.7700    0.0410 c3        1 XEG     -0.054100
     15 OAQ         0.2280   -0.7530    0.0580 os        1 XEG     -0.440900
     16 OAR        -2.9770    0.9830    0.0930 os        1 XEG     -0.317900
     17 CAS         1.0160   -1.5020   -0.7840 c         1 XEG      0.658700
     18 CAT        -6.1570   -0.7650    0.1940 ca        1 XEG      0.183100
     19 CAU         0.8910    4.0750   -0.2480 ca        1 XEG      0.132100
     20 CAV         1.2410    3.1030    0.7100 ca        1 XEG     -0.010900
     21 CAW         4.6810   -2.2930   -0.5140 ca        1 XEG      0.099100
     22 CAX         4.3150   -0.0060    0.2250 ca        1 XEG      0.099100
     23 CAY        -4.4130   -2.4280    0.1430 ca        1 XEG      0.200100
     24 CAZ         2.4540   -1.3610   -0.5030 ca        1 XEG     -0.097600
     25 CBA        -0.7900    1.8880    0.2350 ca        1 XEG     -0.102300
     26 CBB         5.1950   -1.0770   -0.0200 ca        1 XEG      0.049100
     27 CBC        -3.8530   -0.0870    0.1410 ca        1 XEG      0.184100
     28 CBD        -3.4230   -1.4260    0.1110 ca        1 XEG     -0.254300
     29 CBE        -1.1420   -0.5510   -0.3210 c3        1 XEG      0.136100
     30 CBF        -1.6270    0.6720    0.4840 c3        1 XEG      0.195400
     31 HOAB       -8.0230   -1.1740    0.2320 ho        1 XEG      0.425000
     32 HOAC        2.4670    5.1090    0.0430 ho        1 XEG      0.435000
     33 HOAD        2.3420    3.1420    2.2690 ho        1 XEG      0.427000
     34 HOAE        6.3980   -3.1310   -0.5830 ho        1 XEG      0.446500
     35 HOAF        4.1840    1.8330    0.7480 ho        1 XEG      0.446500
     36 HOAG       -3.1650   -3.8860    0.1000 ho        1 XEG      0.428000
     37 HOAH        6.7640   -0.1090    0.4810 ho        1 XEG      0.451000
     38 HAI        -0.5830    4.7100   -1.7020 ha        1 XEG      0.160000
     39 HAJ        -2.0840    2.7450   -1.2750 ha        1 XEG      0.159000
     40 HAK        -6.5230   -2.9190    0.2010 ha        1 XEG      0.156000
     41 HAL         2.9210   -3.3840   -1.1640 ha        1 XEG      0.169500
     42 HAM         2.2620    0.6960    0.1800 ha        1 XEG      0.169500
     43 HAN        -5.5160    1.3190    0.1990 ha        1 XEG      0.169000
     44 HAO         0.6650    1.2750    1.7270 ha        1 XEG      0.150000
     45 HAP        -1.6360   -2.1790    1.0290 hc        1 XEG      0.068700
     46 HAPA       -1.7960   -2.5600   -0.7390 hc        1 XEG      0.068700
     47 HBE        -1.2010   -0.3450   -1.4250 h1        1 XEG      0.087700
     48 HBF        -1.6260    0.4160    1.5820 h1        1 XEG      0.071700
     49 OAE         5.4790   -3.3800   -0.7730 oh        1 XEG     -0.503600
     50 OAB        -7.4740   -0.3750    0.2280 oh        1 XEG     -0.491100
@<TRIPOS>BOND
     1    1   17 2   
     2    2   19 1   
     3    2   32 1   
     4    3   20 1   
     5    3   33 1   
     6    4   22 1   
     7    4   35 1   
     8    5   23 1   
     9    5   36 1   
    10    6   26 1   
    11    6   37 1   
    12    7    8 ar  
    13    7   19 ar  
    14    7   38 1   
    15    8   25 ar  
    16    8   39 1   
    17    9   18 ar  
    18    9   23 ar  
    19    9   40 1   
    20   10   21 ar  
    21   10   24 ar  
    22   10   41 1   
    23   11   22 ar  
    24   11   24 ar  
    25   11   42 1   
    26   12   18 ar  
    27   12   27 ar  
    28   12   43 1   
    29   13   20 ar  
    30   13   25 ar  
    31   13   44 1   
    32   14   28 1   
    33   14   29 1   
    34   14   45 1   
    35   14   46 1   
    36   15   17 1   
    37   15   29 1   
    38   16   27 1   
    39   16   30 1   
    40   17   24 1   
    41   18   50 1   
    42   19   20 ar  
    43   21   26 ar  
    44   21   49 1   
    45   22   26 ar  
    46   23   28 ar  
    47   25   30 1   
    48   27   28 ar  
    49   29   30 1   
    50   29   47 1   
    51   30   48 1   
    52   31   50 1   
    53   34   49 1   
@<TRIPOS>SUBSTRUCTURE
     1 XEG         1 TEMP              0 ****  ****    0 ROOT
