@<TRIPOS>MOLECULE
XEG
   50    53     1     0     0
SMALL
bcc


@<TRIPOS>ATOM
      1 OAA         0.6480   -0.9840    0.4170 o         1 XEG     -0.363000
      2 OAC         2.0260   -6.3790   -3.4360 oh        1 XEG     -0.243000
      3 OAD         1.3570   -5.1560   -1.1130 oh        1 XEG     -0.206000
      4 OAF         5.6260    2.0240    2.1960 oh        1 XEG     -0.241000
      5 OAG        -1.3020    3.2310   -3.6450 oh        1 XEG     -0.209000
      6 OAH         4.8860    1.2380    4.7360 oh        1 XEG     -0.213000
      7 CAI         2.4320   -4.2490   -4.5100 c1        1 XEG     -0.154000
      8 CAJ         2.4620   -2.8020   -4.4290 c3        1 XEG     -0.178000
      9 CAK        -0.8340    2.3590   -5.7920 c1        1 XEG      0.030000
     10 CAL         2.1670   -0.2390    2.7670 ca        1 XEG     -0.147500
     11 CAM         3.6750    0.9070    1.2400 ca        1 XEG     -0.147500
     12 CAN         0.4560    0.2910   -6.1300 c1        1 XEG      0.044000
     13 CAO         1.7320   -2.9480   -2.0760 c2        1 XEG     -0.209000
     14 CAP         0.6220    1.2860   -2.4340 c3        1 XEG     -0.142000
     15 OAQ         2.0420    0.2170   -0.8620 os        1 XEG     -0.280000
     16 OAR         1.9680   -0.1140   -4.3620 os        1 XEG     -0.220000
     17 CAS         1.6510   -0.2660    0.3630 c2        1 XEG      0.362000
     18 CAT        -0.7140    1.1000   -6.5570 c3        1 XEG     -0.102000
     19 CAU         2.0590   -5.0010   -3.3800 c2        1 XEG     -0.056000
     20 CAV         1.7130   -4.3900   -2.1800 c2        1 XEG      0.130000
     21 CAW         2.9680    0.1330    3.8500 ca        1 XEG      0.034500
     22 CAX         4.4740    1.2760    2.3250 ca        1 XEG      0.034500
     23 CAY        -0.6920    2.2330   -4.3640 c2        1 XEG     -0.017000
     24 CAZ         2.5240    0.1490    1.4690 ca        1 XEG     -0.091000
     25 CBA         2.0750   -2.1770   -3.1350 c2        1 XEG     -0.100000
     26 CBB         4.1390    0.8990    3.6420 ca        1 XEG      0.084000
     27 CBC         0.5870    0.1220   -4.6660 c3        1 XEG     -0.026000
     28 CBD         0.0980    1.2600   -3.8170 c2        1 XEG     -0.189000
     29 CBE         1.2200   -0.0560   -2.0120 c3        1 XEG      0.016000
     30 CBF         2.1610   -0.6790   -3.0660 c3        1 XEG      0.039000
     31 HOAB       -0.0580    1.9330   -8.1790 ho        1 XEG      0.221000
     32 HOAC        2.2990   -6.6200   -4.3360 ho        1 XEG      0.235000
     33 HOAD        1.1270   -4.5720   -0.3710 ho        1 XEG      0.223000
     34 HOAE        1.8620   -0.7320    5.1410 ho        1 XEG      0.229500
     35 HOAF        5.7700    2.1910    1.2530 ho        1 XEG      0.229500
     36 HOAG       -0.9010    3.2630   -2.7630 ho        1 XEG      0.215000
     37 HOAH        5.6550    1.7470    4.4290 ho        1 XEG      0.241000
     38 HAI         3.5090   -2.4680   -4.7050 hc        1 XEG      0.178000
     39 HAJ         1.8070   -2.3920   -5.2590 hc        1 XEG      0.178000
     40 HAK        -1.6490    0.4640   -6.3680 h1        1 XEG      0.191000
     41 HAL         1.2550   -0.8370    2.9260 ha        1 XEG      0.161000
     42 HAM         3.9480    1.2080    0.2170 ha        1 XEG      0.161000
     43 HAN        -0.0110   -0.8150   -4.4130 h1        1 XEG      0.140000
     44 HAO         1.4590   -2.5140   -1.0980 ha        1 XEG      0.150000
     45 HAP         0.3880   -0.7700   -1.7560 h1        1 XEG      0.137000
     46 HAPA        1.4190    2.0790   -2.3620 hc        1 XEG      0.115500
     47 HBE        -0.1870    1.5540   -1.7020 hc        1 XEG      0.115500
     48 HBF         3.2320   -0.3960   -2.8230 h1        1 XEG      0.151000
     49 OAE         2.6790   -0.2100    5.1480 oh        1 XEG     -0.241000
     50 OAB        -0.7510    1.2980   -7.9580 oh        1 XEG     -0.275000
@<TRIPOS>BOND
     1    1   17 1   
     2    2   19 1   
     3    2   32 1   
     4    3   20 1   
     5    3   33 1   
     6    4   22 1   
     7    4   35 1   
     8    5   23 1   
     9    5   36 1   
    10    6   26 1   
    11    6   37 1   
    12    7    8 1   
    13    7   19 1   
    14    8   25 1   
    15    8   38 1   
    16    8   39 1   
    17    9   18 1   
    18    9   23 1   
    19   10   21 1   
    20   10   24 1   
    21   10   41 1   
    22   11   22 1   
    23   11   24 1   
    24   11   42 1   
    25   12   18 1   
    26   12   27 1   
    27   13   20 1   
    28   13   25 1   
    29   13   44 1   
    30   14   28 1   
    31   14   29 1   
    32   14   46 1   
    33   14   47 1   
    34   15   17 1   
    35   15   29 1   
    36   16   27 1   
    37   16   30 1   
    38   17   24 1   
    39   18   40 1   
    40   18   50 1   
    41   19   20 1   
    42   21   26 1   
    43   21   49 1   
    44   22   26 1   
    45   23   28 1   
    46   25   30 1   
    47   27   28 1   
    48   27   43 1   
    49   29   30 1   
    50   29   45 1   
    51   30   48 1   
    52   31   50 1   
    53   34   49 1   
@<TRIPOS>SUBSTRUCTURE
     1 XEG         1 TEMP              0 ****  ****    0 ROOT
