@<TRIPOS>MOLECULE
XEG
   50    65     1     0     0
SMALL
bcc


@<TRIPOS>ATOM
      1 OAA         0.0000    0.0000    0.0000 o         1 XEG     -0.291000
      2 OAC         3.3150   -5.8940   -1.8650 oh        1 XEG     -0.355000
      3 OAD         5.1000   -3.8160   -1.5820 oh        1 XEG     -0.336000
      4 OAF         5.3990   -0.0030    2.4790 oh        1 XEG     -0.224000
      5 OAG        -0.5380    3.6600   -3.8430 oh        1 XEG     -0.145000
      6 OAH         4.0200    0.0000    4.8600 oh        1 XEG     -0.191000
      7 CAI         1.7220   -4.4080   -2.8190 c2        1 XEG     -0.336000
      8 CAJ         1.3710   -3.1320   -3.2210 c2        1 XEG      0.295000
      9 CAK        -0.9180    2.6350   -5.9510 c2        1 XEG     -0.258000
     10 CAL         1.2540    0.0010    2.4890 c2        1 XEG     -0.264000
     11 CAM         3.3500   -0.0010    1.2790 c2        1 XEG     -0.284000
     12 CAN        -0.1240    0.4050   -6.3450 c2        1 XEG     -0.237000
     13 CAO         3.5140   -2.3150   -2.5250 c2        1 XEG     -0.354000
     14 CAP         0.8170    1.4410   -2.8170 DU        1 XEG     -0.208000
     15 OAQ         1.8880   -0.0010   -1.1670 os        1 XEG     -0.200000
     16 OAR         1.0280   -0.7760   -4.6560 os        1 XEG     -0.117000
     17 CAS         1.2140    0.0000    0.0000 c2        1 XEG      0.368000
     18 CAT        -0.7770    1.5410   -6.7930 c3        1 XEG      0.303000
     19 CAU         2.9690   -4.6410   -2.2650 c3        1 XEG      0.024000
     20 CAV         3.8700   -3.5900   -2.1170 c3        1 XEG      0.142000
     21 CAW         1.9480    0.0000    3.6830 c3        1 XEG      0.131000
     22 CAX         4.0380   -0.0010    2.4770 c2        1 XEG      0.068000
     23 CAY        -0.4000    2.5880   -4.6680 c2        1 XEG      0.343000
     24 CAZ         1.9520   -0.0000    1.2770 DU        1 XEG     -0.329000
     25 CBA         2.2630   -2.0870   -3.0690 c3        1 XEG      0.150000
     26 CBB         3.3410   -0.0000    3.6830 c2        1 XEG      0.023000
     27 CBC         0.4000    0.3590   -5.0570 c2        1 XEG      0.314000
     28 CBD         0.2620    1.4510   -4.2190 c3        1 XEG     -0.462000
     29 CBE         1.0980   -0.0000   -2.3850 DU        1 XEG     -0.567000
     30 CBF         1.8760   -0.6980   -3.5060 c3        1 XEG      0.043000
     31 HOAB       -1.1000    1.4440   -7.1400 ho        1 XEG      0.290000
     32 HOAC        2.8060   -5.2440   -2.3210 DU        1 XEG      0.335000
     33 HOAD        4.4230   -3.3530   -2.0470 DU        1 XEG      0.317000
     34 HOAE        1.4690   -0.6010    4.1640 DU        1 XEG      0.290000
     35 HOAF        5.4440   -0.6160    1.7650 ho        1 XEG      0.237000
     36 HOAG       -0.3780    3.1980   -3.0360 ho        1 XEG      0.232000
     37 HOAH        4.5610    0.2800    4.1400 ho        1 XEG      0.248000
     38 HAI         1.3880   -3.3860   -2.9560 ha        1 XEG     -0.168000
     39 HAJ         1.6850   -2.6820   -2.2860 DU        1 XEG      0.170000
     40 HAK        -0.6750    1.6490   -5.5730 DU        1 XEG      0.051000
     41 HAL         1.1180   -0.4650    1.5200 DU        1 XEG      0.315000
     42 HAM         2.8170    0.3980    0.4240 DU        1 XEG      0.267000
     43 HAN        -0.0880    0.3560   -5.2640 ha        1 XEG     -0.019000
     44 HAO         3.6250   -1.6380   -1.6870 ha        1 XEG      0.158000
     45 HAP         0.6220    1.0010   -3.7880 DU        1 XEG      0.318000
     46 HAPA        1.6340    0.7350   -2.7190 DU        1 XEG      0.200000
     47 HBE         0.5920    0.9490   -2.2620 DU        1 XEG      0.147000
     48 HBF         1.8240    0.3480   -3.2300 DU        1 XEG      0.159000
     49 OAE         1.2700    0.0010    4.8620 oh        1 XEG     -0.282000
     50 OAB        -1.2780    1.5860   -8.0550 oh        1 XEG     -0.310000
@<TRIPOS>BOND
     1    1   17 1   
     2    2   19 1   
     3    2   32 1   
     4    3   20 1   
     5    3   33 1   
     6    4   22 1   
     7    4   35 1   
     8    5   23 1   
     9    5   36 1   
    10    6   26 1   
    11    6   37 1   
    12    7    8 1   
    13    7   19 1   
    14    7   38 1   
    15    8   25 1   
    16    8   39 1   
    17    9   18 1   
    18    9   23 1   
    19    9   40 1   
    20   10   21 1   
    21   10   24 1   
    22   10   41 1   
    23   11   22 1   
    24   11   24 1   
    25   11   42 1   
    26   12   18 1   
    27   12   27 1   
    28   12   43 1   
    29   13   20 1   
    30   13   25 1   
    31   13   44 1   
    32   14   28 1   
    33   14   29 1   
    34   14   45 1   
    35   14   46 1   
    36   14   47 1   
    37   15   17 1   
    38   15   29 1   
    39   16   27 1   
    40   16   30 1   
    41   17   24 1   
    42   18   40 1   
    43   18   50 1   
    44   19   20 1   
    45   19   32 1   
    46   20   33 1   
    47   21   26 1   
    48   21   34 1   
    49   21   49 1   
    50   22   26 1   
    51   23   28 1   
    52   24   41 1   
    53   24   42 1   
    54   25   30 1   
    55   25   39 1   
    56   27   28 1   
    57   28   45 1   
    58   29   30 1   
    59   29   46 1   
    60   29   47 1   
    61   29   48 1   
    62   30   48 1   
    63   31   50 1   
    64   34   49 1   
    65   46   48 1   
@<TRIPOS>SUBSTRUCTURE
     1 XEG         1 TEMP              0 ****  ****    0 ROOT
