@<TRIPOS>MOLECULE
XEZ
   28    31     1     0     0
SMALL
bcc


@<TRIPOS>ATOM
      1 CAC         0.0830    0.2450    0.0560 cc        1 XEZ      0.309200
      2 NAH         1.4390    0.2660    0.0850 nd        1 XEZ     -0.513800
      3 NAM         1.8000    0.1390    1.3650 na        1 XEZ     -0.021600
      4 CAF         0.7080    0.0320    2.2210 cd        1 XEZ     -0.089300
      5 CAN        -0.4390    0.0960    1.4020 cc        1 XEZ     -0.320800
      6 CAP        -1.8180    0.0290    1.8190 cc        1 XEZ      0.461800
      7 CAG        -2.8280    0.0500    0.8540 cd        1 XEZ     -0.183600
      8 NAS        -4.1430   -0.0160    1.2520 na        1 XEZ      0.045700
      9 NAI        -2.0870   -0.0560    3.1860 nc        1 XEZ     -0.660000
     10 CAE        -3.3410   -0.1060    3.5730 cd        1 XEZ      0.465200
     11 CAR        -4.4570   -0.0840    2.6530 cd        1 XEZ     -0.167600
     12 NAJ        -5.8090   -0.1120    2.8480 nc        1 XEZ     -0.260600
     13 CAD        -6.3650   -0.0630    1.5900 cc        1 XEZ      0.041600
     14 CAQ        -5.3640   -0.0090    0.5750 cd        1 XEZ     -0.203900
     15 CAO        -5.5340    0.0300   -0.8510 cd        1 XEZ      0.383100
     16 CAB        -4.6540   -0.5440   -1.8520 cd        1 XEZ     -0.292300
     17 CAA        -5.2780   -0.2700   -3.0760 cc        1 XEZ     -0.143300
     18 NAL        -6.4520    0.4230   -2.7710 na        1 XEZ     -0.012600
     19 NAK        -6.6170    0.6100   -1.4650 nc        1 XEZ     -0.494800
     20 HAC        -0.4770    0.3370   -0.8750 h4        1 XEZ      0.041100
     21 HAM         2.7610    0.1320    1.6140 hn        1 XEZ      0.324700
     22 HAF         0.8030   -0.0770    3.3020 h4        1 XEZ      0.195000
     23 HAG        -2.6290    0.1280   -0.2270 h4        1 XEZ      0.177000
     24 HAE        -3.5540   -0.1670    4.6560 h4        1 XEZ      0.051100
     25 HAD        -7.4450   -0.0670    1.4310 h4        1 XEZ      0.194000
     26 HAB        -3.7360   -1.0920   -1.6790 ha        1 XEZ      0.167000
     27 HAK        -7.1280    0.7700   -3.4100 hn        1 XEZ      0.325700
     28 HAA        -4.9900   -0.5060   -4.0990 h4        1 XEZ      0.180000
@<TRIPOS>BOND
     1    1    2 2   
     2    1    5 1   
     3    1   20 1   
     4    2    3 1   
     5    3    4 1   
     6    3   21 1   
     7    4    5 2   
     8    4   22 1   
     9    5    6 1   
    10    6    7 2   
    11    6    9 1   
    12    7    8 1   
    13    7   23 1   
    14    8   11 1   
    15    8   14 1   
    16    9   10 2   
    17   10   11 1   
    18   10   24 1   
    19   11   12 2   
    20   12   13 1   
    21   13   14 2   
    22   13   25 1   
    23   14   15 1   
    24   15   16 1   
    25   15   19 2   
    26   16   17 2   
    27   16   26 1   
    28   17   18 1   
    29   17   28 1   
    30   18   19 1   
    31   18   27 1   
@<TRIPOS>SUBSTRUCTURE
     1 XEZ         1 TEMP              0 ****  ****    0 ROOT
