@<TRIPOS>MOLECULE
XEZ
   28    31     1     0     0
SMALL
bcc


@<TRIPOS>ATOM
      1 CAC        -2.8620   -1.7570   -0.2240 cc        1 XEZ      0.309200
      2 NAH        -4.1390   -2.2130   -0.2380 nd        1 XEZ     -0.513800
      3 NAM        -4.9320   -1.1450   -0.1160 na        1 XEZ     -0.021600
      4 CAF        -4.2160    0.0450   -0.0180 cd        1 XEZ     -0.089300
      5 CAN        -2.8530   -0.3120   -0.0830 cc        1 XEZ     -0.320800
      6 CAP        -1.7130    0.5690   -0.0250 cc        1 XEZ      0.461800
      7 CAG        -0.4250    0.0260   -0.0460 cd        1 XEZ     -0.183600
      8 NAS         0.6620    0.8670    0.0120 na        1 XEZ      0.045700
      9 NAI        -1.9470    1.9420    0.0510 nc        1 XEZ     -0.660000
     10 CAE        -0.9140    2.7510    0.0940 cd        1 XEZ      0.465200
     11 CAR         0.4570    2.2890    0.0710 cd        1 XEZ     -0.167600
     12 NAJ         1.6510    2.9520    0.0920 nc        1 XEZ     -0.260600
     13 CAD         2.6190    1.9740    0.0460 cc        1 XEZ      0.041600
     14 CAQ         2.0440    0.6690    0.0020 cd        1 XEZ     -0.203900
     15 CAO         2.7110   -0.6030   -0.0300 cd        1 XEZ      0.383100
     16 CAB         2.2460   -1.8480    0.5530 cd        1 XEZ     -0.292300
     17 CAA         3.2640   -2.7710    0.2810 cc        1 XEZ     -0.143300
     18 NAL         4.2510   -2.0720   -0.4180 na        1 XEZ     -0.012600
     19 NAK         3.9390   -0.7950   -0.6120 nc        1 XEZ     -0.494800
     20 HAC        -2.0080   -2.4280   -0.3130 h4        1 XEZ      0.041100
     21 HAM        -5.9190   -1.2540   -0.1060 hn        1 XEZ      0.324700
     22 HAF        -4.6900    1.0220    0.0860 h4        1 XEZ      0.195000
     23 HAG        -0.2260   -1.0550   -0.1170 h4        1 XEZ      0.177000
     24 HAE        -1.1000    3.8400    0.1480 h4        1 XEZ      0.051100
     25 HAD         3.6840    2.2110    0.0460 h4        1 XEZ      0.194000
     26 HAB         1.3280   -2.0100    1.1040 ha        1 XEZ      0.167000
     27 HAK         5.1090   -2.4320   -0.7650 hn        1 XEZ      0.325700
     28 HAA         3.3600   -3.8280    0.5240 h4        1 XEZ      0.180000
@<TRIPOS>BOND
     1    1    2 2   
     2    1    5 1   
     3    1   20 1   
     4    2    3 1   
     5    3    4 1   
     6    3   21 1   
     7    4    5 2   
     8    4   22 1   
     9    5    6 1   
    10    6    7 2   
    11    6    9 1   
    12    7    8 1   
    13    7   23 1   
    14    8   11 1   
    15    8   14 1   
    16    9   10 2   
    17   10   11 1   
    18   10   24 1   
    19   11   12 2   
    20   12   13 1   
    21   13   14 2   
    22   13   25 1   
    23   14   15 1   
    24   15   16 1   
    25   15   19 2   
    26   16   17 2   
    27   16   26 1   
    28   17   18 1   
    29   17   28 1   
    30   18   19 1   
    31   18   27 1   
@<TRIPOS>SUBSTRUCTURE
     1 XEZ         1 TEMP              0 ****  ****    0 ROOT
