@<TRIPOS>MOLECULE
XEZ
   28    19     1     0     0
SMALL
bcc


@<TRIPOS>ATOM
      1 CAC         2.4640    0.4700   -2.6360 c1        1 XEZ     -0.110500
      2 NAH         3.4880   -0.1130   -3.2930 n2        1 XEZ     -0.125000
      3 NAM         3.1070   -1.3880   -3.6280 n2        1 XEZ     -0.125000
      4 CAF         1.8510   -1.5810   -3.1740 c1        1 XEZ     -0.110500
      5 CAN         1.4440   -0.4330   -2.5580 c2        1 XEZ     -0.147000
      6 CAP         0.2150   -0.2250   -1.9530 c1        1 XEZ      0.019000
      7 CAG         0.0750   -0.2360   -0.5690 c1        1 XEZ     -0.081000
      8 NAS        -0.8370    0.5750    0.0280 n1        1 XEZ     -0.021000
      9 NAI        -0.5570    0.5930   -2.7050 n1        1 XEZ     -0.131000
     10 CAE        -1.4610    1.3970   -2.1140 c1        1 XEZ     -0.005000
     11 CAR        -1.6040    1.3870   -0.7190 c1        1 XEZ     -0.080000
     12 NAJ        -2.4260    2.0940    0.1290 n1        1 XEZ     -0.119000
     13 CAD        -2.1580    1.7110    1.3810 c1        1 XEZ     -0.112000
     14 CAQ        -1.1700    0.7650    1.3310 c1        1 XEZ     -0.066000
     15 CAO        -0.8390    0.1230    2.5150 c2        1 XEZ     -0.045000
     16 CAB        -1.6600   -0.6860    3.2460 c1        1 XEZ     -0.211000
     17 CAA        -0.9750   -1.0880    4.3560 c1        1 XEZ     -0.116000
     18 NAL         0.2550   -0.5340    4.3100 n2        1 XEZ     -0.157000
     19 NAK         0.3390    0.2180    3.1660 n2        1 XEZ     -0.098000
     20 HAC         2.4540    1.3790   -2.2790 DU        1 XEZ      0.208429
     21 HAM         3.6140   -1.9970   -4.0780 DU        1 XEZ      0.208429
     22 HAF         1.3250   -2.3980   -3.2700 DU        1 XEZ      0.208429
     23 HAG         0.6300   -0.8290   -0.0280 ha        1 XEZ      0.193000
     24 HAE        -2.0180    1.9870   -2.6570 ha        1 XEZ      0.187000
     25 HAD        -2.5780    2.0590    2.1910 DU        1 XEZ      0.208429
     26 HAB        -2.5750   -0.9330    3.0150 DU        1 XEZ      0.208429
     27 HAK         0.9140   -0.6410    4.9310 DU        1 XEZ      0.208429
     28 HAA        -1.3150   -1.6740    5.0590 DU        1 XEZ      0.208429
@<TRIPOS>BOND
     1    1    2 1   
     2    1    5 1   
     3    2    3 1   
     4    3    4 1   
     5    4    5 1   
     6    5    6 1   
     7    6    7 1   
     8    7   23 1   
     9    8   11 1   
    10    9   10 1   
    11   10   24 1   
    12   12   13 1   
    13   13   14 1   
    14   14   15 1   
    15   15   16 1   
    16   15   19 1   
    17   16   17 1   
    18   17   18 1   
    19   18   19 1   
@<TRIPOS>SUBSTRUCTURE
     1 XEZ         1 TEMP              0 ****  ****    0 ROOT
