@<TRIPOS>MOLECULE
XF5
   30    26     1     0     0
SMALL
bcc


@<TRIPOS>ATOM
      1 C11         1.2350   -1.2380   -0.6710 c3        1 XF5     -0.066000
      2 C12         2.7480   -1.2380   -0.6710 c3        1 XF5     -0.076000
      3 N13         3.2890   -1.2380    0.6430 n3        1 XF5     -0.299000
      4 C14         2.7480   -0.2080    1.4580 c3        1 XF5     -0.076000
      5 C15         1.2350   -0.2080    1.4580 c3        1 XF5     -0.066000
      6 N10         0.6930   -0.2080    0.1440 n3        1 XF5     -0.219000
      7 C3         -0.7230   -0.2650    0.0990 c2        1 XF5      0.053000
      8 C4         -1.2720    0.9140   -0.4350 c1        1 XF5     -0.064000
      9 C5         -0.6930    2.0720   -0.9050 c1        1 XF5     -0.178000
     10 C6         -1.7030    2.9170   -1.3180 c1        1 XF5     -0.091000
     11 N7         -2.8970    2.2850   -1.1040 n2        1 XF5     -0.222000
     12 C8         -2.6320    1.0430   -0.5570 c1        1 XF5      0.000000
     13 C9         -3.4760   -0.0040   -0.1480 c1        1 XF5     -0.128000
     14 C1         -2.9340   -1.1670    0.3800 c1        1 XF5     -0.128000
     15 C2         -1.5570   -1.2970    0.5030 c1        1 XF5     -0.185000
     16 H111        0.9190   -1.1160   -1.5860 h1        1 XF5      0.081500
     17 H112        0.9190   -2.1010   -0.3410 h1        1 XF5      0.081500
     18 H121        3.0630   -2.0330   -1.1420 h1        1 XF5      0.073000
     19 H122        3.0630   -0.4440   -1.1430 h1        1 XF5      0.073000
     20 H13         4.1950   -1.1460    0.5980 hn        1 XF5      0.157000
     21 H141        3.0630   -0.3310    2.3730 h1        1 XF5      0.073000
     22 H142        3.0630    0.6550    1.1280 h1        1 XF5      0.073000
     23 H151        0.9190   -1.0020    1.9300 h1        1 XF5      0.081500
     24 H152        0.9190    0.5860    1.9290 h1        1 XF5      0.081500
     25 H2         -1.1760   -2.1160    0.8740 ha        1 XF5      0.133000
     26 H5          0.2640    2.2620   -0.9400 DU        1 XF5      0.192333
     27 H6         -1.5860    3.8090   -1.6960 DU        1 XF5      0.192333
     28 H7         -3.7230    2.6240   -1.2900 DU        1 XF5      0.192333
     29 H9         -4.4440    0.0870   -0.2340 ha        1 XF5      0.130500
     30 H1         -3.5200   -1.8940    0.6640 ha        1 XF5      0.130500
@<TRIPOS>BOND
     1    1    2 1   
     2    1    6 1   
     3    1   16 1   
     4    1   17 1   
     5    2    3 1   
     6    2   18 1   
     7    2   19 1   
     8    3    4 1   
     9    3   20 1   
    10    4    5 1   
    11    4   21 1   
    12    4   22 1   
    13    5    6 1   
    14    5   23 1   
    15    5   24 1   
    16    6    7 1   
    17    7    8 1   
    18    7   15 1   
    19    8   12 1   
    20    9   10 1   
    21   10   11 1   
    22   11   12 1   
    23   13   14 1   
    24   13   29 1   
    25   14   30 1   
    26   15   25 1   
@<TRIPOS>SUBSTRUCTURE
     1 XF5         1 TEMP              0 ****  ****    0 ROOT
