@<TRIPOS>MOLECULE
XF5
   30    32     1     0     0
SMALL
bcc


@<TRIPOS>ATOM
      1 C11        -1.8850    0.1500   -1.2100 c3        1 XF5      0.134800
      2 C12        -3.2930   -0.4830   -1.2040 c3        1 XF5      0.148800
      3 N13        -4.0610   -0.2510    0.0030 n3        1 XF5     -0.797200
      4 C14        -3.2880   -0.5440    1.1930 c3        1 XF5      0.148800
      5 C15        -1.8790    0.0880    1.2260 c3        1 XF5      0.134800
      6 N10        -1.1310   -0.1660   -0.0010 nh        1 XF5     -0.615000
      7 C3          0.1660    0.4490    0.0120 ca        1 XF5      0.135600
      8 C4          1.3050   -0.3800   -0.0120 ca        1 XF5     -0.075800
      9 C5          1.5010   -1.8110   -0.0490 cc        1 XF5     -0.166200
     10 C6          2.8740   -2.0370   -0.0580 cd        1 XF5     -0.118100
     11 N7          3.5610   -0.8180   -0.0280 na        1 XF5     -0.198400
     12 C8          2.6230    0.2160    0.0000 ca        1 XF5     -0.045200
     13 C9          2.7970    1.6080    0.0350 ca        1 XF5     -0.149000
     14 C1          1.6560    2.3930    0.0580 ca        1 XF5     -0.108000
     15 C2          0.3680    1.8350    0.0470 ca        1 XF5     -0.186000
     16 H111       -1.3090   -0.2630   -2.0840 h1        1 XF5      0.038700
     17 H112       -1.9870    1.2640   -1.3610 h1        1 XF5      0.038700
     18 H121       -3.8620   -0.0770   -2.0840 h1        1 XF5      0.058700
     19 H122       -3.1930   -1.5970   -1.3320 h1        1 XF5      0.058700
     20 H13        -4.3740    0.7040    0.0280 hn        1 XF5      0.346800
     21 H141       -3.8530   -0.1830    2.0960 h1        1 XF5      0.058700
     22 H142       -3.1880   -1.6630    1.2640 h1        1 XF5      0.058700
     23 H151       -1.9810    1.1930    1.4330 h1        1 XF5      0.038700
     24 H152       -1.3000   -0.3690    2.0750 h1        1 XF5      0.038700
     25 H2         -0.4970    2.5150    0.0660 ha        1 XF5      0.129000
     26 H5          0.7100   -2.5550   -0.0660 ha        1 XF5      0.167000
     27 H6          3.4240   -2.9790   -0.0830 h4        1 XF5      0.164000
     28 H7          4.5380   -0.7030   -0.0280 hn        1 XF5      0.297700
     29 H9          3.7980    2.0570    0.0440 ha        1 XF5      0.132000
     30 H1          1.7560    3.4890    0.0860 ha        1 XF5      0.129000
@<TRIPOS>BOND
     1    1    2 1   
     2    1    6 1   
     3    1   16 1   
     4    1   17 1   
     5    2    3 1   
     6    2   18 1   
     7    2   19 1   
     8    3    4 1   
     9    3   20 1   
    10    4    5 1   
    11    4   21 1   
    12    4   22 1   
    13    5    6 1   
    14    5   23 1   
    15    5   24 1   
    16    6    7 1   
    17    7    8 ar  
    18    7   15 ar  
    19    8    9 1   
    20    8   12 ar  
    21    9   10 2   
    22    9   26 1   
    23   10   11 1   
    24   10   27 1   
    25   11   12 1   
    26   11   28 1   
    27   12   13 ar  
    28   13   14 ar  
    29   13   29 1   
    30   14   15 ar  
    31   14   30 1   
    32   15   25 1   
@<TRIPOS>SUBSTRUCTURE
     1 XF5         1 TEMP              0 ****  ****    0 ROOT
