@<TRIPOS>MOLECULE
XF5
   30    32     1     0     0
SMALL
bcc


@<TRIPOS>ATOM
      1 C11         0.0570    0.0560   -0.0340 c3        1 XF5      0.170800
      2 C12         1.5960   -0.0100    0.0070 c3        1 XF5      0.160800
      3 N13         2.1280    0.0350    1.3550 n3        1 XF5     -0.820200
      4 C14         1.5920    1.1270    2.1440 c3        1 XF5      0.160800
      5 C15         0.0530    1.1950    2.1080 c3        1 XF5      0.170800
      6 N10        -0.4730    1.1700    0.7460 nh        1 XF5     -0.617000
      7 C3         -1.9070    1.2260    0.7140 ca        1 XF5      0.134600
      8 C4         -2.5240    2.3440    0.1180 ca        1 XF5     -0.075800
      9 C5         -2.0260    3.5420   -0.5180 cc        1 XF5     -0.166200
     10 C6         -3.1320    4.2860   -0.9150 cd        1 XF5     -0.118100
     11 N7         -4.3110    3.6190   -0.5630 na        1 XF5     -0.199400
     12 C8         -3.9680    2.4240    0.0730 ca        1 XF5     -0.045200
     13 C9         -4.7740    1.4100    0.6110 ca        1 XF5     -0.149000
     14 C1         -4.1350    0.3250    1.1890 ca        1 XF5     -0.107000
     15 C2         -2.7360    0.2280    1.2430 ca        1 XF5     -0.185000
     16 H111       -0.3570   -0.9350    0.3160 h1        1 XF5      0.042200
     17 H112       -0.2600    0.2070   -1.1030 h1        1 XF5      0.042200
     18 H121        1.9120   -0.9890   -0.4500 h1        1 XF5      0.033700
     19 H122        2.0040    0.8210   -0.6400 h1        1 XF5      0.033700
     20 H13         3.1290    0.0930    1.3260 hn        1 XF5      0.361800
     21 H141        1.9050    0.9590    3.2120 h1        1 XF5      0.033700
     22 H142        1.9990    2.1290    1.8180 h1        1 XF5      0.033700
     23 H151       -0.2670    2.1660    2.5790 h1        1 XF5      0.042200
     24 H152       -0.3620    0.3510    2.7330 h1        1 XF5      0.042200
     25 H2         -2.2900   -0.6600    1.7170 ha        1 XF5      0.133000
     26 H5         -0.9790    3.7960   -0.6510 ha        1 XF5      0.166000
     27 H6         -3.1760    5.2490   -1.4270 h4        1 XF5      0.163000
     28 H7         -5.2280    3.9330   -0.7310 hn        1 XF5      0.297700
     29 H9         -5.8690    1.4740    0.5750 ha        1 XF5      0.132000
     30 H1         -4.7380   -0.4890    1.6210 ha        1 XF5      0.129000
@<TRIPOS>BOND
     1    1    2 1   
     2    1    6 1   
     3    1   16 1   
     4    1   17 1   
     5    2    3 1   
     6    2   18 1   
     7    2   19 1   
     8    3    4 1   
     9    3   20 1   
    10    4    5 1   
    11    4   21 1   
    12    4   22 1   
    13    5    6 1   
    14    5   23 1   
    15    5   24 1   
    16    6    7 1   
    17    7    8 ar  
    18    7   15 ar  
    19    8    9 1   
    20    8   12 ar  
    21    9   10 2   
    22    9   26 1   
    23   10   11 1   
    24   10   27 1   
    25   11   12 1   
    26   11   28 1   
    27   12   13 ar  
    28   13   14 ar  
    29   13   29 1   
    30   14   15 ar  
    31   14   30 1   
    32   15   25 1   
@<TRIPOS>SUBSTRUCTURE
     1 XF5         1 TEMP              0 ****  ****    0 ROOT
