@<TRIPOS>MOLECULE
XFA
   72    75     1     0     0
SMALL
bcc


@<TRIPOS>ATOM
      1 C2         -0.0240   -0.2250    0.1810 ca        1 XFA     -0.154000
      2 C4          0.8130    0.5880    2.3330 ca        1 XFA      0.032600
      3 C6          2.0370    1.0280    0.2730 ca        1 XFA      0.002400
      4 C9         -2.1140   -1.4580    1.5300 ca        1 XFA      0.017100
      5 C14        -3.3810   -0.9100    1.3020 ca        1 XFA     -0.130000
      6 C13        -4.3510   -1.6930    0.6820 ca        1 XFA     -0.107500
      7 C12        -4.0490   -3.0030    0.2850 ca        1 XFA      0.035400
      8 C11        -2.7690   -3.5350    0.5080 ca        1 XFA     -0.107500
      9 C1          1.0580    0.3500   -0.4700 ca        1 XFA     -0.056000
     10 C3         -0.1530   -0.1200    1.5730 ca        1 XFA      0.122100
     11 C5          1.9260    1.1360    1.6570 ca        1 XFA     -0.129000
     12 Cl1         3.3700    1.7090   -0.5100 cl        1 XFA     -0.013400
     13 O8         -1.1910   -0.7110    2.2810 os        1 XFA     -0.301200
     14 C10        -1.7940   -2.7620    1.1320 ca        1 XFA     -0.130000
     15 Cl2        -5.2260   -3.9440   -0.4700 cl        1 XFA     -0.005400
     16 N16         0.7170    0.7320    3.7480 nh        1 XFA     -0.671000
     17 C17         0.5690   -0.4420    4.5560 c3        1 XFA      0.185800
     18 C18        -0.6940   -0.4900    5.4080 c         1 XFA      0.565100
     19 N19        -1.1630   -1.8510    5.9260 nx        1 XFA     -0.378000
     20 N20        -0.0400   -2.6050    6.4180 n3        1 XFA     -0.487400
     21 C21        -2.0680   -2.4700    4.9030 c3        1 XFA      0.058100
     22 O22        -1.3530    0.4680    5.7940 o         1 XFA     -0.481100
     23 C23        -0.3330   -3.3570    7.6920 c3        1 XFA      0.165100
     24 C24        -0.3040   -4.8170    7.3580 ca        1 XFA     -0.153800
     25 C25         0.2020   -4.9800    6.0450 ca        1 XFA     -0.153800
     26 C26         0.5230   -3.6310    5.4760 c3        1 XFA      0.165100
     27 C27        -0.6550   -5.9090    8.1270 ca        1 XFA     -0.077500
     28 C28        -0.4930   -7.1890    7.5680 ca        1 XFA     -0.093500
     29 C29         0.0060   -7.3500    6.2780 ca        1 XFA     -0.093500
     30 C30         0.3620   -6.2380    5.4960 ca        1 XFA     -0.077500
     31 C31         0.8090    2.0160    4.3180 c3        1 XFA      0.220800
     32 C32        -0.4620    2.8900    4.0980 c         1 XFA      0.506100
     33 N33        -0.1860    4.4260    4.2100 ny        1 XFA     -0.698800
     34 C34        -1.4050    5.2560    4.0590 c3        1 XFA      0.072800
     35 C35        -1.1150    6.7710    4.1260 c3        1 XFA      0.073800
     36 N36        -2.3430    7.5980    3.9550 ny        1 XFA     -0.752000
     37 C37        -2.0350    9.0550    4.0220 c3        1 XFA      0.075100
     38 O38        -1.6080    2.5920    3.8560 o         1 XFA     -0.365100
     39 H1         -0.7850   -0.7770   -0.3980 ha        1 XFA      0.186000
     40 H2         -3.6060    0.1210    1.6100 ha        1 XFA      0.147500
     41 H3         -5.3560   -1.2780    0.4950 ha        1 XFA      0.177000
     42 H4         -2.5320   -4.5620    0.1810 ha        1 XFA      0.177000
     43 H5          1.1550    0.2610   -1.5680 ha        1 XFA      0.191000
     44 H6          2.7360    1.6280    2.2230 ha        1 XFA      0.153000
     45 H7         -0.7830   -3.1640    1.2930 ha        1 XFA      0.147500
     46 H8          1.4300   -0.5150    5.2930 h1        1 XFA      0.129200
     47 H9          0.5970   -1.3440    3.8740 h1        1 XFA      0.129200
     48 H10        -3.0350   -1.8970    4.8990 hx        1 XFA      0.117700
     49 H11        -1.6060   -2.4140    3.8780 hx        1 XFA      0.117700
     50 H12        -2.2660   -3.5440    5.1710 hx        1 XFA      0.117700
     51 H13        -1.2890   -3.0580    8.2010 h1        1 XFA      0.101450
     52 H14         0.5310   -3.0820    8.3650 h1        1 XFA      0.101450
     53 H15         0.1770   -3.5260    4.4140 h1        1 XFA      0.101450
     54 H16         1.6360   -3.4430    5.5140 h1        1 XFA      0.101450
     55 H17        -1.0410   -5.7950    9.1520 ha        1 XFA      0.158000
     56 H18        -0.7600   -8.0750    8.1680 ha        1 XFA      0.171500
     57 H19         0.1330   -8.3630    5.8620 ha        1 XFA      0.171500
     58 H20         0.7650   -6.3790    4.4820 ha        1 XFA      0.158000
     59 H21         0.9320    1.9540    5.4400 h1        1 XFA      0.107200
     60 H22         1.6740    2.5820    3.8590 h1        1 XFA      0.107200
     61 H23         0.2470    4.6010    5.1230 hn        1 XFA      0.460800
     62 H24        -2.1270    4.9550    4.8770 hx        1 XFA      0.133700
     63 H25        -1.8800    4.9870    3.0670 hx        1 XFA      0.133700
     64 H26        -0.6570    7.0410    5.1250 hx        1 XFA      0.130700
     65 H27        -0.3870    7.0690    3.3120 hx        1 XFA      0.130700
     66 H28        -2.7780    7.3900    3.0450 hn        1 XFA      0.470800
     67 H30        -1.3180    9.3320    3.2020 hx        1 XFA      0.132033
     68 H31        -1.5870    9.3060    5.0220 hx        1 XFA      0.132033
     69 H32        -2.9970    9.6290    3.8880 hx        1 XFA      0.132033
     70 H191       -1.7670   -1.6400    6.7500 hn        1 XFA      0.461800
     71 H332        0.4940    4.6720    3.4810 hn        1 XFA      0.460800
     72 H362       -3.0230    7.3660    4.6930 hn        1 XFA      0.470800
@<TRIPOS>BOND
     1    1    9 ar  
     2    1   10 ar  
     3    1   39 1   
     4    2   10 ar  
     5    2   11 ar  
     6    2   16 1   
     7    3    9 ar  
     8    3   11 ar  
     9    3   12 1   
    10    4    5 ar  
    11    4   13 1   
    12    4   14 ar  
    13    5    6 ar  
    14    5   40 1   
    15    6    7 ar  
    16    6   41 1   
    17    7    8 ar  
    18    7   15 1   
    19    8   14 ar  
    20    8   42 1   
    21    9   43 1   
    22   10   13 1   
    23   11   44 1   
    24   14   45 1   
    25   16   17 1   
    26   16   31 1   
    27   17   18 1   
    28   17   46 1   
    29   17   47 1   
    30   18   19 1   
    31   18   22 2   
    32   19   20 1   
    33   19   21 1   
    34   19   70 1   
    35   20   23 1   
    36   20   26 1   
    37   21   48 1   
    38   21   49 1   
    39   21   50 1   
    40   23   24 1   
    41   23   51 1   
    42   23   52 1   
    43   24   25 ar  
    44   24   27 ar  
    45   25   26 1   
    46   25   30 ar  
    47   26   53 1   
    48   26   54 1   
    49   27   28 ar  
    50   27   55 1   
    51   28   29 ar  
    52   28   56 1   
    53   29   30 ar  
    54   29   57 1   
    55   30   58 1   
    56   31   32 1   
    57   31   59 1   
    58   31   60 1   
    59   32   33 1   
    60   32   38 2   
    61   33   34 1   
    62   33   61 1   
    63   33   71 1   
    64   34   35 1   
    65   34   62 1   
    66   34   63 1   
    67   35   36 1   
    68   35   64 1   
    69   35   65 1   
    70   36   37 1   
    71   36   66 1   
    72   36   72 1   
    73   37   67 1   
    74   37   68 1   
    75   37   69 1   
@<TRIPOS>SUBSTRUCTURE
     1 XFA         1 TEMP              0 ****  ****    0 ROOT
