@<TRIPOS>MOLECULE
XFA
   72    75     1     0     0
SMALL
bcc


@<TRIPOS>ATOM
      1 C2         -0.0040   -0.2470    0.1860 ca        1 XFA     -0.154000
      2 C4          0.8270    0.5720    2.3390 ca        1 XFA      0.032600
      3 C6          2.0640    0.9940    0.2820 ca        1 XFA      0.002400
      4 C9         -2.1080   -1.4600    1.5320 ca        1 XFA      0.017100
      5 C14        -3.3710   -0.9060    1.2950 ca        1 XFA     -0.130000
      6 C13        -4.3440   -1.6860    0.6740 ca        1 XFA     -0.107500
      7 C12        -4.0470   -3.0000    0.2850 ca        1 XFA      0.035400
      8 C11        -2.7720   -3.5380    0.5170 ca        1 XFA     -0.107500
      9 C1          1.0840    0.3180   -0.4630 ca        1 XFA     -0.056000
     10 C3         -0.1400   -0.1340    1.5780 ca        1 XFA      0.122100
     11 C5          1.9470    1.1090    1.6650 ca        1 XFA     -0.129000
     12 CL1         3.4040    1.6620   -0.4970 cl        1 XFA     -0.013400
     13 O8         -1.1850   -0.7150    2.2840 os        1 XFA     -0.301200
     14 C10        -1.7950   -2.7680    1.1410 ca        1 XFA     -0.130000
     15 CL2        -5.2260   -3.9380   -0.4710 cl        1 XFA     -0.005400
     16 N16         0.7250    0.7240    3.7520 nh        1 XFA     -0.671000
     17 C17         0.5660   -0.4450    4.5660 c3        1 XFA      0.185800
     18 C18        -0.7020   -0.4820    5.4110 c         1 XFA      0.565100
     19 N19        -1.1810   -1.8370    5.9340 n4        1 XFA     -0.378000
     20 N20        -0.0650   -2.5950    6.4360 n3        1 XFA     -0.487400
     21 C21        -2.0840   -2.4560    4.9090 c3        1 XFA      0.058100
     22 O22        -1.3570    0.4820    5.7890 o         1 XFA     -0.481100
     23 C23        -0.3690   -3.3380    7.7120 c3        1 XFA      0.165100
     24 C24        -0.3470   -4.8000    7.3860 ca        1 XFA     -0.153800
     25 C25         0.1650   -4.9740    6.0770 ca        1 XFA     -0.153800
     26 C26         0.4970   -3.6300    5.5020 c3        1 XFA      0.165100
     27 C27        -0.7090   -5.8870    8.1590 ca        1 XFA     -0.077500
     28 C28        -0.5510   -7.1700    7.6080 ca        1 XFA     -0.093500
     29 C29        -0.0460   -7.3400    6.3210 ca        1 XFA     -0.093500
     30 C30         0.3200   -6.2350    5.5350 ca        1 XFA     -0.077500
     31 C31         0.8210    2.0100    4.3160 c3        1 XFA      0.220800
     32 C32        -0.4430    2.8900    4.0850 c         1 XFA      0.506100
     33 N33        -0.1580    4.4250    4.1890 n4        1 XFA     -0.698800
     34 C34        -1.3730    5.2620    4.0290 c3        1 XFA      0.072800
     35 C35        -1.0730    6.7750    4.0870 c3        1 XFA      0.073800
     36 N36        -2.2950    7.6080    3.9070 n4        1 XFA     -0.752000
     37 C37        -1.9790    9.0640    3.9660 c3        1 XFA      0.075100
     38 O38        -1.5900    2.5970    3.8400 o         1 XFA     -0.365100
     39 H1         -0.7670   -0.7970   -0.3930 ha        1 XFA      0.186000
     40 H2         -3.5920    0.1280    1.5970 ha        1 XFA      0.147500
     41 H3         -5.3450   -1.2660    0.4810 ha        1 XFA      0.177000
     42 H4         -2.5390   -4.5690    0.1960 ha        1 XFA      0.177000
     43 H5          1.1860    0.2220   -1.5590 ha        1 XFA      0.191000
     44 H6          2.7560    1.5990    2.2320 ha        1 XFA      0.153000
     45 H7         -0.7870   -3.1750    1.3090 ha        1 XFA      0.147500
     46 H8          0.5920   -1.3510    3.8880 h1        1 XFA      0.129200
     47 H9          1.4230   -0.5200    5.3080 h1        1 XFA      0.129200
     48 H10        -2.2900   -3.5280    5.1820 hx        1 XFA      0.117700
     49 H11        -1.6170   -2.4080    3.8870 hx        1 XFA      0.117700
     50 H12        -3.0480   -1.8770    4.8970 hx        1 XFA      0.117700
     51 H13        -1.3260   -3.0310    8.2150 h1        1 XFA      0.101450
     52 H14         0.4940   -3.0650    8.3880 h1        1 XFA      0.101450
     53 H15         1.6110   -3.4480    5.5450 h1        1 XFA      0.101450
     54 H16         0.1570   -3.5280    4.4380 h1        1 XFA      0.101450
     55 H17        -1.0990   -5.7650    9.1810 ha        1 XFA      0.158000
     56 H18        -0.8270   -8.0520    8.2110 ha        1 XFA      0.171500
     57 H19         0.0760   -8.3570    5.9110 ha        1 XFA      0.171500
     58 H20         0.7280   -6.3840    4.5240 ha        1 XFA      0.158000
     59 H21         1.6920    2.5680    3.8580 h1        1 XFA      0.107200
     60 H22         0.9380    1.9530    5.4390 h1        1 XFA      0.107200
     61 H23         0.5260    4.6620    3.4610 hn        1 XFA      0.460800
     62 H24        -1.8450    4.9890    3.0370 hx        1 XFA      0.133200
     63 H25        -2.0990    4.9700    4.8460 hx        1 XFA      0.133200
     64 H26        -0.3410    7.0630    3.2730 hx        1 XFA      0.130700
     65 H27        -0.6170    7.0480    5.0860 hx        1 XFA      0.130700
     66 H28        -2.7290    7.3970    2.9970 hn        1 XFA      0.470800
     67 H30        -1.2570    9.3320    3.1470 hx        1 XFA      0.132033
     68 H31        -1.5340    9.3180    4.9670 hx        1 XFA      0.132033
     69 H32        -2.9370    9.6430    3.8250 hx        1 XFA      0.132033
     70 H191       -1.7880   -1.6180    6.7540 hn        1 XFA      0.461800
     71 H332        0.2730    4.6030    5.1020 hn        1 XFA      0.460800
     72 H362       -2.9800    7.3850    4.6440 hn        1 XFA      0.470800
@<TRIPOS>BOND
     1    1    9 ar  
     2    1   10 ar  
     3    1   39 1   
     4    2   10 ar  
     5    2   11 ar  
     6    2   16 1   
     7    3    9 ar  
     8    3   11 ar  
     9    3   12 1   
    10    4    5 ar  
    11    4   13 1   
    12    4   14 ar  
    13    5    6 ar  
    14    5   40 1   
    15    6    7 ar  
    16    6   41 1   
    17    7    8 ar  
    18    7   15 1   
    19    8   14 ar  
    20    8   42 1   
    21    9   43 1   
    22   10   13 1   
    23   11   44 1   
    24   14   45 1   
    25   16   17 1   
    26   16   31 1   
    27   17   18 1   
    28   17   46 1   
    29   17   47 1   
    30   18   19 1   
    31   18   22 2   
    32   19   20 1   
    33   19   21 1   
    34   19   70 1   
    35   20   23 1   
    36   20   26 1   
    37   21   48 1   
    38   21   49 1   
    39   21   50 1   
    40   23   24 1   
    41   23   51 1   
    42   23   52 1   
    43   24   25 ar  
    44   24   27 ar  
    45   25   26 1   
    46   25   30 ar  
    47   26   53 1   
    48   26   54 1   
    49   27   28 ar  
    50   27   55 1   
    51   28   29 ar  
    52   28   56 1   
    53   29   30 ar  
    54   29   57 1   
    55   30   58 1   
    56   31   32 1   
    57   31   59 1   
    58   31   60 1   
    59   32   33 1   
    60   32   38 2   
    61   33   34 1   
    62   33   61 1   
    63   33   71 1   
    64   34   35 1   
    65   34   62 1   
    66   34   63 1   
    67   35   36 1   
    68   35   64 1   
    69   35   65 1   
    70   36   37 1   
    71   36   66 1   
    72   36   72 1   
    73   37   67 1   
    74   37   68 1   
    75   37   69 1   
@<TRIPOS>SUBSTRUCTURE
     1 XFA         1 TEMP              0 ****  ****    0 ROOT
