@<TRIPOS>MOLECULE
XFE
   31    33     1     0     0
SMALL
bcc


@<TRIPOS>ATOM
      1 C1         -3.5100   -0.0150    0.0950 c3        1 XFE      0.152500
      2 C2         -3.0720    0.9670   -1.0220 c3        1 XFE     -0.143400
      3 C3         -1.6560    1.4310   -0.6540 c3        1 XFE      0.161800
      4 N4         -1.1470    0.6080    0.4540 nh        1 XFE     -0.704300
      5 C5         -2.3130   -0.0040    1.0960 c3        1 XFE      0.156800
      6 C6         -0.0980   -0.2870    0.0450 ca        1 XFE      0.666200
      7 N7         -0.3380   -1.5790   -0.3110 nb        1 XFE     -0.767000
      8 C8          0.7320   -2.3610   -0.6360 ca        1 XFE      0.654900
      9 N9          2.0420   -2.0410   -0.6780 nb        1 XFE     -0.708000
     10 C10         1.2370    0.2060    0.0470 ca        1 XFE     -0.302400
     11 C11         2.2870   -0.7390   -0.3300 ca        1 XFE      0.445800
     12 N12         3.5100   -0.0700   -0.2570 na        1 XFE     -0.281100
     13 C13         3.2640    1.2440    0.1550 cc        1 XFE     -0.124100
     14 C14         1.8980    1.4520    0.3500 cd        1 XFE     -0.085400
     15 C15         1.2660    2.6960    0.7900 c3        1 XFE     -0.025900
     16 N16        -3.8810   -1.3450   -0.3240 n3        1 XFE     -0.907800
     17 H1         -4.4140    0.4130    0.6170 h1        1 XFE      0.063700
     18 H2         -3.0740    0.4820   -2.0280 hc        1 XFE      0.051200
     19 H2A        -3.7660    1.8400   -1.0630 hc        1 XFE      0.051200
     20 H3         -0.9750    1.4010   -1.5450 h1        1 XFE      0.057200
     21 H3A        -1.6830    2.4890   -0.2720 h1        1 XFE      0.057200
     22 H5         -2.5780    0.6770    1.9530 h1        1 XFE      0.072200
     23 H5A        -2.0960   -1.0190    1.5170 h1        1 XFE      0.072200
     24 H8          0.4840   -3.4090   -0.9090 h5        1 XFE      0.051100
     25 H13         4.0930    1.9440    0.2820 h4        1 XFE      0.172000
     26 H15         0.5320    3.0520    0.0220 hc        1 XFE      0.046033
     27 H15A        0.7060    2.5300    1.7460 hc        1 XFE      0.046033
     28 H15B        2.0280    3.4970    0.9550 hc        1 XFE      0.046033
     29 HN16       -4.4970   -1.3040   -1.1110 hn        1 XFE      0.356800
     30 HN1A       -3.0760   -1.8910   -0.5640 hn        1 XFE      0.356800
     31 HN12        4.3910   -0.4680   -0.4500 hn        1 XFE      0.312700
@<TRIPOS>BOND
     1    1    2 1   
     2    1    5 1   
     3    1   16 1   
     4    1   17 1   
     5    2    3 1   
     6    2   18 1   
     7    2   19 1   
     8    3    4 1   
     9    3   20 1   
    10    3   21 1   
    11    4    5 1   
    12    4    6 1   
    13    5   22 1   
    14    5   23 1   
    15    6    7 ar  
    16    6   10 ar  
    17    7    8 ar  
    18    8    9 ar  
    19    8   24 1   
    20    9   11 ar  
    21   10   11 ar  
    22   10   14 1   
    23   11   12 1   
    24   12   13 1   
    25   12   31 1   
    26   13   14 2   
    27   13   25 1   
    28   14   15 1   
    29   15   26 1   
    30   15   27 1   
    31   15   28 1   
    32   16   29 1   
    33   16   30 1   
@<TRIPOS>SUBSTRUCTURE
     1 XFE         1 TEMP              0 ****  ****    0 ROOT
