@<TRIPOS>MOLECULE
XFE
   32    34     1     0     0
SMALL
bcc


@<TRIPOS>ATOM
      1 C1          0.0060   -0.2600   -0.0670 c3        1 XFE      0.084500
      2 C2          1.5120   -0.3430   -0.3900 c3        1 XFE     -0.125400
      3 C3          2.2370    0.1410    0.8850 c3        1 XFE      0.141800
      4 N4          1.2360    0.4470    1.9240 nh        1 XFE     -0.674300
      5 C5         -0.0310    0.6300    1.2180 c3        1 XFE      0.138800
      6 C6          1.1920   -0.5590    2.9630 ca        1 XFE      0.638200
      7 N7          0.5380   -1.7440    2.7760 nb        1 XFE     -0.874000
      8 C8          0.5230   -2.6400    3.8070 ca        1 XFE      0.665900
      9 N9          1.0870   -2.5260    5.0240 nb        1 XFE     -0.663000
     10 C10         1.8360   -0.2930    4.1900 ca        1 XFE     -0.271400
     11 C11         1.7480   -1.3440    5.2180 ca        1 XFE      0.458800
     12 N12         2.4340   -0.8940    6.3400 na        1 XFE     -0.261100
     13 C13         2.9430    0.3800    6.0630 cc        1 XFE     -0.084100
     14 C14         2.6020    0.7820    4.7690 cd        1 XFE     -0.087400
     15 C15         2.9510    2.0540    4.1350 c3        1 XFE     -0.030900
     16 N16        -0.5920   -1.6030    0.2020 n4        1 XFE     -0.869600
     17 H1         -0.5730    0.2140   -0.9070 hx        1 XFE      0.113700
     18 H2          1.7390    0.3400   -1.2470 hc        1 XFE      0.086200
     19 H2A         1.8500   -1.3690   -0.6750 hc        1 XFE      0.086200
     20 H3          2.9860   -0.6180    1.2350 h1        1 XFE      0.090200
     21 H3A         2.7830    1.1020    0.6770 h1        1 XFE      0.090200
     22 H5         -0.0660    1.7060    0.8810 h1        1 XFE      0.099700
     23 H5A        -0.9210    0.4360    1.8700 h1        1 XFE      0.099700
     24 H8         -0.0230   -3.5900    3.6190 h5        1 XFE      0.059100
     25 H13         3.5210    0.9180    6.8220 h4        1 XFE      0.194000
     26 H15         3.4760    1.8760    3.1620 hc        1 XFE      0.054033
     27 H15A        3.6220    2.6580    4.7960 hc        1 XFE      0.054033
     28 H15B        2.0270    2.6510    3.9250 hc        1 XFE      0.054033
     29 HN16       -0.3380   -2.2600   -0.5370 hn        1 XFE      0.466800
     30 HN1A       -0.2240   -1.9540    1.1330 hn        1 XFE      0.466800
     31 HN12        2.5400   -1.3950    7.1880 hn        1 XFE      0.331700
     32 H163       -1.6070   -1.5280    0.2560 hn        1 XFE      0.466800
@<TRIPOS>BOND
     1    1    2 1   
     2    1    5 1   
     3    1   16 1   
     4    1   17 1   
     5    2    3 1   
     6    2   18 1   
     7    2   19 1   
     8    3    4 1   
     9    3   20 1   
    10    3   21 1   
    11    4    5 1   
    12    4    6 1   
    13    5   22 1   
    14    5   23 1   
    15    6    7 ar  
    16    6   10 ar  
    17    7    8 ar  
    18    8    9 ar  
    19    8   24 1   
    20    9   11 ar  
    21   10   11 ar  
    22   10   14 1   
    23   11   12 1   
    24   12   13 1   
    25   12   31 1   
    26   13   14 2   
    27   13   25 1   
    28   14   15 1   
    29   15   26 1   
    30   15   27 1   
    31   15   28 1   
    32   16   29 1   
    33   16   30 1   
    34   16   32 1   
@<TRIPOS>SUBSTRUCTURE
     1 XFE         1 TEMP              0 ****  ****    0 ROOT
