@<TRIPOS>MOLECULE
XFE
   32    34     1     0     0
SMALL
bcc


@<TRIPOS>ATOM
      1 C1         -0.0590   -0.1620   -0.0310 c3        1 XFE      0.084500
      2 C2          1.4320   -0.3230   -0.3930 c3        1 XFE     -0.125400
      3 C3          2.2140    0.1080    0.8660 c3        1 XFE      0.141800
      4 N4          1.2590    0.4580    1.9330 nh        1 XFE     -0.674300
      5 C5         -0.0140    0.7170    1.2620 c3        1 XFE      0.138800
      6 C6          1.1880   -0.5540    2.9650 ca        1 XFE      0.638200
      7 N7          0.4650   -1.7000    2.7850 nb        1 XFE     -0.874000
      8 C8          0.4280   -2.6040    3.8080 ca        1 XFE      0.665900
      9 N9          1.0280   -2.5330    5.0120 nb        1 XFE     -0.663000
     10 C10         1.8760   -0.3360    4.1760 ca        1 XFE     -0.271400
     11 C11         1.7580   -1.3910    5.1970 ca        1 XFE      0.458800
     12 N12         2.4970   -0.9900    6.3050 na        1 XFE     -0.261100
     13 C13         3.0670    0.2580    6.0250 cc        1 XFE     -0.084100
     14 C14         2.7150    0.6910    4.7440 cd        1 XFE     -0.087400
     15 C15         3.1170    1.9480    4.1120 c3        1 XFE     -0.030900
     16 N16        -0.7220   -1.4740    0.2430 nz        1 XFE     -0.869600
     17 H1         -0.6330    0.3510   -0.8510 hx        1 XFE      0.113700
     18 H2          1.7050   -1.3630   -0.6970 hc        1 XFE      0.086200
     19 H2A         1.6730    0.3550   -1.2510 hc        1 XFE      0.086200
     20 H3          2.8070    1.0410    0.6510 h1        1 XFE      0.090200
     21 H3A         2.9300   -0.6930    1.1900 h1        1 XFE      0.090200
     22 H5         -0.8960    0.5650    1.9360 h1        1 XFE      0.099700
     23 H5A         0.0010    1.7960    0.9360 h1        1 XFE      0.099700
     24 H8         -0.1740   -3.5210    3.6270 h5        1 XFE      0.059100
     25 H13         3.6930    0.7560    6.7720 h4        1 XFE      0.194000
     26 H15         3.6050    1.7510    3.1230 hc        1 XFE      0.054033
     27 H15A        3.8360    2.5080    4.7590 hc        1 XFE      0.054033
     28 H15B        2.2210    2.5960    3.9320 hc        1 XFE      0.054033
     29 HN16       -1.7300   -1.3430    0.3240 hn        1 XFE      0.466800
     30 HN1A       -0.5230   -2.1350   -0.5070 hn        1 XFE      0.466800
     31 HN12        2.5970   -1.5040    7.1450 hn        1 XFE      0.331700
     32 H163       -0.3490   -1.8520    1.1610 hn        1 XFE      0.466800
@<TRIPOS>BOND
     1    1    2 1   
     2    1    5 1   
     3    1   16 1   
     4    1   17 1   
     5    2    3 1   
     6    2   18 1   
     7    2   19 1   
     8    3    4 1   
     9    3   20 1   
    10    3   21 1   
    11    4    5 1   
    12    4    6 1   
    13    5   22 1   
    14    5   23 1   
    15    6    7 ar  
    16    6   10 ar  
    17    7    8 ar  
    18    8    9 ar  
    19    8   24 1   
    20    9   11 ar  
    21   10   11 ar  
    22   10   14 1   
    23   11   12 1   
    24   12   13 1   
    25   12   31 1   
    26   13   14 2   
    27   13   25 1   
    28   14   15 1   
    29   15   26 1   
    30   15   27 1   
    31   15   28 1   
    32   16   29 1   
    33   16   30 1   
    34   16   32 1   
@<TRIPOS>SUBSTRUCTURE
     1 XFE         1 TEMP              0 ****  ****    0 ROOT
