@<TRIPOS>MOLECULE
XFE
   32    34     1     0     0
SMALL
bcc


@<TRIPOS>ATOM
      1 C1         -0.0140   -0.2500   -0.0570 c3        1 XFE      0.084500
      2 C2          1.4860   -0.3920   -0.3890 c3        1 XFE     -0.125400
      3 C3          2.2370    0.0840    0.8730 c3        1 XFE      0.141800
      4 N4          1.2570    0.4420    1.9140 nh        1 XFE     -0.674300
      5 C5         -0.0080    0.6600    1.2140 c3        1 XFE      0.138800
      6 C6          1.1850   -0.5470    2.9690 ca        1 XFE      0.638200
      7 N7          0.4860   -1.7100    2.8050 nb        1 XFE     -0.874000
      8 C8          0.4470   -2.5890    3.8490 ca        1 XFE      0.665900
      9 N9          1.0240   -2.4780    5.0600 nb        1 XFE     -0.663000
     10 C10         1.8480   -0.2860    4.1860 ca        1 XFE     -0.271400
     11 C11         1.7300   -1.3190    5.2300 ca        1 XFE      0.458800
     12 N12         2.4420   -0.8780    6.3410 na        1 XFE     -0.261100
     13 C13         2.9940    0.3730    6.0410 cc        1 XFE     -0.084100
     14 C14         2.6570    0.7680    4.7440 cd        1 XFE     -0.087400
     15 C15         3.0470    2.0170    4.0880 c3        1 XFE     -0.030900
     16 N16        -0.6570   -1.5660    0.2360 n4        1 XFE     -0.869600
     17 H1         -0.5820    0.2320   -0.9000 hx        1 XFE      0.113700
     18 H2          1.7840   -1.4340   -0.6620 hc        1 XFE      0.086200
     19 H2A         1.7310    0.2690   -1.2580 hc        1 XFE      0.086200
     20 H3          2.9620   -0.6960    1.2290 h1        1 XFE      0.090200
     21 H3A         2.8170    1.0220    0.6460 h1        1 XFE      0.090200
     22 H5         -0.0070    1.7310    0.8620 h1        1 XFE      0.099700
     23 H5A        -0.9000    0.5080    1.8760 h1        1 XFE      0.099700
     24 H8         -0.1350   -3.5210    3.6790 h5        1 XFE      0.059100
     25 H13         3.5970    0.9000    6.7870 h4        1 XFE      0.194000
     26 H15         2.1440    2.6440    3.8770 hc        1 XFE      0.054033
     27 H15A        3.7450    2.6060    4.7340 hc        1 XFE      0.054033
     28 H15B        3.5570    1.8060    3.1140 hc        1 XFE      0.054033
     29 HN16       -0.4330   -2.2420   -0.4940 hn        1 XFE      0.466800
     30 HN1A       -0.2950   -1.9160    1.1710 hn        1 XFE      0.466800
     31 HN12        2.5350   -1.3690    7.1950 hn        1 XFE      0.331700
     32 H163       -1.6690   -1.4530    0.2970 hn        1 XFE      0.466800
@<TRIPOS>BOND
     1    1    2 1   
     2    1    5 1   
     3    1   16 1   
     4    1   17 1   
     5    2    3 1   
     6    2   18 1   
     7    2   19 1   
     8    3    4 1   
     9    3   20 1   
    10    3   21 1   
    11    4    5 1   
    12    4    6 1   
    13    5   22 1   
    14    5   23 1   
    15    6    7 ar  
    16    6   10 ar  
    17    7    8 ar  
    18    8    9 ar  
    19    8   24 1   
    20    9   11 ar  
    21   10   11 ar  
    22   10   14 1   
    23   11   12 1   
    24   12   13 1   
    25   12   31 1   
    26   13   14 2   
    27   13   25 1   
    28   14   15 1   
    29   15   26 1   
    30   15   27 1   
    31   15   28 1   
    32   16   29 1   
    33   16   30 1   
    34   16   32 1   
@<TRIPOS>SUBSTRUCTURE
     1 XFE         1 TEMP              0 ****  ****    0 ROOT
