@<TRIPOS>MOLECULE
XFH
   54    52     1     0     0
SMALL
bcc


@<TRIPOS>ATOM
      1 N01        -2.5330   -1.4900   -0.2910 n2        1 XFH     -0.155000
      2 C02        -1.3980   -2.0960   -0.1600 c2        1 XFH      0.093000
      3 N02        -1.1350   -3.1990   -1.1350 n4        1 XFH     -0.080000
      4 C03        -0.3210   -1.8820    0.8190 c2        1 XFH     -0.198000
      5 C04         0.9230   -2.2570    0.6640 c1        1 XFH     -0.127000
      6 C05        -2.1800    0.8830    0.3830 c3        1 XFH     -0.220000
      7 C06        -2.9580   -0.4040    0.5380 cx        1 XFH      0.022000
      8 C07         2.1810   -2.5670    0.6190 c2        1 XFH     -0.099000
      9 C08        -3.6280   -0.6490    1.8700 cx        1 XFH     -0.151000
     10 C09        -4.5080   -0.2970    0.6900 cx        1 XFH     -0.234000
     11 C11        -7.3640    4.6280    0.8290 c1        1 XFH     -0.225000
     12 C12        -6.3720    1.2390    0.0150 c2        1 XFH     -0.198000
     13 C13        -5.1570    0.9930    0.6210 c2        1 XFH      0.180000
     14 C14        -7.1320    0.3010   -0.6020 c1        1 XFH      0.173000
     15 C15        -7.8680   -0.5340   -1.2620 c2        1 XFH     -0.098000
     16 C16        -7.3120    4.6670   -0.3660 c1        1 XFH     -0.225000
     17 C17        -7.7420   -0.8090   -2.7270 c3        1 XFH     -0.085000
     18 C18        -7.3050   -2.2140   -2.9540 c2        1 XFH     -0.126000
     19 C21        -4.9750   -4.9060   -1.1710 c1        1 XFH     -0.151000
     20 C22        -4.3140   -4.2410   -1.9240 c1        1 XFH     -0.155000
     21 N22        -8.7730    0.3150    1.5450 n3        1 XFH     -0.432000
     22 N23        -3.4690   -3.5550   -2.7210 n2        1 XFH     -0.182000
     23 C24        -3.8340   -2.9550   -3.8200 c2        1 XFH      0.121000
     24 C25        -5.1990   -2.8300   -4.3620 c2        1 XFH     -0.138000
     25 C26        -6.2420   -2.5270   -3.6400 c1        1 XFH     -0.086000
     26 HN02       -1.9150   -3.3010   -1.8510 hn        1 XFH      0.278333
     27 HN0A       -0.2510   -3.0040   -1.6110 hn        1 XFH      0.278333
     28 H03        -0.6370   -1.3480    1.7380 ha        1 XFH      0.189000
     29 H05        -2.3420    1.3240   -0.6310 hc        1 XFH      0.113667
     30 H07        -1.0850    0.6930    0.5190 hc        1 XFH      0.113667
     31 H07A        2.5730   -3.5240    1.0070 ha        1 XFH      0.187500
     32 H07B        2.9420   -1.8890    0.1910 ha        1 XFH      0.187500
     33 H08        -2.4960    1.6260    1.1560 hc        1 XFH      0.113667
     34 H08A       -3.4740    0.1010    2.6710 hc        1 XFH      0.154500
     35 H09        -3.7130   -1.6760    2.2760 hc        1 XFH      0.154500
     36 H09A       -5.1080   -1.1270    0.2510 hc        1 XFH      0.165000
     37 H11        -6.7770    2.2830    0.0480 ha        1 XFH      0.213000
     38 H12        -7.4250    4.6360    1.8900 ha        1 XFH      0.228000
     39 H14        -4.6370    1.8520    1.0990 ha        1 XFH      0.174000
     40 H16        -8.6680   -1.1090   -0.7410 ha        1 XFH      0.233000
     41 H17        -7.2790    4.7410   -1.4250 ha        1 XFH      0.228000
     42 H17A       -7.0420   -0.0800   -3.2160 hc        1 XFH      0.136500
     43 H18        -8.7610   -0.6610   -3.1920 hc        1 XFH      0.136500
     44 H18A       -7.9580   -3.0020   -2.5340 ha        1 XFH      0.173000
     45 H21        -5.5480   -5.5130   -0.5130 ha        1 XFH      0.254000
     46 HN22       -8.5450   -0.2460    2.3420 hn        1 XFH      0.151333
     47 HN2A       -8.7690    1.2760    1.8220 hn        1 XFH      0.151333
     48 H25        -5.2890   -2.9750   -5.4570 ha        1 XFH      0.192000
     49 H27        -3.1430   -1.2750   -4.9710 hc        1 XFH      0.114667
     50 H27A       -1.7990   -2.2400   -4.2180 hc        1 XFH      0.114667
     51 H27B       -2.7090   -2.9080   -5.6410 hc        1 XFH      0.114667
     52 H023       -1.0500   -4.0740   -0.6110 hn        1 XFH      0.278333
     53 H223       -9.6990    0.0780    1.2480 hn        1 XFH      0.151333
     54 C27        -2.8040   -2.3060   -4.6990 c3        1 XFH     -0.204000
@<TRIPOS>BOND
     1    1    2 1   
     2    1    7 1   
     3    2    3 1   
     4    2    4 1   
     5    3   26 1   
     6    3   27 1   
     7    3   52 1   
     8    4    5 1   
     9    4   28 1   
    10    5    8 1   
    11    6    7 1   
    12    6   29 1   
    13    6   30 1   
    14    6   33 1   
    15    7    9 1   
    16    7   10 1   
    17    8   31 1   
    18    8   32 1   
    19    9   10 1   
    20    9   34 1   
    21    9   35 1   
    22   10   13 1   
    23   10   36 1   
    24   11   16 1   
    25   11   38 1   
    26   12   13 1   
    27   12   14 1   
    28   12   37 1   
    29   13   39 1   
    30   14   15 1   
    31   15   17 1   
    32   15   40 1   
    33   16   41 1   
    34   17   18 1   
    35   17   42 1   
    36   17   43 1   
    37   18   25 1   
    38   18   44 1   
    39   19   20 1   
    40   19   45 1   
    41   20   22 1   
    42   21   46 1   
    43   21   47 1   
    44   21   53 1   
    45   22   23 1   
    46   23   24 1   
    47   23   54 1   
    48   24   25 1   
    49   24   48 1   
    50   49   54 1   
    51   50   54 1   
    52   51   54 1   
@<TRIPOS>SUBSTRUCTURE
     1 XFH         1 TEMP              0 ****  ****    0 ROOT
