@<TRIPOS>MOLECULE
XFH
   52    51     1     0     0
SMALL
bcc


@<TRIPOS>ATOM
      1 N01        -0.4050    0.2430   -0.2870 n2        1 XFH     -0.176000
      2 C02         0.9000    0.0680   -0.1900 c2        1 XFH      0.083000
      3 N02         1.7440    0.1230   -1.3070 n8        1 XFH     -0.318000
      4 C03         1.5490   -0.3170    1.1000 c2        1 XFH     -0.212000
      5 C04         1.6760    0.5390    2.1260 c2        1 XFH     -0.075000
      6 C05        -0.6610   -0.1060    2.1450 c1        1 XFH      0.091000
      7 C06        -1.1480    0.0480    0.8980 c2        1 XFH     -0.296000
      8 C07         2.2760    0.1710    3.4240 c3        1 XFH     -0.201000
      9 C08        -2.6500    0.0140    0.7510 c3        1 XFH     -0.076000
     10 C09        -3.1940    1.3580    0.2990 c3        1 XFH     -0.112000
     11 C11        -6.8590    1.6980    1.3940 c2        1 XFH     -0.474000
     12 C12        -5.3840    1.6700    1.5650 c3        1 XFH     -0.048000
     13 C13        -4.6830    1.3510    0.2790 c2        1 XFH     -0.056000
     14 C14        -5.4010    1.0920   -0.7840 c1        1 XFH     -0.211000
     15 C15        -6.1850    0.8790   -1.8090 c2        1 XFH     -0.027000
     16 C16        -7.5210    1.4660    0.2740 c1        1 XFH      0.134000
     17 C17        -6.6810   -0.4460   -2.2590 c3        1 XFH     -0.129000
     18 C18        -6.1140   -1.6100   -1.4720 c3        1 XFH     -0.126000
     19 C21        -8.0660   -3.0920   -1.8630 c2        1 XFH     -0.170000
     20 C22        -8.9030   -3.6560   -2.7880 c2        1 XFH      0.055000
     21 N22       -10.3120   -3.6440   -2.5910 n8        1 XFH     -0.338000
     22 N23        -8.3610   -4.1940   -3.9930 n2        1 XFH     -0.100000
     23 C24        -9.0080   -4.3910   -5.0390 c1        1 XFH     -0.003000
     24 C25        -5.7880   -3.8680   -2.4160 c2        1 XFH     -0.193000
     25 C26        -6.6280   -2.9220   -1.9750 c2        1 XFH     -0.069000
     26 HN02        1.3490    0.5150   -2.1340 hn        1 XFH      0.200000
     27 HN0A        2.6600    0.4500   -1.0990 hn        1 XFH      0.200000
     28 H03         1.8930   -1.3630    1.1520 ha        1 XFH      0.160000
     29 H05         1.3400    1.5890    2.0430 ha        1 XFH      0.135000
     30 H07         1.4890    0.2130    4.2200 hc        1 XFH      0.096000
     31 H07A        2.7070   -0.8600    3.4090 hc        1 XFH      0.096000
     32 H07B        3.0880    0.8940    3.6900 hc        1 XFH      0.096000
     33 H08        -3.1090   -0.2690    1.7360 hc        1 XFH      0.095500
     34 H08A       -2.9300   -0.7780    0.0060 hc        1 XFH      0.095500
     35 H09        -2.8370    2.1630    0.9950 hc        1 XFH      0.099500
     36 H09A       -2.7970    1.5960   -0.7240 hc        1 XFH      0.099500
     37 H11        -5.0300    2.6700    1.9380 hc        1 XFH      0.096000
     38 H12        -7.4300    1.9440    2.3090 ha        1 XFH      0.176000
     39 H14        -5.1040    0.9030    2.3380 hc        1 XFH      0.096000
     40 H16        -6.5170    1.7330   -2.4300 ha        1 XFH      0.142000
     41 H17        -7.8040   -0.4490   -2.1770 hc        1 XFH      0.105500
     42 H17A       -6.4250   -0.5680   -3.3470 hc        1 XFH      0.105500
     43 H18        -6.3960   -1.4980   -0.3890 hc        1 XFH      0.090500
     44 H18A       -4.9930   -1.5860   -1.5260 hc        1 XFH      0.090500
     45 H21        -8.4990   -2.6740   -0.9360 ha        1 XFH      0.134000
     46 HN22      -10.5650   -3.4700   -1.6420 hn        1 XFH      0.179000
     47 HN2A      -10.7800   -4.4460   -2.9580 hn        1 XFH      0.179000
     48 H25        -6.1220   -4.8560   -2.7540 ha        1 XFH      0.117000
     49 H27        -4.7040   -3.7030   -2.4590 ha        1 XFH      0.117000
     50 H27A       -9.9390   -5.6400   -6.4530 ha        1 XFH      0.151500
     51 H27B       -9.5240   -3.9070   -7.0180 ha        1 XFH      0.151500
     52 C27        -9.5160   -4.6550   -6.2150 c2        1 XFH     -0.261000
@<TRIPOS>BOND
     1    1    2 1   
     2    1    7 1   
     3    2    3 1   
     4    2    4 1   
     5    3   26 1   
     6    3   27 1   
     7    4    5 1   
     8    4   28 1   
     9    5    8 1   
    10    5   29 1   
    11    6    7 1   
    12    7    9 1   
    13    8   30 1   
    14    8   31 1   
    15    8   32 1   
    16    9   10 1   
    17    9   33 1   
    18    9   34 1   
    19   10   13 1   
    20   10   35 1   
    21   10   36 1   
    22   11   12 1   
    23   11   16 1   
    24   11   38 1   
    25   12   13 1   
    26   12   37 1   
    27   12   39 1   
    28   13   14 1   
    29   14   15 1   
    30   15   17 1   
    31   15   40 1   
    32   17   18 1   
    33   17   41 1   
    34   17   42 1   
    35   18   25 1   
    36   18   43 1   
    37   18   44 1   
    38   19   20 1   
    39   19   25 1   
    40   19   45 1   
    41   20   21 1   
    42   20   22 1   
    43   21   46 1   
    44   21   47 1   
    45   22   23 1   
    46   23   52 1   
    47   24   25 1   
    48   24   48 1   
    49   24   49 1   
    50   50   52 1   
    51   51   52 1   
@<TRIPOS>SUBSTRUCTURE
     1 XFH         1 TEMP              0 ****  ****    0 ROOT
