@<TRIPOS>MOLECULE
XFH
   52    54     1     0     0
SMALL
bcc


@<TRIPOS>ATOM
      1 N01        -4.2130   -1.3160    0.5910 nb        1 XFH     -0.730000
      2 C02        -5.4140   -1.9690    0.6890 ca        1 XFH      0.632200
      3 N02        -5.5730   -2.9540    1.6790 nh        1 XFH     -0.923500
      4 C03        -6.5300   -1.6300   -0.1340 ca        1 XFH     -0.301300
      5 C04        -6.4040   -0.5830   -1.0440 ca        1 XFH     -0.006300
      6 C05        -5.1830    0.0980   -1.1290 ca        1 XFH     -0.292300
      7 C06        -4.1200   -0.3000   -0.2950 ca        1 XFH      0.450600
      8 C07        -7.5440   -0.1850   -1.9010 c3        1 XFH     -0.060800
      9 C08        -2.8080    0.4290   -0.4080 c3        1 XFH     -0.125700
     10 C09        -2.5020    1.2220    0.8510 c3        1 XFH     -0.035100
     11 C11        -0.0220    4.0520    0.4210 ca        1 XFH     -0.127000
     12 C12        -1.2260    3.3580    0.5310 ca        1 XFH     -0.129000
     13 C13        -1.2220    1.9720    0.7180 ca        1 XFH     -0.077300
     14 C14        -0.0020    1.2920    0.7930 ca        1 XFH     -0.125000
     15 C15         1.2080    1.9840    0.6800 ca        1 XFH     -0.079300
     16 C16         1.1920    3.3710    0.4940 ca        1 XFH     -0.129000
     17 C17         2.5000    1.2490    0.7730 c3        1 XFH     -0.033100
     18 C18         2.7650    0.4320   -0.4820 c3        1 XFH     -0.040100
     19 C21         5.2650    0.3890   -0.5400 ca        1 XFH     -0.302300
     20 C22         6.4900   -0.3370   -0.4500 ca        1 XFH      0.631200
     21 N22         7.7050    0.3690   -0.4960 nh        1 XFH     -0.923500
     22 N23         6.5180   -1.6920   -0.2480 nb        1 XFH     -0.729000
     23 C24         5.3370   -2.3320   -0.1000 ca        1 XFH      0.452600
     24 C25         4.0900   -1.6770   -0.1650 ca        1 XFH     -0.291300
     25 C26         4.0610   -0.2970   -0.3910 ca        1 XFH     -0.007300
     26 HN02       -4.7320   -3.2870    2.0990 hn        1 XFH      0.400300
     27 HN0A       -6.2060   -3.6770    1.4210 hn        1 XFH      0.400300
     28 H03        -7.4780   -2.1770   -0.0430 ha        1 XFH      0.141000
     29 H05        -5.0550    0.9270   -1.8360 ha        1 XFH      0.142000
     30 H07        -8.0700    0.6920   -1.4460 hc        1 XFH      0.049367
     31 H07A       -7.1890    0.1100   -2.9200 hc        1 XFH      0.049367
     32 H07B       -8.2800   -1.0190   -2.0080 hc        1 XFH      0.049367
     33 H08        -1.9800   -0.3060   -0.5960 hc        1 XFH      0.057200
     34 H08A       -2.8500    1.1220   -1.2900 hc        1 XFH      0.057200
     35 H09        -3.3460    1.9330    1.0580 hc        1 XFH      0.060200
     36 H09A       -2.4340    0.5210    1.7270 hc        1 XFH      0.060200
     37 H11        -0.0300    5.1420    0.2770 ha        1 XFH      0.130000
     38 H12        -2.1800    3.9020    0.4760 ha        1 XFH      0.131000
     39 H14         0.0050    0.2020    0.9460 ha        1 XFH      0.135000
     40 H16         2.1380    3.9240    0.4080 ha        1 XFH      0.130000
     41 H17         3.3470    1.9690    0.9300 hc        1 XFH      0.055200
     42 H17A        2.4750    0.5650    1.6640 hc        1 XFH      0.055200
     43 H18         1.9230   -0.2950   -0.6350 hc        1 XFH      0.055200
     44 H18A        2.7840    1.1140   -1.3730 hc        1 XFH      0.055200
     45 H21         5.2670    1.4730   -0.7140 ha        1 XFH      0.141000
     46 HN22        7.6760    1.1660   -1.0920 hn        1 XFH      0.399800
     47 HN2A        8.5240   -0.1880   -0.6120 hn        1 XFH      0.399800
     48 H25         3.1600   -2.2450   -0.0430 ha        1 XFH      0.142000
     49 H27         5.7000   -4.0110    1.1930 hc        1 XFH      0.052700
     50 H27A        4.3330   -4.2340    0.0160 hc        1 XFH      0.052700
     51 H27B        6.0530   -4.3270   -0.5570 hc        1 XFH      0.052700
     52 C27         5.3570   -3.8080    0.1470 c3        1 XFH     -0.149400
@<TRIPOS>BOND
     1    1    2 ar  
     2    1    7 ar  
     3    2    3 1   
     4    2    4 ar  
     5    3   26 1   
     6    3   27 1   
     7    4    5 ar  
     8    4   28 1   
     9    5    6 ar  
    10    5    8 1   
    11    6    7 ar  
    12    6   29 1   
    13    7    9 1   
    14    8   30 1   
    15    8   31 1   
    16    8   32 1   
    17    9   10 1   
    18    9   33 1   
    19    9   34 1   
    20   10   13 1   
    21   10   35 1   
    22   10   36 1   
    23   11   12 ar  
    24   11   16 ar  
    25   11   37 1   
    26   12   13 ar  
    27   12   38 1   
    28   13   14 ar  
    29   14   15 ar  
    30   14   39 1   
    31   15   16 ar  
    32   15   17 1   
    33   16   40 1   
    34   17   18 1   
    35   17   41 1   
    36   17   42 1   
    37   18   25 1   
    38   18   43 1   
    39   18   44 1   
    40   19   20 ar  
    41   19   25 ar  
    42   19   45 1   
    43   20   21 1   
    44   20   22 ar  
    45   21   46 1   
    46   21   47 1   
    47   22   23 ar  
    48   23   24 ar  
    49   23   52 1   
    50   24   25 ar  
    51   24   48 1   
    52   49   52 1   
    53   50   52 1   
    54   51   52 1   
@<TRIPOS>SUBSTRUCTURE
     1 XFH         1 TEMP              0 ****  ****    0 ROOT
