@<TRIPOS>MOLECULE
XFH
   52    49     1     0     0
SMALL
bcc


@<TRIPOS>ATOM
      1 N01         0.9990    0.6180    0.2730 n2        1 XFH     -0.179000
      2 C02         2.3010    0.7500    0.0950 c2        1 XFH      0.084000
      3 N02         2.8890    0.6840   -1.1750 n3        1 XFH     -0.318000
      4 C03         3.2170    1.0960    1.2230 c2        1 XFH     -0.215000
      5 C04         3.5300    0.2210    2.1920 c2        1 XFH     -0.072000
      6 C05         1.2730    0.9480    2.7050 c1        1 XFH      0.097000
      7 C06         0.5290    0.8150    1.5900 c2        1 XFH     -0.299000
      8 C07         4.4000    0.5500    3.3380 c3        1 XFH     -0.202000
      9 C08        -0.9700    0.8420    1.7690 c3        1 XFH     -0.076000
     10 C09        -1.5860    2.0370    1.0590 c3        1 XFH     -0.057000
     11 C11        -9.7660    0.9600    1.3770 c1        1 XFH     -0.224000
     12 C12        -4.1660    2.2480    1.5290 c1        1 XFH     -0.234000
     13 C13        -2.9920    2.1450    1.3220 c1        1 XFH     -0.159000
     14 C14        -5.5280   -0.2170   -0.6140 c1        1 XFH     -0.224000
     15 C15        -6.2050   -0.9850   -1.2350 c1        1 XFH     -0.175000
     16 C16        -8.7890    0.5690    0.8090 c1        1 XFH     -0.224000
     17 C17        -7.0090   -1.8990   -1.9910 c3        1 XFH     -0.055000
     18 C18        -8.0380   -2.6090   -1.1210 c3        1 XFH     -0.123000
     19 C21        -9.8480   -2.7470   -2.8150 c2        1 XFH     -0.173000
     20 C22       -10.1840   -3.0780   -4.1010 c2        1 XFH      0.058000
     21 N22       -11.2000   -2.3640   -4.7920 n3        1 XFH     -0.339000
     22 N23        -9.5300   -4.1780   -4.7320 n2        1 XFH     -0.097000
     23 C24        -9.9010   -4.7130   -5.7950 c1        1 XFH     -0.008000
     24 C25        -8.9270   -4.8060   -1.8170 c2        1 XFH     -0.189000
     25 C26        -8.9400   -3.4730   -1.9460 c2        1 XFH     -0.067000
     26 HN02        2.3190    0.3100   -1.9020 hn        1 XFH      0.200500
     27 HN0A        3.8200    0.3320   -1.1650 hn        1 XFH      0.200500
     28 H03         3.5980    2.1310    1.2120 ha        1 XFH      0.160000
     29 H05         3.1500   -0.8170    2.1710 ha        1 XFH      0.136000
     30 H07         3.7950    0.5210    4.2810 hc        1 XFH      0.096333
     31 H07A        5.2240   -0.2010    3.4230 hc        1 XFH      0.096333
     32 H07B        4.8530    1.5670    3.2420 hc        1 XFH      0.096333
     33 H08        -1.2080    0.8860    2.8650 hc        1 XFH      0.099000
     34 H08A       -1.4050   -0.1090    1.3630 hc        1 XFH      0.099000
     35 H09        -1.0720    2.9810    1.3950 hc        1 XFH      0.111500
     36 H09A       -1.4190    1.9430   -0.0510 hc        1 XFH      0.111500
     37 H11        -5.2040    2.3460    1.7200 ha        1 XFH      0.223000
     38 H12       -10.6330    1.3060    1.8810 ha        1 XFH      0.222500
     39 H14        -4.9210    0.4630   -0.0660 ha        1 XFH      0.231000
     40 H16        -7.9180    0.2210    0.3050 ha        1 XFH      0.222500
     41 H17        -7.5400   -1.3410   -2.8130 hc        1 XFH      0.104500
     42 H17A       -6.3450   -2.6630   -2.4840 hc        1 XFH      0.104500
     43 H18        -7.5080   -3.2270   -0.3500 hc        1 XFH      0.091500
     44 H18A       -8.6540   -1.8450   -0.5720 hc        1 XFH      0.091500
     45 H21       -10.2950   -1.8460   -2.3580 ha        1 XFH      0.133000
     46 HN22      -11.4240   -1.4940   -4.3570 hn        1 XFH      0.180000
     47 HN2A      -11.0350   -2.2610   -5.7700 hn        1 XFH      0.180000
     48 H25        -9.6000   -5.4660   -2.3770 ha        1 XFH      0.115500
     49 H27        -8.2370   -5.3160   -1.1330 ha        1 XFH      0.115500
     50 H27A       -9.7100   -5.1110   -7.8510 ha        1 XFH      0.152000
     51 H27B      -10.7650   -6.2990   -6.8680 ha        1 XFH      0.152000
     52 C27       -10.1400   -5.3970   -6.8830 c2        1 XFH     -0.258000
@<TRIPOS>BOND
     1    1    2 1   
     2    1    7 1   
     3    2    3 1   
     4    2    4 1   
     5    3   26 1   
     6    3   27 1   
     7    4    5 1   
     8    4   28 1   
     9    5    8 1   
    10    5   29 1   
    11    6    7 1   
    12    7    9 1   
    13    8   30 1   
    14    8   31 1   
    15    8   32 1   
    16    9   10 1   
    17    9   33 1   
    18    9   34 1   
    19   10   13 1   
    20   10   35 1   
    21   10   36 1   
    22   11   16 1   
    23   11   38 1   
    24   12   13 1   
    25   12   37 1   
    26   14   15 1   
    27   14   39 1   
    28   15   17 1   
    29   16   40 1   
    30   17   18 1   
    31   17   41 1   
    32   17   42 1   
    33   18   25 1   
    34   18   43 1   
    35   18   44 1   
    36   19   20 1   
    37   19   25 1   
    38   19   45 1   
    39   20   21 1   
    40   20   22 1   
    41   21   46 1   
    42   21   47 1   
    43   22   23 1   
    44   23   52 1   
    45   24   25 1   
    46   24   48 1   
    47   24   49 1   
    48   50   52 1   
    49   51   52 1   
@<TRIPOS>SUBSTRUCTURE
     1 XFH         1 TEMP              0 ****  ****    0 ROOT
