@<TRIPOS>MOLECULE
XFI
   89    91     1     0     0
SMALL
bcc


@<TRIPOS>ATOM
      1 C1          0.5870    0.6260   -0.0710 c3        1 XFI     -0.161100
      2 C2          1.8800   -0.1390   -0.3260 c3        1 XFI      0.065500
      3 N3          2.6500   -0.3800    0.9560 n4        1 XFI     -0.770000
      4 C4          2.2290   -1.6400    1.6500 c3        1 XFI      0.097800
      5 C5          2.8450   -1.7570    3.0690 c3        1 XFI      0.106100
      6 O6          2.4230   -0.6070    3.7800 oh        1 XFI     -0.610800
      7 C7          2.3350   -3.0530    3.7690 c3        1 XFI      0.119500
      8 C8          0.8320   -3.2940    3.5290 c3        1 XFI     -0.046100
      9 C9          0.2850   -4.4010    4.3570 ca        1 XFI     -0.207300
     10 C10        -0.5370   -4.1130    5.4570 ca        1 XFI     -0.128500
     11 C11        -1.1350   -5.1490    6.1720 ca        1 XFI     -0.108000
     12 C12        -0.9190   -6.4760    5.7970 ca        1 XFI     -0.072000
     13 C13        -0.0960   -6.7670    4.7060 ca        1 XFI     -0.108000
     14 C14         0.5020   -5.7340    3.9860 ca        1 XFI     -0.128500
     15 N15         2.6190   -3.0440    5.2480 n4        1 XFI     -0.685800
     16 C16         4.0600   -3.3460    5.6330 c         1 XFI      0.588700
     17 O17         4.8820   -3.1300    4.7480 o         1 XFI     -0.465100
     18 C18         4.2940   -3.8460    6.9870 ca        1 XFI     -0.196600
     19 C19         3.3400   -3.7650    8.0150 ca        1 XFI     -0.078000
     20 C20         3.6550   -4.2470    9.2810 ca        1 XFI     -0.098000
     21 C21         4.9050   -4.8090    9.5470 ca        1 XFI     -0.034000
     22 C22         5.8780   -4.8940    8.5290 ca        1 XFI      0.062600
     23 C23         5.5590   -4.4100    7.2440 ca        1 XFI     -0.046000
     24 N24         7.1860   -5.4270    8.8200 nh        1 XFI     -0.662000
     25 C25         7.2960   -6.8630    8.7060 ca        1 XFI     -0.051400
     26 C26         8.3810   -7.4250    7.9980 ca        1 XFI     -0.149500
     27 C27         8.5390   -8.8080    7.9500 ca        1 XFI     -0.097500
     28 C28         7.6220   -9.6480    8.5840 ca        1 XFI     -0.084000
     29 C29         6.5380   -9.0980    9.2690 ca        1 XFI     -0.097500
     30 C30         6.3660   -7.7160    9.3300 ca        1 XFI     -0.149500
     31 S31         8.3290   -4.8670   11.0520 s4        1 XFI      1.669500
     32 C32         9.1840   -6.1770   11.2940 c3        1 XFI     -0.601800
     33 O33         8.9100   -3.8490   10.3880 o         1 XFI     -0.404400
     34 O34         7.1220   -4.7770   11.6440 o         1 XFI     -0.404400
     35 C35         2.7640    0.6170   -1.3450 c         1 XFI      0.509100
     36 O36         3.9410    0.8790   -1.1250 o         1 XFI     -0.389100
     37 N37         2.1630    0.9940   -2.6420 n4        1 XFI     -0.668800
     38 C38         2.4970    2.4410   -3.0710 c3        1 XFI      0.139500
     39 C39         2.2680    2.5870   -4.5790 c3        1 XFI     -0.105400
     40 C40         2.6610    3.9980   -4.9920 c3        1 XFI     -0.078400
     41 C41         1.8860    5.0400   -4.2170 c3        1 XFI     -0.099400
     42 C42         2.0500    4.8540   -2.7240 c3        1 XFI     -0.078400
     43 C43         1.6540    3.4480   -2.2940 c3        1 XFI     -0.105400
     44 H11C        0.0530    0.2470    0.8400 hc        1 XFI      0.110700
     45 H12C       -0.1180    0.4770   -0.9310 hc        1 XFI      0.110700
     46 H13C        0.7710    1.7220    0.0630 hc        1 XFI      0.110700
     47 H2          1.6470   -1.1590   -0.7700 hx        1 XFI      0.149700
     48 H3          3.6620   -0.4150    0.7500 hn        1 XFI      0.480800
     49 H41C        2.5490   -2.5260    1.0310 hx        1 XFI      0.132700
     50 H42C        1.1020   -1.6080    1.7290 hx        1 XFI      0.132700
     51 H5          3.9710   -1.8140    3.0000 h1        1 XFI      0.105700
     52 H6          3.1820   -0.2350    4.2550 ho        1 XFI      0.454000
     53 H7          2.9190   -3.9230    3.3370 hx        1 XFI      0.128700
     54 H81C        0.7070   -3.5660    2.4450 hc        1 XFI      0.080700
     55 H82C        0.2670   -2.3430    3.7280 hc        1 XFI      0.080700
     56 H15         2.3520   -2.1290    5.6330 hn        1 XFI      0.481800
     57 H10        -0.7570   -3.0690    5.7290 ha        1 XFI      0.135500
     58 H14         1.1210   -5.9720    3.1080 ha        1 XFI      0.135500
     59 H11        -1.8030   -4.9180    7.0200 ha        1 XFI      0.174000
     60 H12        -1.4140   -7.2950    6.3490 ha        1 XFI      0.181000
     61 H13         0.0610   -7.8160    4.3990 ha        1 XFI      0.174000
     62 H19         2.3480   -3.3120    7.8650 ha        1 XFI      0.143000
     63 H23         6.2980   -4.4630    6.4240 ha        1 XFI      0.174000
     64 H20         2.9090   -4.1800   10.0950 ha        1 XFI      0.195000
     65 H21         5.1170   -5.1690   10.5740 ha        1 XFI      0.195000
     66 H26         9.1060   -6.7860    7.4680 ha        1 XFI      0.146500
     67 H30         5.4930   -7.3080    9.8630 ha        1 XFI      0.146500
     68 H27         9.3930   -9.2400    7.3990 ha        1 XFI      0.177500
     69 H28         7.7500  -10.7440    8.5370 ha        1 XFI      0.184000
     70 H29         5.8060   -9.7590    9.7650 ha        1 XFI      0.177500
     71 H321       10.3140   -6.0400   11.3270 h1        1 XFI      0.225367
     72 H322        8.9690   -6.7480   12.2550 h1        1 XFI      0.225367
     73 H323        9.0720   -7.0000   10.5080 h1        1 XFI      0.225367
     74 H37         2.5430    0.3720   -3.3770 hn        1 XFI      0.479800
     75 H38         3.5970    2.5840   -2.8380 hx        1 XFI      0.130700
     76 H391        1.1890    2.4160   -4.8320 hc        1 XFI      0.064950
     77 H392        2.8930    1.8520   -5.1520 hc        1 XFI      0.064950
     78 H431        0.5620    3.2970   -2.5060 hc        1 XFI      0.064950
     79 H432        1.8250    3.3350   -1.1920 hc        1 XFI      0.064950
     80 H401        3.7630    4.1450   -4.8430 hc        1 XFI      0.085450
     81 H402        2.4540    4.1120   -6.0920 hc        1 XFI      0.085450
     82 H411        0.7990    4.9930   -4.4920 hc        1 XFI      0.088200
     83 H412        2.2540    6.0640   -4.5040 hc        1 XFI      0.088200
     84 H421        1.3990    5.5890   -2.1770 hc        1 XFI      0.085450
     85 H422        3.1120    5.0560   -2.4250 hc        1 XFI      0.085450
     86 H32         2.4820    0.4120    1.6010 hn        1 XFI      0.480800
     87 H152        2.0030   -3.7630    5.6820 hn        1 XFI      0.481800
     88 H241        7.8480   -4.9960    8.1810 hn        1 XFI      0.406800
     89 H372        1.1420    0.8920   -2.6190 hn        1 XFI      0.479800
@<TRIPOS>BOND
     1    1    2 1   
     2    1   44 1   
     3    1   45 1   
     4    1   46 1   
     5    2    3 1   
     6    2   35 1   
     7    2   47 1   
     8    3    4 1   
     9    3   48 1   
    10    3   86 1   
    11    4    5 1   
    12    4   49 1   
    13    4   50 1   
    14    5    6 1   
    15    5    7 1   
    16    5   51 1   
    17    6   52 1   
    18    7    8 1   
    19    7   15 1   
    20    7   53 1   
    21    8    9 1   
    22    8   54 1   
    23    8   55 1   
    24    9   10 ar  
    25    9   14 ar  
    26   10   11 ar  
    27   10   57 1   
    28   11   12 ar  
    29   11   59 1   
    30   12   13 ar  
    31   12   60 1   
    32   13   14 ar  
    33   13   61 1   
    34   14   58 1   
    35   15   16 1   
    36   15   56 1   
    37   15   87 1   
    38   16   17 2   
    39   16   18 1   
    40   18   19 ar  
    41   18   23 ar  
    42   19   20 ar  
    43   19   62 1   
    44   20   21 ar  
    45   20   64 1   
    46   21   22 ar  
    47   21   65 1   
    48   22   23 ar  
    49   22   24 1   
    50   23   63 1   
    51   24   25 1   
    52   24   88 1   
    53   25   26 ar  
    54   25   30 ar  
    55   26   27 ar  
    56   26   66 1   
    57   27   28 ar  
    58   27   68 1   
    59   28   29 ar  
    60   28   69 1   
    61   29   30 ar  
    62   29   70 1   
    63   30   67 1   
    64   31   32 1   
    65   31   33 1   
    66   31   34 1   
    67   32   71 1   
    68   32   72 1   
    69   32   73 1   
    70   35   36 2   
    71   35   37 1   
    72   37   38 1   
    73   37   74 1   
    74   37   89 1   
    75   38   39 1   
    76   38   43 1   
    77   38   75 1   
    78   39   40 1   
    79   39   76 1   
    80   39   77 1   
    81   40   41 1   
    82   40   80 1   
    83   40   81 1   
    84   41   42 1   
    85   41   82 1   
    86   41   83 1   
    87   42   43 1   
    88   42   84 1   
    89   42   85 1   
    90   43   78 1   
    91   43   79 1   
@<TRIPOS>SUBSTRUCTURE
     1 XFI         1 TEMP              0 ****  ****    0 ROOT
