@<TRIPOS>MOLECULE
XFI
   85    88     1     0     0
SMALL
bcc


@<TRIPOS>ATOM
      1 C1         -7.6810   -1.5650    2.2110 c3        1 XFI     -0.092100
      2 C2         -6.2090   -1.7680    1.8470 c3        1 XFI      0.114500
      3 N3         -5.4480   -2.2980    2.9640 n3        1 XFI     -0.806200
      4 C4         -4.1250   -2.7880    2.6500 c3        1 XFI      0.136800
      5 C5         -2.9750   -1.7790    2.8410 c3        1 XFI      0.064100
      6 O6         -2.6960   -1.5690    4.2120 oh        1 XFI     -0.590800
      7 C7         -1.7080   -2.2320    2.0620 c3        1 XFI      0.075700
      8 C8         -1.0950   -3.4750    2.7330 c3        1 XFI     -0.049100
      9 C9         -0.0250   -4.1040    1.9150 ca        1 XFI     -0.074300
     10 C10         1.2980   -4.1210    2.3710 ca        1 XFI     -0.121500
     11 C11         2.2960   -4.7320    1.6130 ca        1 XFI     -0.126500
     12 C12         1.9820   -5.3300    0.3930 ca        1 XFI     -0.130000
     13 C13         0.6650   -5.3160   -0.0670 ca        1 XFI     -0.126500
     14 C14        -0.3340   -4.7070    0.6900 ca        1 XFI     -0.121500
     15 N15        -0.7520   -1.1570    1.9370 n         1 XFI     -0.547900
     16 C16        -0.6650   -0.3870    0.7930 c         1 XFI      0.675700
     17 O17        -1.2860   -0.6890   -0.2470 o         1 XFI     -0.611100
     18 C18         0.2520    0.7910    0.8420 ca        1 XFI     -0.127600
     19 C19         0.2580    1.6650    1.9320 ca        1 XFI     -0.111000
     20 C20         1.1150    2.7630    1.9230 ca        1 XFI     -0.121000
     21 C21         1.9710    2.9950    0.8490 ca        1 XFI     -0.120000
     22 C22         1.9600    2.1260   -0.2640 ca        1 XFI      0.129600
     23 C23         1.0830    1.0190   -0.2560 ca        1 XFI     -0.086000
     24 N24         2.8120    2.3530   -1.3750 nh        1 XFI     -0.561300
     25 C25         3.4580    1.2090   -1.9170 ca        1 XFI      0.112600
     26 C26         3.2660    0.8520   -3.2700 ca        1 XFI     -0.138000
     27 C27         3.9280   -0.2530   -3.7980 ca        1 XFI     -0.119000
     28 C28         4.7700   -1.0260   -3.0000 ca        1 XFI     -0.127000
     29 C29         4.9520   -0.6890   -1.6600 ca        1 XFI     -0.119000
     30 C30         4.3060    0.4170   -1.1140 ca        1 XFI     -0.138000
     31 S31         2.9530    3.8230   -2.1190 s6        1 XFI      1.465900
     32 C32         4.6340    3.9610   -2.3350 c3        1 XFI     -0.362300
     33 O33         2.3540    3.7950   -3.3890 o         1 XFI     -0.647300
     34 O34         2.5400    4.8570   -1.2590 o         1 XFI     -0.647300
     35 C35        -5.6970   -0.4000    1.3230 c         1 XFI      0.617100
     36 O36        -5.2280    0.4450    2.1130 o         1 XFI     -0.624100
     37 N37        -5.8140   -0.1560   -0.0230 n         1 XFI     -0.558900
     38 C38        -5.3380    1.0580   -0.6540 c3        1 XFI      0.095700
     39 C39        -4.1750    0.7920   -1.6270 c3        1 XFI     -0.094400
     40 C40        -3.6710    2.0960   -2.2090 c3        1 XFI     -0.074400
     41 C41        -4.7740    2.8580   -2.9110 c3        1 XFI     -0.080400
     42 C42        -5.9480    3.0920   -1.9840 c3        1 XFI     -0.074400
     43 C43        -6.4640    1.7930   -1.4040 c3        1 XFI     -0.094400
     44 H11C       -7.7890   -0.7810    2.9990 hc        1 XFI      0.050033
     45 H12C       -8.2410   -1.2410    1.3020 hc        1 XFI      0.050033
     46 H13C       -8.1240   -2.5180    2.5880 hc        1 XFI      0.050033
     47 H2         -6.1530   -2.5340    1.0150 h1        1 XFI      0.061700
     48 H3         -5.4080   -1.6240    3.7090 hn        1 XFI      0.391800
     49 H41C       -3.9520   -3.6620    3.3440 h1        1 XFI      0.054200
     50 H42C       -4.0950   -3.1780    1.5950 h1        1 XFI      0.054200
     51 H5         -3.2960   -0.7550    2.4770 h1        1 XFI      0.115700
     52 H6         -2.5610   -2.4330    4.6210 ho        1 XFI      0.395000
     53 H7         -2.0350   -2.5180    1.0160 h1        1 XFI      0.093700
     54 H81C       -0.6950   -3.2010    3.7460 hc        1 XFI      0.052700
     55 H82C       -1.9230   -4.2200    2.8870 hc        1 XFI      0.052700
     56 H15        -0.3580   -0.8160    2.7820 hn        1 XFI      0.315500
     57 H10         1.5540   -3.6490    3.3320 ha        1 XFI      0.130000
     58 H14        -1.3710   -4.6950    0.3220 ha        1 XFI      0.130000
     59 H11         3.3330   -4.7410    1.9790 ha        1 XFI      0.131000
     60 H12         2.7690   -5.8110   -0.2040 ha        1 XFI      0.130000
     61 H13         0.4140   -5.7840   -1.0300 ha        1 XFI      0.131000
     62 H19        -0.4190    1.5070    2.7860 ha        1 XFI      0.145000
     63 H23         1.0420    0.3260   -1.1140 ha        1 XFI      0.166000
     64 H20         1.1170    3.4620    2.7730 ha        1 XFI      0.144000
     65 H21         2.6230    3.8840    0.8650 ha        1 XFI      0.161000
     66 H26         2.5960    1.4480   -3.9160 ha        1 XFI      0.156500
     67 H30         4.4500    0.6630   -0.0510 ha        1 XFI      0.156500
     68 H27         3.7740   -0.5190   -4.8550 ha        1 XFI      0.139000
     69 H28         5.2830   -1.9010   -3.4250 ha        1 XFI      0.137000
     70 H29         5.6090   -1.3000   -1.0230 ha        1 XFI      0.139000
     71 H321        5.0970    3.0960   -2.8690 h1        1 XFI      0.119367
     72 H322        4.8680    4.8680   -2.9500 h1        1 XFI      0.119367
     73 H323        5.1930    4.0820   -1.3750 h1        1 XFI      0.119367
     74 H37        -6.1560   -0.8680   -0.6210 hn        1 XFI      0.305500
     75 H38        -4.9600    1.7410    0.1680 h1        1 XFI      0.089700
     76 H391       -3.3340    0.2750   -1.0930 hc        1 XFI      0.047950
     77 H392       -4.5200    0.1200   -2.4550 hc        1 XFI      0.047950
     78 H431       -6.8590    1.1430   -2.2280 hc        1 XFI      0.047950
     79 H432       -7.3120    2.0080   -0.7030 hc        1 XFI      0.047950
     80 H401       -3.2400    2.7290   -1.3890 hc        1 XFI      0.044200
     81 H402       -2.8430    1.8780   -2.9340 hc        1 XFI      0.044200
     82 H411       -4.3800    3.8430   -3.2740 hc        1 XFI      0.039700
     83 H412       -5.1160    2.2810   -3.8100 hc        1 XFI      0.039700
     84 H421       -5.6360    3.7760   -1.1510 hc        1 XFI      0.044200
     85 H422       -6.7760    3.6010   -2.5440 hc        1 XFI      0.044200
@<TRIPOS>BOND
     1    1    2 1   
     2    1   44 1   
     3    1   45 1   
     4    1   46 1   
     5    2    3 1   
     6    2   35 1   
     7    2   47 1   
     8    3    4 1   
     9    3   48 1   
    10    4    5 1   
    11    4   49 1   
    12    4   50 1   
    13    5    6 1   
    14    5    7 1   
    15    5   51 1   
    16    6   52 1   
    17    7    8 1   
    18    7   15 1   
    19    7   53 1   
    20    8    9 1   
    21    8   54 1   
    22    8   55 1   
    23    9   10 ar  
    24    9   14 ar  
    25   10   11 ar  
    26   10   57 1   
    27   11   12 ar  
    28   11   59 1   
    29   12   13 ar  
    30   12   60 1   
    31   13   14 ar  
    32   13   61 1   
    33   14   58 1   
    34   15   16 1   
    35   15   56 1   
    36   16   17 2   
    37   16   18 1   
    38   18   19 ar  
    39   18   23 ar  
    40   19   20 ar  
    41   19   62 1   
    42   20   21 ar  
    43   20   64 1   
    44   21   22 ar  
    45   21   65 1   
    46   22   23 ar  
    47   22   24 1   
    48   23   63 1   
    49   24   25 1   
    50   24   31 1   
    51   25   26 ar  
    52   25   30 ar  
    53   26   27 ar  
    54   26   66 1   
    55   27   28 ar  
    56   27   68 1   
    57   28   29 ar  
    58   28   69 1   
    59   29   30 ar  
    60   29   70 1   
    61   30   67 1   
    62   31   32 1   
    63   31   33 2   
    64   31   34 2   
    65   32   71 1   
    66   32   72 1   
    67   32   73 1   
    68   35   36 2   
    69   35   37 1   
    70   37   38 1   
    71   37   74 1   
    72   38   39 1   
    73   38   43 1   
    74   38   75 1   
    75   39   40 1   
    76   39   76 1   
    77   39   77 1   
    78   40   41 1   
    79   40   80 1   
    80   40   81 1   
    81   41   42 1   
    82   41   82 1   
    83   41   83 1   
    84   42   43 1   
    85   42   84 1   
    86   42   85 1   
    87   43   78 1   
    88   43   79 1   
@<TRIPOS>SUBSTRUCTURE
     1 XFI         1 TEMP              0 ****  ****    0 ROOT
