@<TRIPOS>MOLECULE
XFI
   88    91     1     0     0
SMALL
bcc


@<TRIPOS>ATOM
      1 C1          0.7700   -0.0930   -0.1800 c3        1 XFI     -0.160100
      2 C2          2.1440   -0.7080    0.0620 c3        1 XFI      0.066500
      3 N3          2.4670   -0.7970    1.5350 ny        1 XFI     -0.768000
      4 C4          1.9590   -2.0620    2.1610 c3        1 XFI      0.109800
      5 C5          2.0580   -2.0140    3.7080 c3        1 XFI      0.115100
      6 O6          1.4170   -0.8110    4.0860 oh        1 XFI     -0.615800
      7 C7          1.3590   -3.2770    4.2810 c3        1 XFI      0.098500
      8 C8         -0.1750   -3.1340    4.2290 c3        1 XFI     -0.041100
      9 C9         -0.8790   -4.1990    4.9910 ca        1 XFI     -0.197300
     10 C10        -1.8430   -3.8500    5.9440 ca        1 XFI     -0.132000
     11 C11        -2.5620   -4.8450    6.6090 ca        1 XFI     -0.105500
     12 C12        -2.3240   -6.1900    6.3250 ca        1 XFI     -0.078000
     13 C13        -1.3630   -6.5420    5.3730 ca        1 XFI     -0.105500
     14 C14        -0.6460   -5.5530    4.7070 ca        1 XFI     -0.132000
     15 N15         1.8130   -3.6080    5.6700 ny        1 XFI     -0.688800
     16 C16         3.2760   -4.0570    5.7840 c         1 XFI      0.595700
     17 O17         3.8660   -4.1050    4.7090 o         1 XFI     -0.496100
     18 C18         3.7580   -4.3190    7.1250 ca        1 XFI     -0.214600
     19 C19         2.9430   -4.2880    8.2730 ca        1 XFI     -0.113000
     20 C20         3.5170   -4.4970    9.5180 ca        1 XFI     -0.099000
     21 C21         4.8860   -4.7390    9.6540 ca        1 XFI     -0.035000
     22 C22         5.7230   -4.7880    8.5120 ca        1 XFI      0.175600
     23 C23         5.1350   -4.5930    7.2430 ca        1 XFI     -0.055000
     24 N24         7.1070   -4.9940    8.6340 nh        1 XFI     -0.547300
     25 C25         7.7120   -5.8990    7.7180 ca        1 XFI      0.068600
     26 C26         8.6640   -5.4340    6.7830 ca        1 XFI     -0.140000
     27 C27         9.2970   -6.3350    5.9320 ca        1 XFI     -0.116000
     28 C28         8.9880   -7.6950    5.9790 ca        1 XFI     -0.107000
     29 C29         8.0380   -8.1570    6.8880 ca        1 XFI     -0.116000
     30 C30         7.3990   -7.2730    7.7550 ca        1 XFI     -0.140000
     31 S31         8.0640   -4.0430    9.6530 s6        1 XFI      1.464900
     32 C32         9.1850   -5.1250   10.2580 c3        1 XFI     -0.390300
     33 O33         8.6860   -3.0670    8.8660 o         1 XFI     -0.640300
     34 O34         7.2170   -3.5830   10.6760 o         1 XFI     -0.640300
     35 C35         3.2400    0.0940   -0.6740 c         1 XFI      0.508100
     36 O36         4.2670    0.4750   -0.1250 o         1 XFI     -0.385100
     37 N37         3.0450    0.3720   -2.1150 ny        1 XFI     -0.667800
     38 C38         3.3720    1.8290   -2.4980 c3        1 XFI      0.136500
     39 C39         3.5740    1.9240   -4.0140 c3        1 XFI     -0.104400
     40 C40         3.9570    3.3540   -4.3620 c3        1 XFI     -0.078400
     41 C41         2.9140    4.3410   -3.8860 c3        1 XFI     -0.098400
     42 C42         2.6580    4.2020   -2.4010 c3        1 XFI     -0.078400
     43 C43         2.2680    2.7770   -2.0370 c3        1 XFI     -0.104400
     44 H11C        0.0110   -0.4750    0.5530 hc        1 XFI      0.108700
     45 H12C        0.7970    1.0230   -0.1020 hc        1 XFI      0.108700
     46 H13C        0.3980   -0.3830   -1.1970 hc        1 XFI      0.108700
     47 H2          2.1710   -1.7680   -0.3490 hx        1 XFI      0.149700
     48 H3          2.0280    0.0020    2.0290 hn        1 XFI      0.485800
     49 H41C        2.5700   -2.9300    1.7790 hx        1 XFI      0.130200
     50 H42C        0.8780   -2.1880    1.8600 hx        1 XFI      0.130200
     51 H5          3.1460   -1.9970    4.0130 h1        1 XFI      0.095700
     52 H6          1.5790   -0.6470    5.0260 ho        1 XFI      0.461000
     53 H7          1.6700   -4.1620    3.6420 hx        1 XFI      0.125700
     54 H81C       -0.4780   -3.1960    3.1480 hc        1 XFI      0.080200
     55 H82C       -0.4720   -2.1180    4.6060 hc        1 XFI      0.080200
     56 H15         1.2130   -4.3870    6.0070 hn        1 XFI      0.474800
     57 H10        -2.0580   -2.7920    6.1580 ha        1 XFI      0.133000
     58 H14         0.0780   -5.8390    3.9290 ha        1 XFI      0.133000
     59 H11        -3.3300   -4.5640    7.3490 ha        1 XFI      0.171000
     60 H12        -2.9020   -6.9750    6.8430 ha        1 XFI      0.177000
     61 H13        -1.1860   -7.6050    5.1390 ha        1 XFI      0.171000
     62 H19         1.8580   -4.1180    8.2230 ha        1 XFI      0.125000
     63 H23         5.7610   -4.6490    6.3330 ha        1 XFI      0.176000
     64 H20         2.8860   -4.4760   10.4250 ha        1 XFI      0.182000
     65 H21         5.3120   -4.8620   10.6710 ha        1 XFI      0.209000
     66 H26         8.9350   -4.3640    6.7440 ha        1 XFI      0.154000
     67 H30         6.6600   -7.6590    8.4750 ha        1 XFI      0.154000
     68 H27        10.0580   -5.9680    5.2230 ha        1 XFI      0.155500
     69 H28         9.5020   -8.4020    5.3090 ha        1 XFI      0.158000
     70 H29         7.7980   -9.2320    6.9360 ha        1 XFI      0.155500
     71 H321       10.0350   -4.5820   10.7590 h1        1 XFI      0.146700
     72 H322        8.7750   -5.8150   11.0410 h1        1 XFI      0.146700
     73 H323        9.6750   -5.7850    9.4960 h1        1 XFI      0.146700
     74 H37         2.0800    0.1710   -2.4010 hn        1 XFI      0.478300
     75 H38         4.3440    2.0750   -1.9700 hx        1 XFI      0.131700
     76 H391        4.3920    1.2340   -4.3520 hc        1 XFI      0.064200
     77 H392        2.6290    1.6530   -4.5540 hc        1 XFI      0.064200
     78 H431        2.1270    2.7040   -0.9270 hc        1 XFI      0.064200
     79 H432        1.2960    2.5250   -2.5390 hc        1 XFI      0.064200
     80 H401        4.0660    3.4260   -5.4790 hc        1 XFI      0.084200
     81 H402        4.9550    3.6010   -3.9130 hc        1 XFI      0.084200
     82 H411        1.9580    4.1910   -4.4550 hc        1 XFI      0.085200
     83 H412        3.2670    5.3860   -4.1040 hc        1 XFI      0.085200
     84 H421        3.5730    4.5020   -1.8250 hc        1 XFI      0.084200
     85 H422        1.8250    4.8890   -2.0940 hc        1 XFI      0.084200
     86 H32         3.4880   -0.7330    1.6760 hn        1 XFI      0.485800
     87 H152        1.6600   -2.8100    6.2930 hn        1 XFI      0.474800
     88 H372        3.6860   -0.2320   -2.6580 hn        1 XFI      0.478300
@<TRIPOS>BOND
     1    1    2 1   
     2    1   44 1   
     3    1   45 1   
     4    1   46 1   
     5    2    3 1   
     6    2   35 1   
     7    2   47 1   
     8    3    4 1   
     9    3   48 1   
    10    3   86 1   
    11    4    5 1   
    12    4   49 1   
    13    4   50 1   
    14    5    6 1   
    15    5    7 1   
    16    5   51 1   
    17    6   52 1   
    18    7    8 1   
    19    7   15 1   
    20    7   53 1   
    21    8    9 1   
    22    8   54 1   
    23    8   55 1   
    24    9   10 ar  
    25    9   14 ar  
    26   10   11 ar  
    27   10   57 1   
    28   11   12 ar  
    29   11   59 1   
    30   12   13 ar  
    31   12   60 1   
    32   13   14 ar  
    33   13   61 1   
    34   14   58 1   
    35   15   16 1   
    36   15   56 1   
    37   15   87 1   
    38   16   17 2   
    39   16   18 1   
    40   18   19 ar  
    41   18   23 ar  
    42   19   20 ar  
    43   19   62 1   
    44   20   21 ar  
    45   20   64 1   
    46   21   22 ar  
    47   21   65 1   
    48   22   23 ar  
    49   22   24 1   
    50   23   63 1   
    51   24   25 1   
    52   24   31 1   
    53   25   26 ar  
    54   25   30 ar  
    55   26   27 ar  
    56   26   66 1   
    57   27   28 ar  
    58   27   68 1   
    59   28   29 ar  
    60   28   69 1   
    61   29   30 ar  
    62   29   70 1   
    63   30   67 1   
    64   31   32 1   
    65   31   33 2   
    66   31   34 2   
    67   32   71 1   
    68   32   72 1   
    69   32   73 1   
    70   35   36 2   
    71   35   37 1   
    72   37   38 1   
    73   37   74 1   
    74   37   88 1   
    75   38   39 1   
    76   38   43 1   
    77   38   75 1   
    78   39   40 1   
    79   39   76 1   
    80   39   77 1   
    81   40   41 1   
    82   40   80 1   
    83   40   81 1   
    84   41   42 1   
    85   41   82 1   
    86   41   83 1   
    87   42   43 1   
    88   42   84 1   
    89   42   85 1   
    90   43   78 1   
    91   43   79 1   
@<TRIPOS>SUBSTRUCTURE
     1 XFI         1 TEMP              0 ****  ****    0 ROOT
