@<TRIPOS>MOLECULE
XFI
   85    81     1     0     0
SMALL
bcc


@<TRIPOS>ATOM
      1 C1         -3.9200    0.7300   -3.6660 c3        1 XFI     -0.237000
      2 C2         -2.6770    0.7280   -2.8640 c3        1 XFI     -0.044000
      3 N3         -3.0030    0.6880   -1.4680 n3        1 XFI     -0.306000
      4 C4         -2.9050   -0.6540   -0.9950 c3        1 XFI     -0.104000
      5 C5         -2.8790   -0.6570    0.5260 c3        1 XFI      0.001000
      6 O6         -4.1180   -0.2020    1.0180 oh        1 XFI     -0.336000
      7 C7         -2.6270   -2.0630    1.0240 c3        1 XFI      0.039000
      8 C8         -3.9760   -2.7700    1.2660 c3        1 XFI     -0.133000
      9 C9         -3.8760   -4.2210    0.8270 c2        1 XFI     -0.069000
     10 C10        -3.8600   -5.2410    1.7770 c1        1 XFI     -0.131000
     11 C11        -3.8660   -6.5920    1.3600 c1        1 XFI     -0.126000
     12 C12        -3.8890   -6.8980    0.0200 c1        1 XFI     -0.126000
     13 C13        -3.9050   -5.8670   -0.9380 c1        1 XFI     -0.125000
     14 C14        -3.8990   -4.5360   -0.5310 c2        1 XFI     -0.123000
     15 N15        -1.9130   -2.0090    2.2180 n         1 XFI     -0.366000
     16 C16        -0.4910   -2.1170    2.2020 c2        1 XFI      0.347000
     17 O17         0.0650   -2.7340    1.3020 o         1 XFI     -0.362000
     18 C18         0.3820   -1.3660    3.3130 c2        1 XFI     -0.107000
     19 C19         0.0500   -1.4970    4.6720 c2        1 XFI     -0.105000
     20 C20         0.8760   -0.9280    5.6580 c1        1 XFI     -0.130000
     21 C21         2.0380   -0.2240    5.2830 c1        1 XFI     -0.120000
     22 C22         2.3670   -0.0930    3.9370 c1        1 XFI      0.044000
     23 C23         1.5280   -0.6720    2.9410 c1        1 XFI     -0.087000
     24 N24         3.6060    0.5340    3.5590 n3        1 XFI     -0.744000
     25 C25         4.8320   -0.1040    3.8430 c2        1 XFI      0.039000
     26 C26         5.5280   -0.7440    2.8310 c2        1 XFI     -0.099000
     27 C27         6.7850   -1.3200    3.0970 c1        1 XFI     -0.121000
     28 C28         7.3270   -1.2430    4.3840 c1        1 XFI     -0.126000
     29 C29         6.6210   -0.5970    5.4010 c1        1 XFI     -0.126000
     30 C30         5.3820   -0.0290    5.1360 c1        1 XFI     -0.137000
     31 S31         3.5960    1.9480    2.6480 s4        1 XFI      2.032800
     32 C32         3.8970    3.3660    3.7000 c2        1 XFI     -0.942000
     33 O33         4.5400    1.8830    1.5890 o         1 XFI     -0.529400
     34 O34         2.3740    2.0910    1.9200 o         1 XFI     -0.529400
     35 C35        -1.8680    2.0080   -3.1640 c2        1 XFI      0.302000
     36 O36        -1.8550    2.9080   -2.3730 o         1 XFI     -0.377000
     37 N37        -1.0990    2.0960   -4.3510 n         1 XFI     -0.361000
     38 C38        -0.2970    3.2700   -4.6090 c3        1 XFI      0.019000
     39 C39         1.1280    2.8340   -4.9330 c3        1 XFI     -0.169500
     40 C40         2.0040    3.9990   -5.4060 c3        1 XFI     -0.153500
     41 C41         1.3680    4.7860   -6.5410 c3        1 XFI     -0.158000
     42 C42        -0.0520    5.2260   -6.2210 c3        1 XFI     -0.153500
     43 C43        -0.9350    4.0610   -5.7480 c3        1 XFI     -0.169500
     44 H11C       -3.7290    0.3820   -4.5690 hc        1 XFI      0.090000
     45 H12C       -4.2700    1.6630   -3.7360 hc        1 XFI      0.090000
     46 H13C       -4.5740    0.1740   -3.2420 hc        1 XFI      0.090000
     47 H2         -2.1180   -0.0970   -3.1060 h1        1 XFI      0.114000
     48 H3         -3.8740    1.0000   -1.3410 hn        1 XFI      0.159000
     49 H41C       -3.6680   -1.1570   -1.3030 h1        1 XFI      0.085000
     50 H42C       -2.0670   -1.0710   -1.3430 h1        1 XFI      0.085000
     51 H5         -2.1790   -0.0780    0.8370 h1        1 XFI      0.106000
     52 H6         -3.9800    0.4800    1.6190 ho        1 XFI      0.207000
     53 H7         -2.1310   -2.5430    0.3790 h1        1 XFI      0.126000
     54 H81C       -4.6880   -2.3150    0.7410 hc        1 XFI      0.105000
     55 H82C       -4.1900   -2.7310    2.1890 hc        1 XFI      0.105000
     56 H15        -2.3560   -1.8310    3.0130 hn        1 XFI      0.233000
     57 H10        -3.8430   -5.0220    2.7380 ha        1 XFI      0.130000
     58 H14        -3.9070   -3.8680   -1.1550 ha        1 XFI      0.134000
     59 H11        -3.8540   -7.2950    2.0110 ha        1 XFI      0.134000
     60 H12        -3.8940   -7.8560   -0.2730 ha        1 XFI      0.134000
     61 H13        -3.9190   -6.0810   -1.8670 ha        1 XFI      0.133000
     62 H19        -0.7140   -1.9580    4.9180 ha        1 XFI      0.149000
     63 H23         1.7620   -0.5770    1.9740 ha        1 XFI      0.181000
     64 H20         0.6360   -1.0230    6.6290 ha        1 XFI      0.140000
     65 H21         2.6060    0.1690    5.9610 ha        1 XFI      0.143000
     66 H26         5.1500   -0.7950    1.9410 ha        1 XFI      0.150000
     67 H30         4.8970    0.4170    5.8420 ha        1 XFI      0.131000
     68 H27         7.2840   -1.7780    2.3770 ha        1 XFI      0.141000
     69 H28         8.2080   -1.6460    4.5750 ha        1 XFI      0.134000
     70 H29         7.0120   -0.5410    6.3330 ha        1 XFI      0.134000
     71 H321        3.4350    4.1520    3.3310 ha        1 XFI      0.154667
     72 H322        3.5550    3.1790    4.6100 ha        1 XFI      0.154667
     73 H323        4.8780    3.5480    3.7430 ha        1 XFI      0.154667
     74 H37        -1.1650    1.4550   -4.9740 hn        1 XFI      0.233000
     75 H38        -0.2830    3.8350   -3.7930 h1        1 XFI      0.127000
     76 H391        1.0990    2.1580   -5.6340 hc        1 XFI      0.084250
     77 H392        1.5470    2.4270   -4.1010 hc        1 XFI      0.084250
     78 H431       -1.8080    4.4200   -5.4440 hc        1 XFI      0.084250
     79 H432       -1.0880    3.4540   -6.5060 hc        1 XFI      0.084250
     80 H401        2.8840    3.6400   -5.7130 hc        1 XFI      0.082000
     81 H402        2.1520    4.6010   -4.6590 hc        1 XFI      0.082000
     82 H411        1.9310    5.6020   -6.7290 hc        1 XFI      0.080000
     83 H412        1.3490    4.2220   -7.3460 hc        1 XFI      0.080000
     84 H421       -0.4510    5.6280   -7.0270 hc        1 XFI      0.082000
     85 H422       -0.0200    5.8770   -5.5410 hc        1 XFI      0.082000
@<TRIPOS>BOND
     1    1    2 1   
     2    1   44 1   
     3    1   45 1   
     4    1   46 1   
     5    2    3 1   
     6    2   35 1   
     7    2   47 1   
     8    3    4 1   
     9    3   48 1   
    10    4    5 1   
    11    4   49 1   
    12    4   50 1   
    13    5    6 1   
    14    5    7 1   
    15    5   51 1   
    16    6   52 1   
    17    7    8 1   
    18    7   15 1   
    19    7   53 1   
    20    8    9 1   
    21    8   54 1   
    22    8   55 1   
    23    9   10 1   
    24    9   14 1   
    25   10   57 1   
    26   11   12 1   
    27   11   59 1   
    28   12   60 1   
    29   13   14 1   
    30   13   61 1   
    31   14   58 1   
    32   15   16 1   
    33   15   56 1   
    34   16   17 1   
    35   16   18 1   
    36   18   19 1   
    37   18   23 1   
    38   19   20 1   
    39   19   62 1   
    40   20   64 1   
    41   21   22 1   
    42   21   65 1   
    43   22   24 1   
    44   23   63 1   
    45   24   25 1   
    46   24   31 1   
    47   25   26 1   
    48   25   30 1   
    49   26   27 1   
    50   26   66 1   
    51   27   68 1   
    52   28   29 1   
    53   28   69 1   
    54   29   70 1   
    55   30   67 1   
    56   31   33 1   
    57   31   34 1   
    58   32   71 1   
    59   32   72 1   
    60   32   73 1   
    61   35   36 1   
    62   35   37 1   
    63   37   38 1   
    64   37   74 1   
    65   38   39 1   
    66   38   43 1   
    67   38   75 1   
    68   39   40 1   
    69   39   76 1   
    70   39   77 1   
    71   40   41 1   
    72   40   80 1   
    73   40   81 1   
    74   41   42 1   
    75   41   82 1   
    76   41   83 1   
    77   42   43 1   
    78   42   84 1   
    79   42   85 1   
    80   43   78 1   
    81   43   79 1   
@<TRIPOS>SUBSTRUCTURE
     1 XFI         1 TEMP              0 ****  ****    0 ROOT
