@<TRIPOS>MOLECULE
XFI
   88    91     1     0     0
SMALL
bcc


@<TRIPOS>ATOM
      1 C1          0.7600   -0.0690   -0.1580 c3        1 XFI     -0.160100
      2 C2          2.1330   -0.6900    0.0750 c3        1 XFI      0.066500
      3 N3          2.4660   -0.7780    1.5460 n4        1 XFI     -0.768000
      4 C4          1.9560   -2.0390    2.1770 c3        1 XFI      0.109800
      5 C5          2.0660   -1.9890    3.7240 c3        1 XFI      0.115100
      6 O6          1.4390   -0.7800    4.1040 oh        1 XFI     -0.615800
      7 C7          1.3610   -3.2450    4.3040 c3        1 XFI      0.098500
      8 C8         -0.1720   -3.0870    4.2670 c3        1 XFI     -0.041100
      9 C9         -0.8790   -4.1460    5.0340 ca        1 XFI     -0.197300
     10 C10        -1.8310   -3.7910    5.9970 ca        1 XFI     -0.132000
     11 C11        -2.5530   -4.7790    6.6660 ca        1 XFI     -0.105500
     12 C12        -2.3300   -6.1260    6.3790 ca        1 XFI     -0.078000
     13 C13        -1.3810   -6.4860    5.4180 ca        1 XFI     -0.105500
     14 C14        -0.6600   -5.5020    4.7460 ca        1 XFI     -0.132000
     15 N15         1.8250   -3.5800    5.6880 n4        1 XFI     -0.688800
     16 C16         3.2840   -4.0460    5.7880 c         1 XFI      0.595700
     17 O17         3.8640   -4.0970    4.7070 o         1 XFI     -0.497100
     18 C18         3.7760   -4.3180    7.1220 ca        1 XFI     -0.214600
     19 C19         2.9740   -4.2750    8.2790 ca        1 XFI     -0.113000
     20 C20         3.5570   -4.4950    9.5180 ca        1 XFI     -0.099000
     21 C21         4.9240   -4.7600    9.6390 ca        1 XFI     -0.035000
     22 C22         5.7480   -4.8210    8.4890 ca        1 XFI      0.175600
     23 C23         5.1490   -4.6140    7.2260 ca        1 XFI     -0.055000
     24 N24         7.1290   -5.0500    8.5960 nh        1 XFI     -0.547300
     25 C25         7.7100   -5.9640    7.6710 ca        1 XFI      0.068600
     26 C26         8.6590   -5.5130    6.7280 ca        1 XFI     -0.139500
     27 C27         9.2680   -6.4230    5.8680 ca        1 XFI     -0.116000
     28 C28         8.9360   -7.7770    5.9160 ca        1 XFI     -0.107000
     29 C29         7.9870   -8.2260    6.8340 ca        1 XFI     -0.116000
     30 C30         7.3720   -7.3320    7.7090 ca        1 XFI     -0.139500
     31 S31         8.1130   -4.1180    9.6070 s6        1 XFI      1.464900
     32 C32         9.2210   -5.2210   10.1980 c3        1 XFI     -0.390300
     33 O33         8.7430   -3.1510    8.8140 o         1 XFI     -0.640300
     34 O34         7.2840   -3.6450   10.6390 o         1 XFI     -0.640300
     35 C35         3.2270    0.1070   -0.6700 c         1 XFI      0.508100
     36 O36         4.2590    0.4850   -0.1290 o         1 XFI     -0.385100
     37 N37         3.0230    0.3820   -2.1110 n4        1 XFI     -0.667800
     38 C38         3.3530    1.8370   -2.4990 c3        1 XFI      0.136500
     39 C39         3.5460    1.9280   -4.0160 c3        1 XFI     -0.104400
     40 C40         3.9320    3.3560   -4.3710 c3        1 XFI     -0.078400
     41 C41         2.8950    4.3470   -3.8910 c3        1 XFI     -0.098400
     42 C42         2.6480    4.2130   -2.4040 c3        1 XFI     -0.078400
     43 C43         2.2550    2.7900   -2.0340 c3        1 XFI     -0.104400
     44 H11C        0.3790   -0.3580   -1.1710 hc        1 XFI      0.109033
     45 H12C        0.0050   -0.4470    0.5810 hc        1 XFI      0.109033
     46 H13C        0.7920    1.0480   -0.0810 hc        1 XFI      0.109033
     47 H2          2.1520   -1.7510   -0.3350 hx        1 XFI      0.149700
     48 H3          3.4890   -0.7190    1.6790 hn        1 XFI      0.485800
     49 H41C        2.5590   -2.9110    1.7930 hx        1 XFI      0.130200
     50 H42C        0.8720   -2.1580    1.8850 hx        1 XFI      0.130200
     51 H5          3.1570   -1.9800    4.0210 h1        1 XFI      0.095700
     52 H6          1.6090   -0.6160    5.0430 ho        1 XFI      0.461000
     53 H7          1.6570   -4.1330    3.6630 hx        1 XFI      0.125700
     54 H81C       -0.4860   -3.1430    3.1890 hc        1 XFI      0.080200
     55 H82C       -0.4550   -2.0690    4.6490 hc        1 XFI      0.080200
     56 H15         1.2210   -4.3530    6.0320 hn        1 XFI      0.474800
     57 H10        -2.0350   -2.7300    6.2140 ha        1 XFI      0.133000
     58 H14         0.0540   -5.7940    3.9620 ha        1 XFI      0.133000
     59 H11        -3.3120   -4.4930    7.4140 ha        1 XFI      0.171000
     60 H12        -2.9100   -6.9070    6.9000 ha        1 XFI      0.177000
     61 H13        -1.2150   -7.5500    5.1800 ha        1 XFI      0.171000
     62 H19         1.8910   -4.0860    8.2410 ha        1 XFI      0.125000
     63 H23         5.7650   -4.6790    6.3100 ha        1 XFI      0.176000
     64 H20         2.9360   -4.4650   10.4320 ha        1 XFI      0.182000
     65 H21         5.3580   -4.8920   10.6520 ha        1 XFI      0.209000
     66 H26         8.9480   -4.4480    6.6880 ha        1 XFI      0.154000
     67 H30         6.6350   -7.7070    8.4360 ha        1 XFI      0.154000
     68 H27        10.0270   -6.0680    5.1530 ha        1 XFI      0.155500
     69 H28         9.4300   -8.4920    5.2390 ha        1 XFI      0.158000
     70 H29         7.7300   -9.2960    6.8820 ha        1 XFI      0.155500
     71 H321       10.0840   -4.6930   10.6930 h1        1 XFI      0.146700
     72 H322        8.8060   -5.9060   10.9830 h1        1 XFI      0.146700
     73 H323        9.6930   -5.8860    9.4290 h1        1 XFI      0.146700
     74 H37         2.0550    0.1840   -2.3890 hn        1 XFI      0.478300
     75 H38         4.3290    2.0810   -1.9780 hx        1 XFI      0.131700
     76 H391        4.3590    1.2340   -4.3580 hc        1 XFI      0.064200
     77 H392        2.5970    1.6580   -4.5500 hc        1 XFI      0.064200
     78 H431        1.2790    2.5400   -2.5300 hc        1 XFI      0.064200
     79 H432        2.1200    2.7200   -0.9230 hc        1 XFI      0.064200
     80 H401        4.9340    3.6000   -3.9280 hc        1 XFI      0.084200
     81 H402        4.0340    3.4250   -5.4880 hc        1 XFI      0.084200
     82 H411        3.2500    5.3910   -4.1130 hc        1 XFI      0.085200
     83 H412        1.9350    4.1990   -4.4530 hc        1 XFI      0.085200
     84 H421        3.5670    4.5120   -1.8330 hc        1 XFI      0.084200
     85 H422        1.8180    4.9040   -2.0940 hc        1 XFI      0.084200
     86 H32         2.0360    0.0240    2.0420 hn        1 XFI      0.485800
     87 H152        1.6880   -2.7810    6.3120 hn        1 XFI      0.474800
     88 H372        3.6580   -0.2250   -2.6570 hn        1 XFI      0.478300
@<TRIPOS>BOND
     1    1    2 1   
     2    1   44 1   
     3    1   45 1   
     4    1   46 1   
     5    2    3 1   
     6    2   35 1   
     7    2   47 1   
     8    3    4 1   
     9    3   48 1   
    10    3   86 1   
    11    4    5 1   
    12    4   49 1   
    13    4   50 1   
    14    5    6 1   
    15    5    7 1   
    16    5   51 1   
    17    6   52 1   
    18    7    8 1   
    19    7   15 1   
    20    7   53 1   
    21    8    9 1   
    22    8   54 1   
    23    8   55 1   
    24    9   10 ar  
    25    9   14 ar  
    26   10   11 ar  
    27   10   57 1   
    28   11   12 ar  
    29   11   59 1   
    30   12   13 ar  
    31   12   60 1   
    32   13   14 ar  
    33   13   61 1   
    34   14   58 1   
    35   15   16 1   
    36   15   56 1   
    37   15   87 1   
    38   16   17 2   
    39   16   18 1   
    40   18   19 ar  
    41   18   23 ar  
    42   19   20 ar  
    43   19   62 1   
    44   20   21 ar  
    45   20   64 1   
    46   21   22 ar  
    47   21   65 1   
    48   22   23 ar  
    49   22   24 1   
    50   23   63 1   
    51   24   25 1   
    52   24   31 1   
    53   25   26 ar  
    54   25   30 ar  
    55   26   27 ar  
    56   26   66 1   
    57   27   28 ar  
    58   27   68 1   
    59   28   29 ar  
    60   28   69 1   
    61   29   30 ar  
    62   29   70 1   
    63   30   67 1   
    64   31   32 1   
    65   31   33 2   
    66   31   34 2   
    67   32   71 1   
    68   32   72 1   
    69   32   73 1   
    70   35   36 2   
    71   35   37 1   
    72   37   38 1   
    73   37   74 1   
    74   37   88 1   
    75   38   39 1   
    76   38   43 1   
    77   38   75 1   
    78   39   40 1   
    79   39   76 1   
    80   39   77 1   
    81   40   41 1   
    82   40   80 1   
    83   40   81 1   
    84   41   42 1   
    85   41   82 1   
    86   41   83 1   
    87   42   43 1   
    88   42   84 1   
    89   42   85 1   
    90   43   78 1   
    91   43   79 1   
@<TRIPOS>SUBSTRUCTURE
     1 XFI         1 TEMP              0 ****  ****    0 ROOT
