@<TRIPOS>MOLECULE
XFJ
   51    61     1     0     0
SMALL
bcc


@<TRIPOS>ATOM
      1 N01         0.0000    0.0000    0.0000 n2        1 XFJ      0.017000
      2 C02         1.3240    0.0000    0.0000 c3        1 XFJ     -0.191000
      3 N02         2.0130   -0.0000   -1.2070 n8        1 XFJ     -0.019000
      4 C03         2.0310    0.0000    1.1980 c2        1 XFJ     -0.360000
      5 C04         1.3330   -0.0010    2.3920 c3        1 XFJ      0.212000
      6 C05        -0.0550   -0.0010    2.3480 c2        1 XFJ     -0.378000
      7 C06        -0.6930   -0.0010    1.1230 c3        1 XFJ     -0.069000
      8 C07         2.0620   -0.0010    3.7110 c3        1 XFJ     -0.159000
      9 C08        -2.1980   -0.0010    1.0690 DU        1 XFJ     -0.285000
     10 C09        -2.6780    1.1810    0.2240 c3        1 XFJ     -0.449000
     11 N11        -6.2260    1.7850    1.2650 n2        1 XFJ      0.068000
     12 C12        -4.9080    1.7950    1.2710 c2        1 XFJ     -0.332000
     13 C13        -4.1910    1.1430    0.2870 c2        1 XFJ      0.004000
     14 C14        -4.8760    0.4730   -0.7160 c2        1 XFJ      0.106000
     15 C15        -6.2620    0.4850   -0.6900 c3        1 XFJ      0.042000
     16 C16        -6.9110    1.1600    0.3270 c2        1 XFJ     -0.163000
     17 C17        -7.0520   -0.2280   -1.7580 DU        1 XFJ     -0.172000
     18 C18        -7.3150   -1.6700   -1.3200 c3        1 XFJ     -0.498000
     19 N21        -9.2210   -2.0190   -2.8460 n2        1 XFJ     -0.143000
     20 C22        -9.9020   -2.6770   -3.7710 c3        1 XFJ     -0.237000
     21 N22       -11.1150   -2.1720   -4.2250 n8        1 XFJ     -0.254000
     22 C23        -9.4420   -3.8990   -4.2540 c2        1 XFJ     -0.566000
     23 C24        -8.2610   -4.4180   -3.7540 c3        1 XFJ      0.063000
     24 C25        -7.5790   -3.6960   -2.7830 c2        1 XFJ     -0.394000
     25 C26        -8.0930   -2.4890   -2.3510 c2        1 XFJ      0.021000
     26 HN02        1.1660   -0.4340   -1.5150 hn        1 XFJ      0.112000
     27 HN0A        2.1930   -0.8640   -1.6800 hn        1 XFJ      0.112000
     28 H03         2.1340    0.3180    0.1670 DU        1 XFJ      0.329000
     29 H05         0.9630   -0.0010    1.9780 ha        1 XFJ      0.215000
     30 H07         0.9920   -0.0010    3.5360 DU        1 XFJ      0.087000
     31 H07A        1.6610    0.7810    4.3450 hc        1 XFJ      0.106000
     32 H07B        1.9320   -0.9610    4.1950 hc        1 XFJ      0.106000
     33 H08        -1.2160    0.0320    1.5250 DU        1 XFJ      0.341000
     34 H08A       -2.5960    0.0880    2.0730 ha        1 XFJ      0.134000
     35 H09        -2.6120    0.1190    0.4240 DU        1 XFJ      0.291000
     36 H09A       -2.3320    2.1070    0.6680 hc        1 XFJ      0.089000
     37 H12        -4.0670    1.5690    0.6270 h4        1 XFJ      0.330000
     38 H14        -4.7160    1.0510    0.1860 ha        1 XFJ     -0.208000
     39 H16        -6.0870    0.7720   -0.2590 h4        1 XFJ     -0.069000
     40 H17        -7.4310    0.3330   -0.9120 DU        1 XFJ      0.339000
     41 H17A       -7.9960    0.2810   -1.9090 ha        1 XFJ      0.182000
     42 H18        -6.8980   -0.9450   -2.0080 DU        1 XFJ      0.240000
     43 H18A       -6.3710   -2.1800   -1.1690 hc        1 XFJ      0.111000
     44 HN22      -10.4750   -2.0700   -3.4630 DU        1 XFJ      0.324000
     45 HN2A      -11.6260   -2.6590   -4.9350 hn        1 XFJ      0.194000
     46 H23       -10.0950   -3.0420   -4.1380 ha        1 XFJ      0.333000
     47 H25        -8.3560   -3.9340   -3.4990 ha        1 XFJ      0.166000
     48 H27        -7.3000   -5.0790   -3.5030 DU        1 XFJ      0.398000
     49 H27A       -6.8360   -5.1320   -4.3470 hc        1 XFJ      0.051000
     50 H27B       -7.9140   -5.2490   -5.1960 hc        1 XFJ      0.051000
     51 C27        -7.7290   -5.7380   -4.2480 c3        1 XFJ     -0.227000
@<TRIPOS>BOND
     1    1    2 1   
     2    1    7 1   
     3    2    3 1   
     4    2    4 1   
     5    2   28 1   
     6    3   26 1   
     7    3   27 1   
     8    4    5 1   
     9    4   28 1   
    10    5    6 1   
    11    5    8 1   
    12    5   30 1   
    13    6    7 1   
    14    6   29 1   
    15    7    9 1   
    16    7   33 1   
    17    8   30 1   
    18    8   31 1   
    19    8   32 1   
    20    9   10 1   
    21    9   33 1   
    22    9   34 1   
    23    9   35 1   
    24   10   13 1   
    25   10   35 1   
    26   10   36 1   
    27   11   12 1   
    28   11   16 1   
    29   12   13 1   
    30   12   37 1   
    31   13   14 1   
    32   14   15 1   
    33   14   38 1   
    34   15   16 1   
    35   15   17 1   
    36   15   40 1   
    37   16   39 1   
    38   17   18 1   
    39   17   40 1   
    40   17   41 1   
    41   17   42 1   
    42   18   25 1   
    43   18   42 1   
    44   18   43 1   
    45   19   20 1   
    46   19   25 1   
    47   20   21 1   
    48   20   22 1   
    49   20   44 1   
    50   21   44 1   
    51   21   45 1   
    52   22   23 1   
    53   22   46 1   
    54   23   24 1   
    55   23   48 1   
    56   23   51 1   
    57   24   25 1   
    58   24   47 1   
    59   48   51 1   
    60   49   51 1   
    61   50   51 1   
@<TRIPOS>SUBSTRUCTURE
     1 XFJ         1 TEMP              0 ****  ****    0 ROOT
