@<TRIPOS>MOLECULE
XFJ
   53    51     1     0     0
SMALL
bcc


@<TRIPOS>ATOM
      1 N01         0.6360    0.2280   -0.0260 n2        1 XFJ     -0.028000
      2 C02         1.7890    0.7910    0.2330 c2        1 XFJ     -0.059500
      3 N02         2.7270    1.0540   -0.8840 n4        1 XFJ     -0.022000
      4 C03         2.2490    1.2540    1.5560 c2        1 XFJ     -0.279000
      5 C04         2.6230    0.4110    2.5380 c2        1 XFJ     -0.007000
      6 C05         0.1380    0.1880    2.3780 c1        1 XFJ      0.292000
      7 C06        -0.1960   -0.0080    1.0770 c2        1 XFJ     -0.348500
      8 C07         3.0290    0.8660    3.8790 c3        1 XFJ     -0.226000
      9 C08        -1.5810   -0.5570    0.8170 c3        1 XFJ     -0.093000
     10 C09        -2.4620    0.4510    0.1010 c3        1 XFJ     -0.118000
     11 N11        -6.5130   -1.6350    2.3610 n2        1 XFJ     -0.333000
     12 C12        -5.4780   -1.2590    3.0840 c1        1 XFJ      0.081000
     13 C13        -3.9010    0.1580    0.3270 c2        1 XFJ     -0.128000
     14 C14        -4.8370    0.2990   -0.5670 c1        1 XFJ     -0.151000
     15 C15        -5.8310    0.4730   -1.3920 c2        1 XFJ     -0.128000
     16 C16        -7.3500   -1.9270    1.5440 c1        1 XFJ      0.184000
     17 C17        -6.4070   -0.5860   -2.2630 c3        1 XFJ     -0.118000
     18 C18        -7.8060   -0.9320   -1.7860 c3        1 XFJ     -0.093000
     19 N21        -8.9840   -1.4840   -3.8990 n2        1 XFJ     -0.028000
     20 C22        -9.8950   -2.1470   -4.5530 c2        1 XFJ     -0.059500
     21 N22       -10.3750   -1.5280   -5.8250 n4        1 XFJ     -0.022000
     22 C23       -10.5890   -3.3980   -4.2230 c2        1 XFJ     -0.279000
     23 C24        -9.9400   -4.5110   -3.8400 c2        1 XFJ     -0.007000
     24 C25        -8.4860   -3.2120   -2.1950 c1        1 XFJ      0.292000
     25 C26        -8.4770   -1.9530   -2.6870 c2        1 XFJ     -0.348500
     26 HN02        2.9190    2.0620   -0.9120 hn        1 XFJ      0.266833
     27 HN0A        3.6000    0.5470   -0.6990 hn        1 XFJ      0.266833
     28 H03         2.2220    2.3490    1.7050 ha        1 XFJ      0.173500
     29 H05         2.6550   -0.6840    2.3790 ha        1 XFJ      0.148500
     30 H07         2.3090    0.4650    4.6410 hc        1 XFJ      0.123667
     31 H07A        3.0500    1.9810    3.9660 hc        1 XFJ      0.123667
     32 H07B        4.0470    0.4660    4.1240 hc        1 XFJ      0.123667
     33 H08        -2.0390   -0.8360    1.8060 hc        1 XFJ      0.121250
     34 H08A       -1.4960   -1.4980    0.2110 hc        1 XFJ      0.121250
     35 H09        -2.2560    1.4850    0.4940 hc        1 XFJ      0.097250
     36 H09A       -2.2160    0.4560   -0.9940 hc        1 XFJ      0.097250
     37 H12        -5.6190   -1.3340    4.1880 ha        1 XFJ      0.074000
     38 H14        -4.1730   -0.1700    1.3540 ha        1 XFJ      0.159500
     39 H16        -6.3170    1.4630   -1.4700 ha        1 XFJ      0.159500
     40 H17        -6.4440   -0.2090   -3.3200 hc        1 XFJ      0.097250
     41 H17A       -5.7650   -1.5060   -2.2550 hc        1 XFJ      0.097250
     42 H18        -7.7580   -1.3520   -0.7400 hc        1 XFJ      0.121250
     43 H18A       -8.4410   -0.0070   -1.7420 hc        1 XFJ      0.121250
     44 HN22       -9.8820   -0.6510   -6.0380 hn        1 XFJ      0.266833
     45 HN2A      -10.2240   -2.1990   -6.5860 hn        1 XFJ      0.266833
     46 H23       -11.6930   -3.3600   -4.2450 ha        1 XFJ      0.173500
     47 H25        -8.8320   -4.5890   -3.8640 ha        1 XFJ      0.148500
     48 H27       -10.3210   -6.0180   -2.3840 hc        1 XFJ      0.123667
     49 H27A      -11.7470   -5.6340   -3.4440 hc        1 XFJ      0.123667
     50 H27B      -10.3470   -6.5880   -4.1040 hc        1 XFJ      0.123667
     51 H023        2.3420    0.7530   -1.7890 hn        1 XFJ      0.266833
     52 H223      -11.3790   -1.3390   -5.7330 hn        1 XFJ      0.266833
     53 C27       -10.6350   -5.7430   -3.4250 c3        1 XFJ     -0.226000
@<TRIPOS>BOND
     1    1    2 1   
     2    1    7 1   
     3    2    3 1   
     4    2    4 1   
     5    3   26 1   
     6    3   27 1   
     7    3   51 1   
     8    4    5 1   
     9    4   28 1   
    10    5    8 1   
    11    5   29 1   
    12    6    7 1   
    13    7    9 1   
    14    8   30 1   
    15    8   31 1   
    16    8   32 1   
    17    9   10 1   
    18    9   33 1   
    19    9   34 1   
    20   10   13 1   
    21   10   35 1   
    22   10   36 1   
    23   11   12 1   
    24   11   16 1   
    25   12   37 1   
    26   13   14 1   
    27   13   38 1   
    28   14   15 1   
    29   15   17 1   
    30   15   39 1   
    31   17   18 1   
    32   17   40 1   
    33   17   41 1   
    34   18   25 1   
    35   18   42 1   
    36   18   43 1   
    37   19   20 1   
    38   19   25 1   
    39   20   21 1   
    40   20   22 1   
    41   21   44 1   
    42   21   45 1   
    43   21   52 1   
    44   22   23 1   
    45   22   46 1   
    46   23   47 1   
    47   23   53 1   
    48   24   25 1   
    49   48   53 1   
    50   49   53 1   
    51   50   53 1   
@<TRIPOS>SUBSTRUCTURE
     1 XFJ         1 TEMP              0 ****  ****    0 ROOT
