@<TRIPOS>MOLECULE
XFJ
   51    53     1     0     0
SMALL
bcc


@<TRIPOS>ATOM
      1 N01         4.4750   -1.1600   -0.9570 nb        1 XFJ     -0.730500
      2 C02         5.7230   -1.6780   -1.1830 ca        1 XFJ      0.633200
      3 N02         5.9580   -2.3860   -2.3730 nh        1 XFJ     -0.924000
      4 C03         6.8090   -1.4590   -0.2820 ca        1 XFJ     -0.301300
      5 C04         6.6010   -0.6690    0.8460 ca        1 XFJ     -0.005300
      6 C05         5.3310   -0.1220    1.0660 ca        1 XFJ     -0.292300
      7 C06         4.3030   -0.3910    0.1420 ca        1 XFJ      0.449600
      8 C07         7.7060   -0.3990    1.7940 c3        1 XFJ     -0.061300
      9 C08         2.9380    0.1890    0.3980 c3        1 XFJ     -0.125700
     10 C09         2.5750    1.2340   -0.6440 c3        1 XFJ     -0.030100
     11 N11        -0.0610    3.7320    0.3920 nb        1 XFJ     -0.663000
     12 C12         1.1200    3.1380    0.1360 ca        1 XFJ      0.390200
     13 C13         1.2410    1.8270   -0.3710 ca        1 XFJ     -0.192100
     14 C14         0.0650    1.1090   -0.6210 ca        1 XFJ     -0.092000
     15 C15        -1.1730    1.7060   -0.3610 ca        1 XFJ     -0.192100
     16 C16        -1.1780    3.0250    0.1460 ca        1 XFJ      0.390200
     17 C17        -2.4500    0.9940   -0.6210 c3        1 XFJ     -0.030100
     18 C18        -3.1310    0.5910    0.6770 c3        1 XFJ     -0.125700
     19 N21        -5.4220    0.4650   -0.1920 nb        1 XFJ     -0.730500
     20 C22        -6.5730   -0.2420   -0.4220 ca        1 XFJ      0.633200
     21 N22        -7.6070    0.3630   -1.1550 nh        1 XFJ     -0.924000
     22 C23        -6.7240   -1.5990   -0.0030 ca        1 XFJ     -0.301300
     23 C24        -5.6590   -2.2310    0.6330 ca        1 XFJ     -0.005300
     24 C25        -4.4750   -1.5140    0.8490 ca        1 XFJ     -0.292300
     25 C26        -4.4020   -0.1750    0.4200 ca        1 XFJ      0.449600
     26 HN02        5.1470   -2.6740   -2.8750 hn        1 XFJ      0.401300
     27 HN0A        6.6480   -3.0980   -2.2820 hn        1 XFJ      0.401300
     28 H03         7.7960   -1.8960   -0.4820 ha        1 XFJ      0.141000
     29 H05         5.1390    0.5050    1.9460 ha        1 XFJ      0.142000
     30 H07         8.1540    0.6040    1.5760 hc        1 XFJ      0.049533
     31 H07A        7.3300   -0.3920    2.8470 hc        1 XFJ      0.049533
     32 H07B        8.5110   -1.1690    1.7080 hc        1 XFJ      0.049533
     33 H08         2.1690   -0.6290    0.3890 hc        1 XFJ      0.057450
     34 H08A        2.9240    0.6540    1.4190 hc        1 XFJ      0.057450
     35 H09         3.3590    2.0380   -0.6550 hc        1 XFJ      0.062450
     36 H09A        2.5700    0.7600   -1.6630 hc        1 XFJ      0.062450
     37 H12         2.0190    3.7470    0.3440 h4        1 XFJ      0.022600
     38 H14         0.1190    0.0860   -1.0220 ha        1 XFJ      0.141000
     39 H16        -2.1330    3.5370    0.3610 h4        1 XFJ      0.022600
     40 H17        -3.1340    1.6630   -1.2110 hc        1 XFJ      0.062450
     41 H17A       -2.2610    0.0780   -1.2420 hc        1 XFJ      0.062450
     42 H18        -2.4370   -0.0470    1.2850 hc        1 XFJ      0.057450
     43 H18A       -3.3610    1.5100    1.2800 hc        1 XFJ      0.057450
     44 HN22       -7.5410    1.3520   -1.2640 hn        1 XFJ      0.401300
     45 HN2A       -8.5150    0.0480   -0.8950 hn        1 XFJ      0.401300
     46 H23        -7.6620   -2.1390   -0.1890 ha        1 XFJ      0.141000
     47 H25        -3.6200   -1.9880    1.3460 ha        1 XFJ      0.142000
     48 H27        -5.2810   -4.3090    0.3060 hc        1 XFJ      0.049533
     49 H27A       -5.2520   -3.7980    2.0460 hc        1 XFJ      0.049533
     50 H27B       -6.8350   -3.9540    1.1720 hc        1 XFJ      0.049533
     51 C27        -5.7660   -3.6440    1.0650 c3        1 XFJ     -0.061300
@<TRIPOS>BOND
     1    1    2 ar  
     2    1    7 ar  
     3    2    3 1   
     4    2    4 ar  
     5    3   26 1   
     6    3   27 1   
     7    4    5 ar  
     8    4   28 1   
     9    5    6 ar  
    10    5    8 1   
    11    6    7 ar  
    12    6   29 1   
    13    7    9 1   
    14    8   30 1   
    15    8   31 1   
    16    8   32 1   
    17    9   10 1   
    18    9   33 1   
    19    9   34 1   
    20   10   13 1   
    21   10   35 1   
    22   10   36 1   
    23   11   12 ar  
    24   11   16 ar  
    25   12   13 ar  
    26   12   37 1   
    27   13   14 ar  
    28   14   15 ar  
    29   14   38 1   
    30   15   16 ar  
    31   15   17 1   
    32   16   39 1   
    33   17   18 1   
    34   17   40 1   
    35   17   41 1   
    36   18   25 1   
    37   18   42 1   
    38   18   43 1   
    39   19   20 ar  
    40   19   25 ar  
    41   20   21 1   
    42   20   22 ar  
    43   21   44 1   
    44   21   45 1   
    45   22   23 ar  
    46   22   46 1   
    47   23   24 ar  
    48   23   51 1   
    49   24   25 ar  
    50   24   47 1   
    51   48   51 1   
    52   49   51 1   
    53   50   51 1   
@<TRIPOS>SUBSTRUCTURE
     1 XFJ         1 TEMP              0 ****  ****    0 ROOT
