@<TRIPOS>MOLECULE
XFK
   51    45     1     0     0
SMALL
bcc


@<TRIPOS>ATOM
      1 N01         4.7360    0.4160    1.7960 n1        1 XFK     -0.205000
      2 C02         5.9650    0.5600    1.2240 c1        1 XFK      0.113000
      3 N02         7.0220   -0.3190    1.5810 n3        1 XFK     -0.322000
      4 C03         6.1980    1.5950    0.3320 c1        1 XFK     -0.235000
      5 C04         5.1960    2.4710    0.0270 c1        1 XFK      0.016500
      6 C05         3.9650    2.3250    0.6000 c1        1 XFK     -0.227500
      7 C06         3.7350    1.2890    1.4920 c1        1 XFK      0.027000
      8 C07         5.4710    3.6470   -0.8850 c3        1 XFK     -0.180500
      9 C08         2.4040    1.1890    2.2050 c3        1 XFK     -0.110000
     10 C09         1.9080   -0.2420    2.1530 c3        1 XFK     -0.116000
     11 N11        -1.5260    0.4860    3.5220 n1        1 XFK     -0.134000
     12 C12        -0.1730    0.4840    3.3620 c1        1 XFK     -0.073000
     13 C13         0.4040   -0.2640    2.3490 c2        1 XFK     -0.118000
     14 C14        -0.3840   -0.9990    1.5100 c2        1 XFK     -0.091000
     15 C15        -1.7400   -0.9960    1.6720 c1        1 XFK     -0.122000
     16 C16        -2.3140   -0.2480    2.6860 c2        1 XFK     -0.075000
     17 C17        -2.6100   -1.8510    0.7760 c2        1 XFK     -0.114000
     18 C18        -3.7370   -1.0130    0.2200 c3        1 XFK     -0.127000
     19 C21        -4.8830   -2.4150   -1.6390 c1        1 XFK     -0.238000
     20 C22        -5.3520   -2.3910   -2.9460 c1        1 XFK      0.113000
     21 N22        -6.2050   -3.4210   -3.4100 n3        1 XFK     -0.322000
     22 N23        -4.9620   -1.3970   -3.7920 n1        1 XFK     -0.203000
     23 C24        -4.1130   -0.4260   -3.3580 c1        1 XFK      0.016500
     24 C25        -3.6420   -0.4480   -2.0510 c1        1 XFK     -0.227500
     25 C26        -4.0310   -1.4430   -1.2030 c1        1 XFK     -0.001000
     26 C27        -3.7150    0.7020   -4.2870 c3        1 XFK     -0.180500
     27 HN02        7.8480   -0.2180    1.2030 hn        1 XFK      0.196500
     28 HN0A        6.8830   -0.9670    2.2100 hn        1 XFK      0.196500
     29 H03         7.0780    1.6980   -0.0770 ha        1 XFK      0.142000
     30 H05         3.2480    2.9510    0.3820 ha        1 XFK      0.141500
     31 H07         4.6250    3.9810   -1.2520 hc        1 XFK      0.090833
     32 H07A        5.9100    4.3600   -0.3740 hc        1 XFK      0.090833
     33 H07B        6.0560    3.3620   -1.6180 hc        1 XFK      0.090833
     34 H08         1.7550    1.7750    1.7670 hc        1 XFK      0.097500
     35 H08A        2.5130    1.4630    3.1370 hc        1 XFK      0.097500
     36 H09         2.3370   -0.7620    2.8620 hc        1 XFK      0.102500
     37 H09A        2.1290   -0.6320    1.2850 hc        1 XFK      0.102500
     38 H12         0.3900    1.0090    3.9610 ha        1 XFK      0.162000
     39 H14         0.0220   -1.5270    0.7960 ha        1 XFK      0.139000
     40 H16        -3.2830   -0.2450    2.8020 h4        1 XFK      0.157000
     41 H17        -2.0720   -2.2040    0.0410 ha        1 XFK      0.094000
     42 H17A       -2.9810   -2.5940    1.2950 ha        1 XFK      0.094000
     43 H18        -3.4770   -0.0710    0.2280 hc        1 XFK      0.096500
     44 H18A       -4.5370   -1.1350    0.7690 hc        1 XFK      0.096500
     45 H21        -5.1950   -3.1050   -1.0190 ha        1 XFK      0.141000
     46 HN22       -6.4980   -3.4170   -4.2780 hn        1 XFK      0.197000
     47 HN2A       -6.4490   -4.0970   -2.8500 hn        1 XFK      0.197000
     48 H25        -3.0320    0.2490   -1.7400 ha        1 XFK      0.141500
     49 H27        -3.8890    1.5610   -3.8510 hc        1 XFK      0.090833
     50 H27A       -4.2390    0.6440   -5.1180 hc        1 XFK      0.090833
     51 H27B       -2.7610    0.6310   -4.4980 hc        1 XFK      0.090833
@<TRIPOS>BOND
     1    1    7 1   
     2    2    3 1   
     3    2    4 1   
     4    3   27 1   
     5    3   28 1   
     6    4   29 1   
     7    5    6 1   
     8    5    8 1   
     9    6   30 1   
    10    7    9 1   
    11    8   31 1   
    12    8   32 1   
    13    8   33 1   
    14    9   10 1   
    15    9   34 1   
    16    9   35 1   
    17   10   13 1   
    18   10   36 1   
    19   10   37 1   
    20   11   16 1   
    21   12   13 1   
    22   12   38 1   
    23   13   14 1   
    24   14   15 1   
    25   14   39 1   
    26   15   16 1   
    27   16   40 1   
    28   17   18 1   
    29   17   41 1   
    30   17   42 1   
    31   18   25 1   
    32   18   43 1   
    33   18   44 1   
    34   19   25 1   
    35   19   45 1   
    36   20   21 1   
    37   20   22 1   
    38   21   46 1   
    39   21   47 1   
    40   23   24 1   
    41   23   26 1   
    42   24   48 1   
    43   26   49 1   
    44   26   50 1   
    45   26   51 1   
@<TRIPOS>SUBSTRUCTURE
     1 XFK         1 TEMP              0 ****  ****    0 ROOT
