@<TRIPOS>MOLECULE
XFK
   51    49     1     0     0
SMALL
bcc


@<TRIPOS>ATOM
      1 N01        -0.3380   -0.6600    0.0420 n2        1 XFK     -0.174000
      2 C02         0.9760   -0.5640   -0.0470 c2        1 XFK      0.080000
      3 N02         1.6820   -1.0230   -1.1680 n8        1 XFK     -0.316000
      4 C03         1.7860    0.1450    0.9890 c2        1 XFK     -0.213000
      5 C04         1.9930   -0.3640    2.2140 c2        1 XFK     -0.075000
      6 C05        -0.2980    0.4360    2.2550 c1        1 XFK      0.092000
      7 C06        -0.9310   -0.0590    1.1740 c2        1 XFK     -0.296000
      8 C07         2.7550    0.3340    3.2680 c3        1 XFK     -0.201000
      9 C08        -2.4400    0.0010    1.1890 c3        1 XFK     -0.078000
     10 C09        -2.9670    0.9310    0.1130 c3        1 XFK     -0.119000
     11 N11        -7.5230    1.9350    2.7720 n2        1 XFK     -0.353000
     12 C12        -6.2400    2.2340    2.8010 c1        1 XFK      0.097000
     13 C13        -4.4420    1.0810    0.2200 c2        1 XFK     -0.121000
     14 C14        -5.2490    1.0850   -0.8020 c1        1 XFK     -0.180000
     15 C15        -6.0650    1.1230   -1.8170 c2        1 XFK     -0.123000
     16 C16        -8.6410    1.4830    2.7360 c1        1 XFK      0.210000
     17 C17        -6.7670   -0.0430   -2.4080 c3        1 XFK     -0.118000
     18 C18        -6.3310   -1.3710   -1.8210 c3        1 XFK     -0.086000
     19 C21        -8.5290   -2.5610   -1.9850 c2        1 XFK     -0.220000
     20 C22        -9.5390   -3.1140   -2.7350 c2        1 XFK      0.059000
     21 N22       -10.8490   -3.2040   -2.2080 n8        1 XFK     -0.304000
     22 N23        -9.3540   -3.5810   -4.0680 n2        1 XFK     -0.181000
     23 C24        -8.4840   -4.4930   -4.3400 c2        1 XFK     -0.020000
     24 C25        -6.5470   -3.4010   -3.1620 c1        1 XFK      0.131000
     25 C26        -7.1390   -2.5030   -2.3810 c2        1 XFK     -0.321000
     26 HN02        1.1760   -1.6190   -1.7870 hn        1 XFK      0.199000
     27 HN0A        2.5980   -1.3470   -0.9540 hn        1 XFK      0.199000
     28 H03         2.1800    1.1260    0.6790 ha        1 XFK      0.159000
     29 H05         1.6020   -1.3590    2.4960 ha        1 XFK      0.136000
     30 H07         2.0640    0.5990    4.1090 hc        1 XFK      0.095667
     31 H07A        3.2270    1.2740    2.8910 hc        1 XFK      0.095667
     32 H07B        3.5580   -0.3340    3.6680 hc        1 XFK      0.095667
     33 H08        -2.7830    0.3530    2.1990 hc        1 XFK      0.096500
     34 H08A       -2.8490   -1.0330    1.0330 hc        1 XFK      0.096500
     35 H09        -2.4960    1.9460    0.2290 hc        1 XFK      0.099000
     36 H09A       -2.6760    0.5430   -0.8990 hc        1 XFK      0.099000
     37 H12        -6.0270    3.3310    2.8330 ha        1 XFK      0.048000
     38 H14        -4.8400    1.2060    1.2490 ha        1 XFK      0.155000
     39 H16        -6.2870    2.0880   -2.3080 ha        1 XFK      0.132000
     40 H17        -7.8740    0.0860   -2.2530 hc        1 XFK      0.095000
     41 H17A       -6.5870   -0.0470   -3.5180 hc        1 XFK      0.095000
     42 H18        -5.2390   -1.5320   -2.0260 hc        1 XFK      0.097500
     43 H18A       -6.4620   -1.3560   -0.7050 hc        1 XFK      0.097500
     44 H21        -8.7540   -2.0940   -1.0130 ha        1 XFK      0.142000
     45 HN22      -11.0490   -2.4660   -1.5650 hn        1 XFK      0.183500
     46 HN2A      -11.5660   -3.3000   -2.8970 hn        1 XFK      0.183500
     47 H25        -7.8950   -5.0520   -3.5700 h4        1 XFK      0.127000
     48 H27        -7.1250   -4.8100   -5.9480 hc        1 XFK      0.100333
     49 H27A       -8.4560   -6.0420   -5.8080 hc        1 XFK      0.100333
     50 H27B       -8.8070   -4.4000   -6.5020 hc        1 XFK      0.100333
     51 C27        -8.2130   -4.9530   -5.7340 c3        1 XFK     -0.198000
@<TRIPOS>BOND
     1    1    2 1   
     2    1    7 1   
     3    2    3 1   
     4    2    4 1   
     5    3   26 1   
     6    3   27 1   
     7    4    5 1   
     8    4   28 1   
     9    5    8 1   
    10    5   29 1   
    11    6    7 1   
    12    7    9 1   
    13    8   30 1   
    14    8   31 1   
    15    8   32 1   
    16    9   10 1   
    17    9   33 1   
    18    9   34 1   
    19   10   13 1   
    20   10   35 1   
    21   10   36 1   
    22   11   12 1   
    23   11   16 1   
    24   12   37 1   
    25   13   14 1   
    26   13   38 1   
    27   14   15 1   
    28   15   17 1   
    29   15   39 1   
    30   17   18 1   
    31   17   40 1   
    32   17   41 1   
    33   18   25 1   
    34   18   42 1   
    35   18   43 1   
    36   19   20 1   
    37   19   25 1   
    38   19   44 1   
    39   20   21 1   
    40   20   22 1   
    41   21   45 1   
    42   21   46 1   
    43   22   23 1   
    44   23   47 1   
    45   23   51 1   
    46   24   25 1   
    47   48   51 1   
    48   49   51 1   
    49   50   51 1   
@<TRIPOS>SUBSTRUCTURE
     1 XFK         1 TEMP              0 ****  ****    0 ROOT
