@<TRIPOS>MOLECULE
XFK
   51    50     1     0     0
SMALL
bcc


@<TRIPOS>ATOM
      1 N01        -0.1610    1.0320   -0.1080 n2        1 XFK     -0.179000
      2 C02         1.1160    1.0540    0.2310 c2        1 XFK      0.083000
      3 N02         2.0550    1.8360   -0.4540 n3        1 XFK     -0.317000
      4 C03         1.6190    0.3360    1.4410 c2        1 XFK     -0.216000
      5 C04         1.7210   -1.0020    1.4940 c2        1 XFK     -0.071000
      6 C05        -0.6480   -0.5390    1.7340 c1        1 XFK      0.097000
      7 C06        -1.0140    0.2860    0.7340 c2        1 XFK     -0.299000
      8 C07         2.1780   -1.7360    2.6910 c3        1 XFK     -0.202000
      9 C08        -2.4940    0.3940    0.4550 c3        1 XFK     -0.077000
     10 C09        -3.0010    1.7990    0.7080 c3        1 XFK     -0.113000
     11 N11        -6.3250    3.5740    0.5490 n2        1 XFK     -0.334000
     12 C12        -4.9410    3.3540    0.4630 c3        1 XFK      0.056000
     13 C13        -4.4810    1.9190    0.5570 c2        1 XFK     -0.081000
     14 C14        -5.2960    0.9000    0.5110 c1        1 XFK     -0.160000
     15 C15        -6.1230   -0.1050    0.4850 c2        1 XFK     -0.099000
     16 C16        -7.4880    3.7620    0.6200 c1        1 XFK      0.106000
     17 C17        -6.5770   -0.7770   -0.7590 c3        1 XFK     -0.127000
     18 C18        -6.6920   -2.2780   -0.5600 c3        1 XFK     -0.083000
     19 C21        -8.6370   -2.7390   -2.0660 c2        1 XFK     -0.134000
     20 C22        -9.3230   -3.3040   -3.1120 c2        1 XFK      0.015000
     21 N22       -10.7290   -3.1210   -3.2440 n3        1 XFK     -0.330000
     22 N23        -8.5980   -4.1020   -4.0390 n2        1 XFK     -0.173000
     23 C24        -9.1460   -5.0280   -4.7480 c2        1 XFK     -0.032000
     24 C25        -6.4020   -3.6890   -2.5210 c1        1 XFK      0.238000
     25 C26        -7.2350   -2.9500   -1.7870 c2        1 XFK     -0.367000
     26 HN02        1.7670    2.1880   -1.3410 hn        1 XFK      0.200000
     27 HN0A        2.9730    1.4500   -0.4490 hn        1 XFK      0.200000
     28 H03         1.8800    0.9860    2.2920 ha        1 XFK      0.160000
     29 H05         1.4710   -1.6320    0.6210 ha        1 XFK      0.137000
     30 H07         1.3300   -2.3460    3.0960 hc        1 XFK      0.096667
     31 H07A        2.5330   -1.0480    3.4960 hc        1 XFK      0.096667
     32 H07B        3.0130   -2.4300    2.4190 hc        1 XFK      0.096667
     33 H08        -3.0460   -0.3330    1.1100 hc        1 XFK      0.099500
     34 H08A       -2.6890    0.1040   -0.6120 hc        1 XFK      0.099500
     35 H09        -2.7230    2.1180    1.7500 hc        1 XFK      0.101000
     36 H09A       -2.5020    2.5100   -0.0040 hc        1 XFK      0.101000
     37 H12        -4.5740    3.7670   -0.5260 h1        1 XFK      0.105000
     38 H14        -4.4370    3.9370    1.2920 h1        1 XFK      0.105000
     39 H16        -6.5490   -0.4990    1.4270 ha        1 XFK      0.140000
     40 H17        -7.5820   -0.3590   -1.0460 hc        1 XFK      0.099500
     41 H17A       -5.8760   -0.5620   -1.6090 hc        1 XFK      0.099500
     42 H18        -5.6840   -2.6980   -0.3010 hc        1 XFK      0.090500
     43 H18A       -7.3780   -2.4990    0.3010 hc        1 XFK      0.090500
     44 H21        -9.1650   -2.0850   -1.3530 ha        1 XFK      0.133000
     45 HN22      -11.0750   -2.4140   -2.6300 hn        1 XFK      0.173500
     46 HN2A      -11.0140   -2.9520   -4.1860 hn        1 XFK      0.173500
     47 H25       -10.2250   -5.2990   -4.7100 h4        1 XFK      0.110000
     48 H27        -7.2790   -5.5880   -5.7430 hc        1 XFK      0.098667
     49 H27A       -8.4480   -6.9350   -5.4010 hc        1 XFK      0.098667
     50 H27B       -8.7970   -5.7420   -6.7290 hc        1 XFK      0.098667
     51 C27        -8.3620   -5.8620   -5.7060 c3        1 XFK     -0.201000
@<TRIPOS>BOND
     1    1    2 1   
     2    1    7 1   
     3    2    3 1   
     4    2    4 1   
     5    3   26 1   
     6    3   27 1   
     7    4    5 1   
     8    4   28 1   
     9    5    8 1   
    10    5   29 1   
    11    6    7 1   
    12    7    9 1   
    13    8   30 1   
    14    8   31 1   
    15    8   32 1   
    16    9   10 1   
    17    9   33 1   
    18    9   34 1   
    19   10   13 1   
    20   10   35 1   
    21   10   36 1   
    22   11   12 1   
    23   11   16 1   
    24   12   13 1   
    25   12   37 1   
    26   12   38 1   
    27   13   14 1   
    28   14   15 1   
    29   15   17 1   
    30   15   39 1   
    31   17   18 1   
    32   17   40 1   
    33   17   41 1   
    34   18   25 1   
    35   18   42 1   
    36   18   43 1   
    37   19   20 1   
    38   19   25 1   
    39   19   44 1   
    40   20   21 1   
    41   20   22 1   
    42   21   45 1   
    43   21   46 1   
    44   22   23 1   
    45   23   47 1   
    46   23   51 1   
    47   24   25 1   
    48   48   51 1   
    49   49   51 1   
    50   50   51 1   
@<TRIPOS>SUBSTRUCTURE
     1 XFK         1 TEMP              0 ****  ****    0 ROOT
