@<TRIPOS>MOLECULE
XFK
   51    53     1     0     0
SMALL
bcc


@<TRIPOS>ATOM
      1 N01         4.2840    1.3230    0.5740 nb        1 XFK     -0.732000
      2 C02         5.5000    1.9490    0.6730 ca        1 XFK      0.633200
      3 N02         5.6770    2.9380    1.6540 nh        1 XFK     -0.924500
      4 C03         6.6120    1.5750   -0.1420 ca        1 XFK     -0.300300
      5 C04         6.4640    0.5230   -1.0430 ca        1 XFK     -0.005300
      6 C05         5.2280   -0.1290   -1.1280 ca        1 XFK     -0.292300
      7 C06         4.1710    0.3020   -0.3030 ca        1 XFK      0.448600
      8 C07         7.5980    0.0900   -1.8910 c3        1 XFK     -0.061800
      9 C08         2.8430   -0.3970   -0.4160 c3        1 XFK     -0.125700
     10 C09         2.5180   -1.1760    0.8480 c3        1 XFK     -0.031100
     11 N11         0.0200   -3.9780    0.4360 nb        1 XFK     -0.662000
     12 C12         1.1670   -3.2820    0.5420 ca        1 XFK      0.392200
     13 C13         1.2180   -1.8830    0.7260 ca        1 XFK     -0.190600
     14 C14         0.0050   -1.1890    0.8030 ca        1 XFK     -0.092000
     15 C15        -1.2000   -1.8920    0.6940 ca        1 XFK     -0.193600
     16 C16        -1.1340   -3.2900    0.5110 ca        1 XFK      0.392200
     17 C17        -2.5080   -1.1960    0.7810 c3        1 XFK     -0.029100
     18 C18        -2.7930   -0.3850   -0.4730 c3        1 XFK     -0.040100
     19 C21        -5.2930   -0.4150   -0.5230 ca        1 XFK     -0.302300
     20 C22        -6.5380    0.2760   -0.4330 ca        1 XFK      0.633200
     21 N22        -7.7320   -0.4650   -0.4680 nh        1 XFK     -0.923500
     22 N23        -6.6050    1.6310   -0.2430 nb        1 XFK     -0.729000
     23 C24        -5.4420    2.3060   -0.1060 ca        1 XFK      0.453600
     24 C25        -4.1770    1.6870   -0.1700 ca        1 XFK     -0.292300
     25 C26        -4.1090    0.3070   -0.3840 ca        1 XFK     -0.008300
     26 HN02        4.8430    3.2960    2.0660 hn        1 XFK      0.401300
     27 HN0A        6.3330    3.6400    1.3970 hn        1 XFK      0.401300
     28 H03         7.5710    2.1000   -0.0510 ha        1 XFK      0.142000
     29 H05         5.0850   -0.9610   -1.8290 ha        1 XFK      0.143000
     30 H07         8.0920   -0.8040   -1.4330 hc        1 XFK      0.049700
     31 H07A        7.2430   -0.1920   -2.9130 hc        1 XFK      0.049700
     32 H07B        8.3620    0.9000   -1.9910 hc        1 XFK      0.049700
     33 H08         2.0330    0.3560   -0.6090 hc        1 XFK      0.057200
     34 H08A        2.8700   -1.0950   -1.2930 hc        1 XFK      0.057200
     35 H09         3.3400   -1.9130    1.0530 hc        1 XFK      0.062700
     36 H09A        2.4770   -0.4710    1.7220 hc        1 XFK      0.062700
     37 H12         2.0970   -3.8760    0.4790 h4        1 XFK      0.022100
     38 H14         0.0010   -0.0990    0.9520 ha        1 XFK      0.142000
     39 H16        -2.0570   -3.8910    0.4240 h4        1 XFK      0.021100
     40 H17        -3.3340   -1.9420    0.9340 hc        1 XFK      0.057700
     41 H17A       -2.5080   -0.5120    1.6730 hc        1 XFK      0.057700
     42 H18        -1.9720    0.3650   -0.6240 hc        1 XFK      0.055200
     43 H18A       -2.7920   -1.0660   -1.3660 hc        1 XFK      0.055200
     44 H21        -5.2650   -1.5000   -0.6870 ha        1 XFK      0.141000
     45 HN22       -7.6820   -1.2710   -1.0500 hn        1 XFK      0.401300
     46 HN2A       -8.5680    0.0650   -0.5850 hn        1 XFK      0.401300
     47 H25        -3.2630    2.2840   -0.0570 ha        1 XFK      0.141000
     48 H27        -5.8550    3.9870    1.1690 hc        1 XFK      0.052700
     49 H27A       -4.4920    4.2370   -0.0060 hc        1 XFK      0.052700
     50 H27B       -6.2130    4.2760   -0.5840 hc        1 XFK      0.052700
     51 C27        -5.5040    3.7840    0.1270 c3        1 XFK     -0.150400
@<TRIPOS>BOND
     1    1    2 ar  
     2    1    7 ar  
     3    2    3 1   
     4    2    4 ar  
     5    3   26 1   
     6    3   27 1   
     7    4    5 ar  
     8    4   28 1   
     9    5    6 ar  
    10    5    8 1   
    11    6    7 ar  
    12    6   29 1   
    13    7    9 1   
    14    8   30 1   
    15    8   31 1   
    16    8   32 1   
    17    9   10 1   
    18    9   33 1   
    19    9   34 1   
    20   10   13 1   
    21   10   35 1   
    22   10   36 1   
    23   11   12 ar  
    24   11   16 ar  
    25   12   13 ar  
    26   12   37 1   
    27   13   14 ar  
    28   14   15 ar  
    29   14   38 1   
    30   15   16 ar  
    31   15   17 1   
    32   16   39 1   
    33   17   18 1   
    34   17   40 1   
    35   17   41 1   
    36   18   25 1   
    37   18   42 1   
    38   18   43 1   
    39   19   20 ar  
    40   19   25 ar  
    41   19   44 1   
    42   20   21 1   
    43   20   22 ar  
    44   21   45 1   
    45   21   46 1   
    46   22   23 ar  
    47   23   24 ar  
    48   23   51 1   
    49   24   25 ar  
    50   24   47 1   
    51   48   51 1   
    52   49   51 1   
    53   50   51 1   
@<TRIPOS>SUBSTRUCTURE
     1 XFK         1 TEMP              0 ****  ****    0 ROOT
