@<TRIPOS>MOLECULE
XFL
   51    53     1     0     0
SMALL
bcc


@<TRIPOS>ATOM
      1 N1         -0.0000    1.4520    0.0010 nb        1 XFL     -0.676000
      2 C2          1.1090    2.1470   -0.3440 ca        1 XFL      0.415600
      3 C3          1.1470    3.5600   -0.3540 ca        1 XFL     -0.253300
      4 C4         -0.0000    4.2660    0.0020 ca        1 XFL     -0.089000
      5 C5         -1.1470    3.5600    0.3570 ca        1 XFL     -0.253300
      6 C6         -1.1090    2.1470    0.3460 ca        1 XFL      0.415600
      7 N11         4.4400   -0.5150   -1.4020 nb        1 XFL     -0.732000
      8 C12         5.6800   -1.0660   -1.5940 ca        1 XFL      0.630200
      9 N12         6.2100   -1.1070   -2.8960 nh        1 XFL     -0.922500
     10 C13         6.4790   -1.5310   -0.5080 ca        1 XFL     -0.303300
     11 C14         5.9950   -1.3940    0.7920 ca        1 XFL     -0.006300
     12 C15         4.7380   -0.8120    0.9890 ca        1 XFL     -0.294300
     13 C16         3.9970   -0.3870   -0.1320 ca        1 XFL      0.451600
     14 C18         2.6310    0.1980    0.1090 c3        1 XFL     -0.122700
     15 C19         2.3470    1.4040   -0.7630 c3        1 XFL     -0.121700
     16 N21        -4.4410   -0.5160    1.4010 nb        1 XFL     -0.732000
     17 C22        -5.6810   -1.0670    1.5940 ca        1 XFL      0.630200
     18 N22        -6.2110   -1.1090    2.8950 nh        1 XFL     -0.922500
     19 C23        -6.4790   -1.5320    0.5060 ca        1 XFL     -0.303300
     20 C24        -5.9950   -1.3950   -0.7930 ca        1 XFL     -0.006300
     21 C25        -4.7380   -0.8120   -0.9900 ca        1 XFL     -0.294300
     22 C26        -3.9970   -0.3880    0.1320 ca        1 XFL      0.451600
     23 C28        -2.6310    0.1980   -0.1080 c3        1 XFL     -0.122700
     24 C29        -2.3470    1.4030    0.7650 c3        1 XFL     -0.121700
     25 H3          2.0680    4.0870   -0.6390 ha        1 XFL      0.143000
     26 H4         -0.0000    5.3660    0.0030 ha        1 XFL      0.136000
     27 H5         -2.0680    4.0860    0.6430 ha        1 XFL      0.143000
     28 HN12        5.5560   -0.9530   -3.6330 hn        1 XFL      0.399300
     29 HN1A        6.8090   -1.8870   -3.0530 hn        1 XFL      0.399300
     30 H13         7.4650   -1.9790   -0.6910 ha        1 XFL      0.140000
     31 H15         4.3320   -0.6910    2.0020 ha        1 XFL      0.143000
     32 H17         7.3540   -0.9740    2.3860 hc        1 XFL      0.049033
     33 H17A        6.1470   -2.2780    2.7440 hc        1 XFL      0.049033
     34 H17B        7.5510   -2.6170    1.6440 hc        1 XFL      0.049033
     35 H18         1.8650   -0.6010   -0.0840 hc        1 XFL      0.065700
     36 H18A        2.5490    0.4880    1.1900 hc        1 XFL      0.065700
     37 H19         2.2190    1.0790   -1.8320 hc        1 XFL      0.065700
     38 H19A        3.2210    2.1070   -0.7290 hc        1 XFL      0.065700
     39 HN22       -5.5570   -0.9550    3.6320 hn        1 XFL      0.399300
     40 HN2A       -6.8100   -1.8880    3.0510 hn        1 XFL      0.399300
     41 H23        -7.4650   -1.9800    0.6890 ha        1 XFL      0.140000
     42 H25        -4.3310   -0.6910   -2.0020 ha        1 XFL      0.143000
     43 H27        -7.3540   -0.9740   -2.3870 hc        1 XFL      0.049033
     44 H27A       -6.1460   -2.2780   -2.7460 hc        1 XFL      0.049033
     45 H27B       -7.5500   -2.6170   -1.6460 hc        1 XFL      0.049033
     46 H28        -1.8650   -0.6010    0.0850 hc        1 XFL      0.065700
     47 H28A       -2.5490    0.4890   -1.1890 hc        1 XFL      0.065700
     48 H29        -2.2190    1.0780    1.8330 hc        1 XFL      0.065700
     49 H29A       -3.2210    2.1070    0.7310 hc        1 XFL      0.065700
     50 C17         6.8030   -1.8450    1.9490 c3        1 XFL     -0.060800
     51 C27        -6.8020   -1.8440   -1.9510 c3        1 XFL     -0.060800
@<TRIPOS>BOND
     1    1    2 ar  
     2    1    6 ar  
     3    2    3 ar  
     4    2   15 1   
     5    3    4 ar  
     6    3   25 1   
     7    4    5 ar  
     8    4   26 1   
     9    5    6 ar  
    10    5   27 1   
    11    6   24 1   
    12    7    8 ar  
    13    7   13 ar  
    14    8    9 1   
    15    8   10 ar  
    16    9   28 1   
    17    9   29 1   
    18   10   11 ar  
    19   10   30 1   
    20   11   12 ar  
    21   11   50 1   
    22   12   13 ar  
    23   12   31 1   
    24   13   14 1   
    25   14   15 1   
    26   14   35 1   
    27   14   36 1   
    28   15   37 1   
    29   15   38 1   
    30   16   17 ar  
    31   16   22 ar  
    32   17   18 1   
    33   17   19 ar  
    34   18   39 1   
    35   18   40 1   
    36   19   20 ar  
    37   19   41 1   
    38   20   21 ar  
    39   20   51 1   
    40   21   22 ar  
    41   21   42 1   
    42   22   23 1   
    43   23   24 1   
    44   23   46 1   
    45   23   47 1   
    46   24   48 1   
    47   24   49 1   
    48   32   50 1   
    49   33   50 1   
    50   34   50 1   
    51   43   51 1   
    52   44   51 1   
    53   45   51 1   
@<TRIPOS>SUBSTRUCTURE
     1 XFL         1 TEMP              0 ****  ****    0 ROOT
