@<TRIPOS>MOLECULE
XFL
   51    50     1     0     0
SMALL
bcc


@<TRIPOS>ATOM
      1 N1          1.2920    1.1130    0.8650 ne        1 XFL     -0.416700
      2 C2          2.5600    1.3650    1.2490 cg        1 XFL     -0.058000
      3 C3         -0.0070   -0.6270    4.6870 c1        1 XFL     -0.132500
      4 C4          0.1520    0.3300    3.9870 c1        1 XFL     -0.148100
      5 C5          0.3550    1.4870    3.1670 c3        1 XFL     -0.088600
      6 C6          0.2840    1.1510    1.6890 cf        1 XFL      0.513600
      7 N11         0.6820   -0.1630   -5.7330 nb        1 XFL     -0.733000
      8 C12         1.2530   -0.9240   -6.7190 ca        1 XFL      0.624200
      9 N12         0.8090   -0.7630   -8.0460 nh        1 XFL     -0.920500
     10 C13         2.2290   -1.9240   -6.4350 ca        1 XFL     -0.304300
     11 C14         2.5950   -2.1520   -5.1090 ca        1 XFL     -0.007300
     12 C15         2.0000   -1.3870   -4.1010 ca        1 XFL     -0.292300
     13 C16         1.0500   -0.4080   -4.4560 ca        1 XFL      0.458600
     14 C18         0.4130    0.3900   -3.3610 c3        1 XFL     -0.163400
     15 C19         3.7270    1.5640    1.4570 c1        1 XFL     -0.154500
     16 N21        -3.0130   -0.2890   -1.5860 nb        1 XFL     -0.720000
     17 C22        -4.2990   -0.5360   -1.9800 ca        1 XFL      0.637200
     18 N22        -4.5240   -1.4070   -3.0570 nh        1 XFL     -0.924500
     19 C23        -5.4230    0.0060   -1.2800 ca        1 XFL     -0.292300
     20 C24        -5.2020    0.7850   -0.1490 ca        1 XFL     -0.008300
     21 C25        -3.8850    1.0190    0.2690 ca        1 XFL     -0.284300
     22 C26        -2.8250    0.4630   -0.4740 ca        1 XFL      0.477100
     23 C28        -1.4340    0.7220   -0.0640 ce        1 XFL     -0.156800
     24 C29        -1.0810    0.8700    1.2220 cf        1 XFL     -0.242600
     25 H3         -0.1480   -1.4770    5.3050 ha        1 XFL      0.167500
     26 H4          1.3520    1.9510    3.4180 hc        1 XFL      0.079700
     27 H5         -0.4400    2.2560    3.3940 hc        1 XFL      0.079700
     28 HN12        1.5270   -0.9190   -8.7180 hn        1 XFL      0.395300
     29 HN1A        0.2800    0.0640   -8.2210 hn        1 XFL      0.395300
     30 H13         2.6780   -2.5130   -7.2450 ha        1 XFL      0.139000
     31 H15         2.2660   -1.5420   -3.0480 ha        1 XFL      0.146000
     32 H17         3.0610   -4.1420   -4.4870 hc        1 XFL      0.048033
     33 H17A        4.2220   -2.8770   -3.9070 hc        1 XFL      0.048033
     34 H17B        4.2570   -3.4160   -5.6400 hc        1 XFL      0.048033
     35 H18         0.1760    1.4310   -3.6880 hc        1 XFL      0.060033
     36 H18A       -0.5400   -0.1080   -3.0490 hc        1 XFL      0.060033
     37 H19         1.0980    0.4400   -2.4780 hc        1 XFL      0.060033
     38 H19A        4.7580    1.7370    1.6250 ha        1 XFL      0.174500
     39 HN22       -5.3430   -1.1920   -3.5800 hn        1 XFL      0.405800
     40 HN2A       -3.7290   -1.6210   -3.6190 hn        1 XFL      0.405800
     41 H23        -6.4450   -0.1980   -1.6260 ha        1 XFL      0.143000
     42 H25        -3.6830    1.6370    1.1550 ha        1 XFL      0.144000
     43 H27        -7.2740    1.3550    0.0070 hc        1 XFL      0.050033
     44 H27A       -6.1140    2.4030    0.9280 hc        1 XFL      0.050033
     45 H27B       -6.5160    0.7430    1.5360 hc        1 XFL      0.050033
     46 H28        -3.2920    2.7900    3.2210 ha        1 XFL      0.001000
     47 H28A       -2.6530    2.6390    3.0570 ha        1 XFL      0.001000
     48 H29        -0.6940    0.7760   -0.8860 ha        1 XFL      0.166000
     49 H29A       -1.8210    0.7800    2.0370 ha        1 XFL      0.141000
     50 C17         3.5890   -3.1970   -4.7710 c3        1 XFL     -0.059800
     51 C27        -6.3370    1.3530    0.6150 c3        1 XFL     -0.061800
@<TRIPOS>BOND
     1    1    2 1   
     2    1    6 2   
     3    2   15 3   
     4    3    4 3   
     5    3   25 1   
     6    4    5 1   
     7    5    6 1   
     8    5   26 1   
     9    5   27 1   
    10    6   24 1   
    11    7    8 ar  
    12    7   13 ar  
    13    8    9 1   
    14    8   10 ar  
    15    9   28 1   
    16    9   29 1   
    17   10   11 ar  
    18   10   30 1   
    19   11   12 ar  
    20   11   50 1   
    21   12   13 ar  
    22   12   31 1   
    23   13   14 1   
    24   14   35 1   
    25   14   36 1   
    26   14   37 1   
    27   15   38 1   
    28   16   17 ar  
    29   16   22 ar  
    30   17   18 1   
    31   17   19 ar  
    32   18   39 1   
    33   18   40 1   
    34   19   20 ar  
    35   19   41 1   
    36   20   21 ar  
    37   20   51 1   
    38   21   22 ar  
    39   21   42 1   
    40   22   23 1   
    41   23   24 2   
    42   23   48 1   
    43   24   49 1   
    44   32   50 1   
    45   33   50 1   
    46   34   50 1   
    47   43   51 1   
    48   44   51 1   
    49   45   51 1   
    50   46   47 1   
@<TRIPOS>SUBSTRUCTURE
     1 XFL         1 TEMP              0 ****  ****    0 ROOT
