@<TRIPOS>MOLECULE
XFL
   51    50     1     0     0
SMALL
bcc


@<TRIPOS>ATOM
      1 N1         -0.2550    0.5180   -0.0180 ne        1 XFL     -0.428700
      2 C2          1.0010    0.1680    0.0450 cf        1 XFL      0.565900
      3 C3          1.8350   -0.0030    1.2480 cf        1 XFL     -0.307700
      4 C4          1.3980   -0.4020    2.4120 c1        1 XFL      0.020200
      5 C5          1.0090   -0.8160    3.5770 c2        1 XFL     -0.231100
      6 C6         -1.0150    0.7980    1.0550 cg        1 XFL     -0.051000
      7 N11         2.2840    1.0630   -4.5590 nb        1 XFL     -0.719000
      8 C12         2.9830    0.7750   -5.7000 ca        1 XFL      0.633200
      9 N12         3.0100    1.7230   -6.7360 nv        1 XFL     -0.924500
     10 C13         3.6240   -0.4870   -5.9000 ca        1 XFL     -0.292300
     11 C14         3.5070   -1.4660   -4.9180 ca        1 XFL     -0.008300
     12 C15         2.7750   -1.1800   -3.7580 ca        1 XFL     -0.282300
     13 C16         2.1870    0.0920   -3.6180 ca        1 XFL      0.477100
     14 C18         1.4170    0.4010   -2.4000 ce        1 XFL     -0.159800
     15 C19         1.7410   -0.1070   -1.2010 cf        1 XFL     -0.239600
     16 N21        -5.9340   -0.6170   -0.7130 ne        1 XFL     -0.608300
     17 C22        -6.9510   -0.0910    0.1390 ce        1 XFL      0.302600
     18 N22        -8.0010   -0.9640    0.4840 nv        1 XFL     -0.799600
     19 C23        -6.8880    1.1840    0.6520 cf        1 XFL     -0.258000
     20 C24        -5.7570    2.0470    0.3940 cf        1 XFL     -0.048200
     21 C25        -4.6130    1.4750   -0.3750 c3        1 XFL     -0.149500
     22 C26        -4.8810    0.1080   -0.9420 c2        1 XFL      0.468300
     23 C28        -3.7880   -0.3850   -1.8400 c3        1 XFL     -0.152400
     24 C29        -1.8140    1.0850    1.9090 c1        1 XFL     -0.161500
     25 H3          2.9090    0.2250    1.1060 ha        1 XFL      0.155000
     26 H4          0.6650   -0.1230    4.3610 ha        1 XFL      0.143000
     27 H5          0.9910   -1.8830    3.8460 ha        1 XFL      0.143000
     28 HN12        3.8460    1.7000   -7.2750 hn        1 XFL      0.403800
     29 HN1A        2.7080    2.6410   -6.4950 hn        1 XFL      0.403800
     30 H13         4.1890   -0.6860   -6.8210 ha        1 XFL      0.143000
     31 H15         2.6580   -1.9390   -2.9720 ha        1 XFL      0.147000
     32 H17         5.0460   -2.7280   -5.7380 hc        1 XFL      0.051033
     33 H17A        3.4100   -3.4940   -5.5830 hc        1 XFL      0.051033
     34 H17B        4.4280   -3.2290   -4.1050 hc        1 XFL      0.051033
     35 H18         3.8970   -2.7850   -1.1250 ha        1 XFL      0.001000
     36 H18A        4.1600   -3.1010   -1.6630 ha        1 XFL      0.001000
     37 H19         2.6130   -0.7720   -1.0680 ha        1 XFL      0.139000
     38 H19A        0.5620    1.0880   -2.5320 ha        1 XFL      0.165000
     39 HN22       -8.8670   -0.4880    0.6180 hn        1 XFL      0.391800
     40 HN2A       -8.0880   -1.7690   -0.0980 hn        1 XFL      0.391800
     41 H23        -7.6930    1.5900    1.2800 ha        1 XFL      0.136000
     42 H25        -4.3350    2.1650   -1.2180 hc        1 XFL      0.079700
     43 H27        -6.5350    3.7600    1.4120 ha        1 XFL      0.112500
     44 H27A       -3.7110    1.4000    0.3000 hc        1 XFL      0.079700
     45 H27B       -4.8620    3.9730    0.6380 ha        1 XFL      0.112500
     46 H28        -2.8060   -0.2750   -1.3160 hc        1 XFL      0.062700
     47 H28A       -3.7720    0.2400   -2.7670 hc        1 XFL      0.062700
     48 H29        -3.9210   -1.4540   -2.1330 hc        1 XFL      0.062700
     49 H29A       -2.5230    1.3340    2.6550 ha        1 XFL      0.177500
     50 C17         4.1350   -2.7960   -5.0940 c3        1 XFL     -0.062800
     51 C27        -5.7170    3.3150    0.8340 c2        1 XFL     -0.248000
@<TRIPOS>BOND
     1    1    2 2   
     2    1    6 1   
     3    2    3 1   
     4    2   15 1   
     5    3    4 2   
     6    3   25 1   
     7    4    5 2   
     8    5   26 1   
     9    5   27 1   
    10    6   24 3   
    11    7    8 ar  
    12    7   13 ar  
    13    8    9 1   
    14    8   10 ar  
    15    9   28 1   
    16    9   29 1   
    17   10   11 ar  
    18   10   30 1   
    19   11   12 ar  
    20   11   50 1   
    21   12   13 ar  
    22   12   31 1   
    23   13   14 1   
    24   14   15 2   
    25   14   38 1   
    26   15   37 1   
    27   16   17 1   
    28   16   22 2   
    29   17   18 1   
    30   17   19 2   
    31   18   39 1   
    32   18   40 1   
    33   19   20 1   
    34   19   41 1   
    35   20   21 1   
    36   20   51 2   
    37   21   22 1   
    38   21   42 1   
    39   21   44 1   
    40   22   23 1   
    41   23   46 1   
    42   23   47 1   
    43   23   48 1   
    44   24   49 1   
    45   32   50 1   
    46   33   50 1   
    47   34   50 1   
    48   35   36 1   
    49   43   51 1   
    50   45   51 1   
@<TRIPOS>SUBSTRUCTURE
     1 XFL         1 TEMP              0 ****  ****    0 ROOT
