@<TRIPOS>MOLECULE
XFL
   53    53     1     0     0
SMALL
bcc


@<TRIPOS>ATOM
      1 N1       -292.9040   18.8890  389.1150 n2        1 XFL     -0.201000
      2 C2       -293.7530   18.5500  388.1680 c2        1 XFL     -0.048000
      3 C3       -294.8750   17.6050  388.4420 c2        1 XFL     -0.213000
      4 C4       -294.6930   16.2800  388.5620 c2        1 XFL     -0.075000
      5 C5       -293.9470   17.2120  390.5980 c1        1 XFL      0.159000
      6 C6       -293.0630   18.2030  390.3420 c2        1 XFL     -0.365000
      7 N11       479.9040  -32.8950 -650.0830 na        1 XFL     -0.191000
      8 C12       480.6810  -31.7480 -649.9960 c2        1 XFL      0.264000
      9 N12       480.2770  -30.5860 -650.5860 nh        1 XFL     -0.349000
     10 C13       481.9220  -31.8110 -649.2710 c2        1 XFL     -0.243000
     11 C14       482.3260  -32.9910 -648.6750 c2        1 XFL      0.103000
     12 C15       481.5010  -34.1420 -648.7870 c2        1 XFL     -0.197000
     13 C16       480.3080  -34.0810 -649.4850 c2        1 XFL      0.090000
     14 C18       479.4180  -35.2710 -649.6220 c3        1 XFL     -0.217000
     15 C19      -293.6380   18.8700  386.7940 c1        1 XFL      0.081000
     16 N21      -292.1860   19.9890  391.8590 n3        1 XFL     -0.178000
     17 C22      -291.5530   20.9930  391.1670 c2        1 XFL      0.331000
     18 N22      -290.7730   20.7640  390.0850 n3        1 XFL     -0.301000
     19 C23      -291.6390   22.3790  391.6670 c2        1 XFL     -0.264000
     20 C24      -292.2010   22.6600  392.8620 c2        1 XFL      0.061000
     21 C25      -292.7760   21.5760  393.7010 c3        1 XFL     -0.136000
     22 C26      -293.0940   20.3380  392.9100 c2        1 XFL     -0.031000
     23 C28      -294.1780   19.5990  393.2110 c2        1 XFL     -0.185000
     24 C29      -292.1130   18.5920  391.4550 c3        1 XFL      0.030000
     25 H3       -293.7270   15.7840  388.3750 ha        1 XFL      0.153500
     26 H4       -295.8590   18.0860  388.5770 ha        1 XFL      0.170000
     27 H5       -295.5260   15.6070  388.8250 ha        1 XFL      0.153500
     28 HN12      480.8590  -29.7830 -650.5050 hn        1 XFL      0.270500
     29 HN1A      479.0330  -32.8900 -650.5800 hn        1 XFL      0.276000
     30 H13       482.5420  -30.9020 -649.2000 ha        1 XFL      0.187000
     31 H15       481.8160  -35.0870 -648.3150 ha        1 XFL      0.192000
     32 H17       484.1420  -32.1030 -647.9150 hc        1 XFL      0.125333
     33 H17A      483.3940  -33.3850 -646.8650 hc        1 XFL      0.125333
     34 H17B      484.2610  -33.8550 -648.3880 hc        1 XFL      0.125333
     35 H18       479.2870  -35.5490 -650.6990 hc        1 XFL      0.129667
     36 H18A      479.8700  -36.1440 -649.0860 hc        1 XFL      0.129667
     37 H19      -294.0570   19.7650  386.3290 ha        1 XFL      0.132000
     38 H19A      478.4100  -35.0700 -649.1780 hc        1 XFL      0.129667
     39 HN22     -291.0550   18.3510  391.1420 h1        1 XFL      0.132000
     40 HN2A     -290.7260   19.8800  389.6250 hn        1 XFL      0.275500
     41 H23      -291.2150   23.1730  391.0310 ha        1 XFL      0.175000
     42 H25      -292.0400   21.3210  394.5180 hc        1 XFL      0.144000
     43 H27      -291.6580   24.7490  392.8060 hc        1 XFL      0.120000
     44 H27A     -291.9030   24.0460  394.4640 hc        1 XFL      0.120000
     45 H27B     -293.3340   24.3850  393.4020 hc        1 XFL      0.120000
     46 H28      -293.7130   21.9410  394.2070 hc        1 XFL      0.144000
     47 H28A     -294.8360   19.8880  394.0440 ha        1 XFL      0.153000
     48 H29      -292.3380   17.9650  392.3700 h1        1 XFL      0.132000
     49 H29A     -294.4740   18.6850  392.6750 ha        1 XFL      0.153000
     50 C27      -292.2700   24.0310  393.4060 c3        1 XFL     -0.219000
     51 H123      479.4280  -30.5070 -651.0940 hn        1 XFL      0.270500
     52 H223     -290.3170   21.5380  389.6540 hn        1 XFL      0.275500
     53 C17       483.5960  -33.0790 -647.9250 c3        1 XFL     -0.219000
@<TRIPOS>BOND
     1    1    2 1   
     2    1    6 1   
     3    2    3 1   
     4    2   15 1   
     5    3    4 1   
     6    3   26 1   
     7    4   25 1   
     8    4   27 1   
     9    5    6 1   
    10    6   24 1   
    11    7    8 1   
    12    7   13 1   
    13    7   29 1   
    14    8    9 1   
    15    8   10 1   
    16    9   28 1   
    17    9   51 1   
    18   10   11 1   
    19   10   30 1   
    20   11   12 1   
    21   11   53 1   
    22   12   13 1   
    23   12   31 1   
    24   13   14 1   
    25   14   35 1   
    26   14   36 1   
    27   14   38 1   
    28   15   37 1   
    29   16   17 1   
    30   16   22 1   
    31   16   24 1   
    32   17   18 1   
    33   17   19 1   
    34   18   40 1   
    35   18   52 1   
    36   19   20 1   
    37   19   41 1   
    38   20   21 1   
    39   20   50 1   
    40   21   22 1   
    41   21   42 1   
    42   21   46 1   
    43   22   23 1   
    44   23   47 1   
    45   23   49 1   
    46   24   39 1   
    47   24   48 1   
    48   32   53 1   
    49   33   53 1   
    50   34   53 1   
    51   43   50 1   
    52   44   50 1   
    53   45   50 1   
@<TRIPOS>SUBSTRUCTURE
     1 XFL         1 TEMP              0 ****  ****    0 ROOT
