@<TRIPOS>MOLECULE
XFM
   51    53     1     0     0
SMALL
bcc


@<TRIPOS>ATOM
      1 N1          4.5570   -0.5250   -1.3000 nb        1 XFM     -0.732000
      2 C2          4.0790   -0.3760   -0.0460 ca        1 XFM      0.450600
      3 C3          4.8020   -0.7500    1.1050 ca        1 XFM     -0.294300
      4 C4          6.0790   -1.3040    0.9540 ca        1 XFM     -0.005300
      5 C5          6.6000   -1.4600   -0.3290 ca        1 XFM     -0.302300
      6 C6          5.8160   -1.0460   -1.4470 ca        1 XFM      0.631200
      7 C7          2.6920    0.1790    0.1440 c3        1 XFM     -0.121700
      8 C8          2.4070    1.3630   -0.7570 c3        1 XFM     -0.121700
      9 C9          1.1390    2.0830   -0.3910 ca        1 XFM      0.416600
     10 N10         0.0380    1.3690   -0.0640 nb        1 XFM     -0.674000
     11 C11        -1.0980    2.0450    0.2320 ca        1 XFM      0.413600
     12 C12        -1.1720    3.4550    0.2120 ca        1 XFM     -0.251300
     13 C13        -0.0310    4.1820   -0.1260 ca        1 XFM     -0.089000
     14 C14         1.1430    3.4970   -0.4320 ca        1 XFM     -0.250300
     15 C15        -2.3260    1.2660    0.6120 c3        1 XFM     -0.123700
     16 C16        -2.8050    0.3820   -0.5270 c3        1 XFM     -0.040100
     17 C17        -4.0540   -0.3410   -0.1570 ca        1 XFM     -0.008300
     18 C18        -4.0150   -1.3900    0.7690 ca        1 XFM     -0.291300
     19 C19        -5.2100   -2.0650    1.0870 ca        1 XFM      0.451600
     20 N20        -6.4050   -1.7530    0.5370 nb        1 XFM     -0.730000
     21 C21        -6.4460   -0.7150   -0.3560 ca        1 XFM      0.629200
     22 C22        -5.2730    0.0060   -0.7340 ca        1 XFM     -0.300300
     23 N23        -7.6920   -0.2990   -0.8590 nh        1 XFM     -0.922500
     24 C24        -5.1590   -3.1860    2.0790 c3        1 XFM     -0.149400
     25 C25         6.8550   -1.7240    2.1430 c3        1 XFM     -0.060800
     26 N26         6.3800   -1.1060   -2.7340 nh        1 XFM     -0.922500
     27 H3          4.3690   -0.6110    2.1030 ha        1 XFM      0.142000
     28 H5          7.6030   -1.8820   -0.4750 ha        1 XFM      0.141000
     29 H7          1.9520   -0.6410   -0.0600 hc        1 XFM      0.065200
     30 H7A         2.5700    0.4850    1.2170 hc        1 XFM      0.065200
     31 H8          3.2630    2.0880   -0.7070 hc        1 XFM      0.066700
     32 H8A         2.3220    1.0180   -1.8240 hc        1 XFM      0.066700
     33 H12        -2.1120    3.9650    0.4590 ha        1 XFM      0.143000
     34 H13        -0.0580    5.2810   -0.1490 ha        1 XFM      0.137000
     35 H14         2.0590    4.0400   -0.7010 ha        1 XFM      0.144000
     36 H15        -2.1040    0.6280    1.5100 hc        1 XFM      0.059200
     37 H15A       -3.1410    1.9820    0.9000 hc        1 XFM      0.059200
     38 H16        -2.9780    1.0110   -1.4410 hc        1 XFM      0.062700
     39 H16A       -2.0080   -0.3680   -0.7830 hc        1 XFM      0.062700
     40 H18        -3.0670   -1.6830    1.2370 ha        1 XFM      0.144000
     41 H22        -5.3340    0.8260   -1.4610 ha        1 XFM      0.141000
     42 HN23       -8.4480   -0.9330   -0.7170 hn        1 XFM      0.399300
     43 HN2A       -7.6420    0.0590   -1.7860 hn        1 XFM      0.399300
     44 H24        -5.7150   -2.9010    3.0060 hc        1 XFM      0.052700
     45 H24A       -5.6260   -4.1100    1.6590 hc        1 XFM      0.052700
     46 H24B       -4.0990   -3.4120    2.3500 hc        1 XFM      0.052700
     47 H25         6.4780   -2.7120    2.5120 hc        1 XFM      0.049033
     48 H25A        7.9410   -1.8310    1.9010 hc        1 XFM      0.049033
     49 H25B        6.7470   -0.9780    2.9680 hc        1 XFM      0.049033
     50 HN26        7.0080   -1.8690   -2.8540 hn        1 XFM      0.399300
     51 HN2B        5.7420   -0.9900   -3.4910 hn        1 XFM      0.399300
@<TRIPOS>BOND
     1    1    2 ar  
     2    1    6 ar  
     3    2    3 ar  
     4    2    7 1   
     5    3    4 ar  
     6    3   27 1   
     7    4    5 ar  
     8    4   25 1   
     9    5    6 ar  
    10    5   28 1   
    11    6   26 1   
    12    7    8 1   
    13    7   29 1   
    14    7   30 1   
    15    8    9 1   
    16    8   31 1   
    17    8   32 1   
    18    9   10 ar  
    19    9   14 ar  
    20   10   11 ar  
    21   11   12 ar  
    22   11   15 1   
    23   12   13 ar  
    24   12   33 1   
    25   13   14 ar  
    26   13   34 1   
    27   14   35 1   
    28   15   16 1   
    29   15   36 1   
    30   15   37 1   
    31   16   17 1   
    32   16   38 1   
    33   16   39 1   
    34   17   18 ar  
    35   17   22 ar  
    36   18   19 ar  
    37   18   40 1   
    38   19   20 ar  
    39   19   24 1   
    40   20   21 ar  
    41   21   22 ar  
    42   21   23 1   
    43   22   41 1   
    44   23   42 1   
    45   23   43 1   
    46   24   44 1   
    47   24   45 1   
    48   24   46 1   
    49   25   47 1   
    50   25   48 1   
    51   25   49 1   
    52   26   50 1   
    53   26   51 1   
@<TRIPOS>SUBSTRUCTURE
     1 XFM         1 TEMP              0 ****  ****    0 ROOT
