@<TRIPOS>MOLECULE
XFM
   51    53     1     0     0
SMALL
bcc


@<TRIPOS>ATOM
      1 N1         -0.1640   -0.8090    0.2570 nb        1 XFM     -0.733000
      2 C2          1.0010   -0.1540    0.0680 ca        1 XFM      0.451600
      3 C3          1.7410    0.4240    1.1200 ca        1 XFM     -0.295300
      4 C4          1.2530    0.3250    2.4270 ca        1 XFM     -0.005300
      5 C5          0.0490   -0.3410    2.6500 ca        1 XFM     -0.304300
      6 C6         -0.6520   -0.8920    1.5360 ca        1 XFM      0.632200
      7 C7          1.5390   -0.0030   -1.3300 c3        1 XFM     -0.122700
      8 C8          1.3370   -1.2400   -2.1820 c3        1 XFM     -0.120700
      9 C9          2.0970   -1.1850   -3.4780 ca        1 XFM      0.416600
     10 N10         2.1260   -0.0320   -4.1860 nb        1 XFM     -0.673000
     11 C11         2.7940   -0.0220   -5.3640 ca        1 XFM      0.413600
     12 C12         3.4540   -1.1610   -5.8750 ca        1 XFM     -0.251300
     13 C13         3.4180   -2.3440   -5.1380 ca        1 XFM     -0.089000
     14 C14         2.7350   -2.3660   -3.9240 ca        1 XFM     -0.251300
     15 C15         2.8470    1.2560   -6.1550 c3        1 XFM     -0.123700
     16 C16         1.4640    1.6960   -6.6050 c3        1 XFM     -0.040100
     17 C17         1.5390    2.9300   -7.4350 ca        1 XFM     -0.008300
     18 C18         1.8420    4.1620   -6.8440 ca        1 XFM     -0.291300
     19 C19         1.8890    5.3150   -7.6530 ca        1 XFM      0.451600
     20 N20         1.6520    5.2960   -8.9840 nb        1 XFM     -0.730000
     21 C21         1.3730    4.0880   -9.5650 ca        1 XFM      0.629200
     22 C22         1.2960    2.8810   -8.8060 ca        1 XFM     -0.299300
     23 N23         1.2300    4.0220  -10.9630 nh        1 XFM     -0.922500
     24 C24         2.2130    6.6290   -7.0110 c3        1 XFM     -0.149400
     25 C25         2.0000    0.9300    3.5540 c3        1 XFM     -0.060800
     26 N26        -1.9150   -1.4710    1.7440 nh        1 XFM     -0.924500
     27 H3          2.6850    0.9430    0.9140 ha        1 XFM      0.142000
     28 H5         -0.3580   -0.4300    3.6660 ha        1 XFM      0.141000
     29 H7          1.0260    0.8760   -1.8080 hc        1 XFM      0.066200
     30 H7A         2.6330    0.2370   -1.2710 hc        1 XFM      0.066200
     31 H8          1.6630   -2.1480   -1.6100 hc        1 XFM      0.065200
     32 H8A         0.2450   -1.3640   -2.4190 hc        1 XFM      0.065200
     33 H12         3.9840   -1.1110   -6.8350 ha        1 XFM      0.143000
     34 H13         3.9240   -3.2470   -5.5100 ha        1 XFM      0.137000
     35 H14         2.6890   -3.2810   -3.3200 ha        1 XFM      0.143000
     36 H15         3.5040    1.1050   -7.0520 hc        1 XFM      0.059200
     37 H15A        3.3110    2.0660   -5.5300 hc        1 XFM      0.059200
     38 H16         0.9790    0.8670   -7.1860 hc        1 XFM      0.063200
     39 H16A        0.8220    1.8960   -5.7050 hc        1 XFM      0.063200
     40 H18         2.0360    4.2290   -5.7660 ha        1 XFM      0.144000
     41 H22         1.0590    1.9270   -9.2970 ha        1 XFM      0.141000
     42 HN23        1.1090    4.8970  -11.4250 hn        1 XFM      0.398800
     43 HN2A        0.5860    3.3230  -11.2590 hn        1 XFM      0.398800
     44 H24         2.2740    6.5110   -5.9020 hc        1 XFM      0.052700
     45 H24A        1.4300    7.3910   -7.2490 hc        1 XFM      0.052700
     46 H24B        3.1970    7.0070   -7.3880 hc        1 XFM      0.052700
     47 H25         3.1030    0.8400    3.3930 hc        1 XFM      0.048700
     48 H25A        1.7400    0.4360    4.5220 hc        1 XFM      0.048700
     49 H25B        1.7450    2.0170    3.6350 hc        1 XFM      0.048700
     50 HN26       -2.0020   -1.9260    2.6260 hn        1 XFM      0.400300
     51 HN2B       -2.2820   -1.9980    0.9820 hn        1 XFM      0.400300
@<TRIPOS>BOND
     1    1    2 ar  
     2    1    6 ar  
     3    2    3 ar  
     4    2    7 1   
     5    3    4 ar  
     6    3   27 1   
     7    4    5 ar  
     8    4   25 1   
     9    5    6 ar  
    10    5   28 1   
    11    6   26 1   
    12    7    8 1   
    13    7   29 1   
    14    7   30 1   
    15    8    9 1   
    16    8   31 1   
    17    8   32 1   
    18    9   10 ar  
    19    9   14 ar  
    20   10   11 ar  
    21   11   12 ar  
    22   11   15 1   
    23   12   13 ar  
    24   12   33 1   
    25   13   14 ar  
    26   13   34 1   
    27   14   35 1   
    28   15   16 1   
    29   15   36 1   
    30   15   37 1   
    31   16   17 1   
    32   16   38 1   
    33   16   39 1   
    34   17   18 ar  
    35   17   22 ar  
    36   18   19 ar  
    37   18   40 1   
    38   19   20 ar  
    39   19   24 1   
    40   20   21 ar  
    41   21   22 ar  
    42   21   23 1   
    43   22   41 1   
    44   23   42 1   
    45   23   43 1   
    46   24   44 1   
    47   24   45 1   
    48   24   46 1   
    49   25   47 1   
    50   25   48 1   
    51   25   49 1   
    52   26   50 1   
    53   26   51 1   
@<TRIPOS>SUBSTRUCTURE
     1 XFM         1 TEMP              0 ****  ****    0 ROOT
