@<TRIPOS>MOLECULE
XFM
   53    55     1     0     0
SMALL
bcc


@<TRIPOS>ATOM
      1 N1         -0.1260   -0.7830    0.5130 nb        1 XFM     -0.673000
      2 C2          1.0630   -0.1990    0.2710 ca        1 XFM      0.466600
      3 C3          1.8870    0.2980    1.3190 ca        1 XFM     -0.204300
      4 C4          1.4740    0.1880    2.6450 ca        1 XFM      0.005700
      5 C5          0.2330   -0.4250    2.9170 ca        1 XFM     -0.211300
      6 C6         -0.5110   -0.8850    1.8190 ca        1 XFM      0.449200
      7 C7          1.5600   -0.0270   -1.1370 c3        1 XFM     -0.135700
      8 C8          0.9700   -0.9980   -2.1400 c3        1 XFM     -0.118700
      9 C9          1.7370   -0.9760   -3.4350 ca        1 XFM      0.399600
     10 N10         1.8410    0.1890   -4.1190 nb        1 XFM     -0.674000
     11 C11         2.5350    0.1790   -5.2820 ca        1 XFM      0.399600
     12 C12         3.1410   -0.9850   -5.8010 ca        1 XFM     -0.233300
     13 C13         3.0210   -2.1790   -5.0920 ca        1 XFM     -0.077000
     14 C14         2.3120   -2.1830   -3.8920 ca        1 XFM     -0.229300
     15 C15         2.6790    1.4630   -6.0530 c3        1 XFM     -0.123700
     16 C16         1.4470    1.7150   -6.9080 c3        1 XFM     -0.054100
     17 C17         1.5940    2.9420   -7.7390 ca        1 XFM     -0.005300
     18 C18         1.6850    4.2020   -7.1520 ca        1 XFM     -0.203300
     19 C19         1.8100    5.3600   -7.9670 ca        1 XFM      0.474600
     20 N20         1.8390    5.2860   -9.3130 nb        1 XFM     -0.662000
     21 C21         1.7460    4.0450   -9.8680 ca        1 XFM      0.451200
     22 C22         1.6240    2.8470   -9.1450 ca        1 XFM     -0.212300
     23 N23         1.7780    4.0020  -11.3490 n4        1 XFM     -0.818300
     24 C24         1.9120    6.6930   -7.3000 c3        1 XFM     -0.169400
     25 C25         2.2980    0.7000    3.7610 c3        1 XFM     -0.082800
     26 N26        -1.8180   -1.5420    2.0580 n4        1 XFM     -0.818300
     27 H3          2.8530    0.7680    1.0710 ha        1 XFM      0.181000
     28 H5         -0.1100   -0.5260    3.9580 ha        1 XFM      0.171000
     29 H7          2.6790   -0.1380   -1.1230 hc        1 XFM      0.086200
     30 H7A         1.3300    1.0290   -1.4530 hc        1 XFM      0.086200
     31 H8         -0.1040   -0.7390   -2.3400 hc        1 XFM      0.066200
     32 H8A         0.9950   -2.0410   -1.7250 hc        1 XFM      0.066200
     33 H12         3.7030   -0.9470   -6.7450 ha        1 XFM      0.149000
     34 H13         3.4830   -3.1040   -5.4710 ha        1 XFM      0.157000
     35 H14         2.2020   -3.1080   -3.3100 ha        1 XFM      0.153000
     36 H15         3.5890    1.3910   -6.7060 hc        1 XFM      0.064200
     37 H15A        2.8350    2.3270   -5.3520 hc        1 XFM      0.064200
     38 H16         1.2590    0.8220   -7.5630 hc        1 XFM      0.078200
     39 H16A        0.5490    1.8330   -6.2400 hc        1 XFM      0.078200
     40 H18         1.6610    4.3160   -6.0560 ha        1 XFM      0.180000
     41 H22         1.5510    1.8630   -9.6330 ha        1 XFM      0.167000
     42 HN23        1.7060    3.0300  -11.6620 hn        1 XFM      0.472467
     43 HN2A        0.9930    4.5470  -11.7300 hn        1 XFM      0.472467
     44 H24         1.0440    6.8240   -6.6050 hc        1 XFM      0.082033
     45 H24A        1.9150    7.5420   -8.0290 hc        1 XFM      0.082033
     46 H24B        2.8600    6.7320   -6.7060 hc        1 XFM      0.082033
     47 H25         1.8470    1.6410    4.1680 hc        1 XFM      0.078700
     48 H25A        2.3520   -0.0490    4.5910 hc        1 XFM      0.078700
     49 H25B        3.3400    0.9280    3.4240 hc        1 XFM      0.078700
     50 HN26       -1.7730   -2.5230    1.7540 hn        1 XFM      0.471467
     51 HN2B       -2.0370   -1.5010    3.0580 hn        1 XFM      0.471467
     52 H233        2.6580    4.4110  -11.6900 hn        1 XFM      0.472467
     53 H263       -2.5540   -1.0630    1.5240 hn        1 XFM      0.471467
@<TRIPOS>BOND
     1    1    2 ar  
     2    1    6 ar  
     3    2    3 ar  
     4    2    7 1   
     5    3    4 ar  
     6    3   27 1   
     7    4    5 ar  
     8    4   25 1   
     9    5    6 ar  
    10    5   28 1   
    11    6   26 1   
    12    7    8 1   
    13    7   29 1   
    14    7   30 1   
    15    8    9 1   
    16    8   31 1   
    17    8   32 1   
    18    9   10 ar  
    19    9   14 ar  
    20   10   11 ar  
    21   11   12 ar  
    22   11   15 1   
    23   12   13 ar  
    24   12   33 1   
    25   13   14 ar  
    26   13   34 1   
    27   14   35 1   
    28   15   16 1   
    29   15   36 1   
    30   15   37 1   
    31   16   17 1   
    32   16   38 1   
    33   16   39 1   
    34   17   18 ar  
    35   17   22 ar  
    36   18   19 ar  
    37   18   40 1   
    38   19   20 ar  
    39   19   24 1   
    40   20   21 ar  
    41   21   22 ar  
    42   21   23 1   
    43   22   41 1   
    44   23   42 1   
    45   23   43 1   
    46   23   52 1   
    47   24   44 1   
    48   24   45 1   
    49   24   46 1   
    50   25   47 1   
    51   25   48 1   
    52   25   49 1   
    53   26   50 1   
    54   26   51 1   
    55   26   53 1   
@<TRIPOS>SUBSTRUCTURE
     1 XFM         1 TEMP              0 ****  ****    0 ROOT
