@<TRIPOS>MOLECULE
XFM
   51    53     1     0     0
SMALL
bcc


@<TRIPOS>ATOM
      1 N1         -0.1390   -0.8060    0.2710 nb        1 XFM     -0.733000
      2 C2          1.0240   -0.1480    0.0720 ca        1 XFM      0.451600
      3 C3          1.7690    0.4340    1.1180 ca        1 XFM     -0.295300
      4 C4          1.2900    0.3380    2.4290 ca        1 XFM     -0.005300
      5 C5          0.0890   -0.3300    2.6610 ca        1 XFM     -0.304300
      6 C6         -0.6180   -0.8850    1.5530 ca        1 XFM      0.632200
      7 C7          1.5520   -0.0000   -1.3300 c3        1 XFM     -0.122700
      8 C8          1.3440   -1.2380   -2.1780 c3        1 XFM     -0.120700
      9 C9          2.0950   -1.1860   -3.4790 ca        1 XFM      0.416600
     10 N10         2.1210   -0.0340   -4.1890 nb        1 XFM     -0.673000
     11 C11         2.7800   -0.0260   -5.3720 ca        1 XFM      0.413600
     12 C12         3.4350   -1.1670   -5.8860 ca        1 XFM     -0.251300
     13 C13         3.4030   -2.3490   -5.1470 ca        1 XFM     -0.089000
     14 C14         2.7290   -2.3680   -3.9290 ca        1 XFM     -0.251300
     15 C15         2.8300    1.2500   -6.1640 c3        1 XFM     -0.123700
     16 C16         1.4450    1.6930   -6.6030 c3        1 XFM     -0.040100
     17 C17         1.5150    2.9270   -7.4360 ca        1 XFM     -0.008300
     18 C18         1.8260    4.1590   -6.8480 ca        1 XFM     -0.291300
     19 C19         1.8690    5.3110   -7.6580 ca        1 XFM      0.451600
     20 N20         1.6210    5.2900   -8.9880 nb        1 XFM     -0.730000
     21 C21         1.3350    4.0820   -9.5650 ca        1 XFM      0.629200
     22 C22         1.2620    2.8760   -8.8040 ca        1 XFM     -0.299300
     23 N23         1.1810    4.0150  -10.9620 nv        1 XFM     -0.922500
     24 C24         2.2010    6.6240   -7.0210 c3        1 XFM     -0.149400
     25 C25         2.0430    0.9480    3.5490 c3        1 XFM     -0.060800
     26 N26        -1.8790   -1.4670    1.7720 nv        1 XFM     -0.924500
     27 H3          2.7110    0.9550    0.9050 ha        1 XFM      0.142000
     28 H5         -0.3120   -0.4160    3.6800 ha        1 XFM      0.141000
     29 H7          1.0360    0.8780   -1.8050 hc        1 XFM      0.066200
     30 H7A         2.6470    0.2400   -1.2780 hc        1 XFM      0.066200
     31 H8          1.6750   -2.1460   -1.6060 hc        1 XFM      0.065200
     32 H8A         0.2510   -1.3640   -2.4070 hc        1 XFM      0.065200
     33 H12         3.9580   -1.1190   -6.8500 ha        1 XFM      0.143000
     34 H13         3.9050   -3.2530   -5.5210 ha        1 XFM      0.137000
     35 H14         2.6850   -3.2830   -3.3220 ha        1 XFM      0.143000
     36 H15         3.4800    1.0970   -7.0670 hc        1 XFM      0.059200
     37 H15A        3.3010    2.0600   -5.5440 hc        1 XFM      0.059200
     38 H16         0.9530    0.8650   -7.1800 hc        1 XFM      0.063200
     39 H16A        0.8100    1.8960   -5.6980 hc        1 XFM      0.063200
     40 H18         2.0280    4.2260   -5.7710 ha        1 XFM      0.144000
     41 H22         1.0190    1.9230   -9.2920 ha        1 XFM      0.141000
     42 HN23        0.5330    3.3170  -11.2520 hn        1 XFM      0.398800
     43 HN2A        1.0590    4.8900  -11.4240 hn        1 XFM      0.398800
     44 H24         1.4170    7.3870   -7.2530 hc        1 XFM      0.052700
     45 H24A        2.2700    6.5080   -5.9120 hc        1 XFM      0.052700
     46 H24B        3.1820    7.0000   -7.4050 hc        1 XFM      0.052700
     47 H25         1.7850    2.0340    3.6290 hc        1 XFM      0.048700
     48 H25A        1.7910    0.4550    4.5200 hc        1 XFM      0.048700
     49 H25B        3.1440    0.8600    3.3810 hc        1 XFM      0.048700
     50 HN26       -2.2490   -1.9970    1.0130 hn        1 XFM      0.400300
     51 HN2B       -1.9580   -1.9190    2.6550 hn        1 XFM      0.400300
@<TRIPOS>BOND
     1    1    2 ar  
     2    1    6 ar  
     3    2    3 ar  
     4    2    7 1   
     5    3    4 ar  
     6    3   27 1   
     7    4    5 ar  
     8    4   25 1   
     9    5    6 ar  
    10    5   28 1   
    11    6   26 1   
    12    7    8 1   
    13    7   29 1   
    14    7   30 1   
    15    8    9 1   
    16    8   31 1   
    17    8   32 1   
    18    9   10 ar  
    19    9   14 ar  
    20   10   11 ar  
    21   11   12 ar  
    22   11   15 1   
    23   12   13 ar  
    24   12   33 1   
    25   13   14 ar  
    26   13   34 1   
    27   14   35 1   
    28   15   16 1   
    29   15   36 1   
    30   15   37 1   
    31   16   17 1   
    32   16   38 1   
    33   16   39 1   
    34   17   18 ar  
    35   17   22 ar  
    36   18   19 ar  
    37   18   40 1   
    38   19   20 ar  
    39   19   24 1   
    40   20   21 ar  
    41   21   22 ar  
    42   21   23 1   
    43   22   41 1   
    44   23   42 1   
    45   23   43 1   
    46   24   44 1   
    47   24   45 1   
    48   24   46 1   
    49   25   47 1   
    50   25   48 1   
    51   25   49 1   
    52   26   50 1   
    53   26   51 1   
@<TRIPOS>SUBSTRUCTURE
     1 XFM         1 TEMP              0 ****  ****    0 ROOT
