@<TRIPOS>MOLECULE
XFM
   51    46     1     0     0
SMALL
bcc


@<TRIPOS>ATOM
      1 N1         -1.8210   -1.2460    4.8060 n1        1 XFM     -0.206000
      2 C2         -0.7450   -1.9070    4.2940 c1        1 XFM      0.028000
      3 C3         -0.2680   -3.0470    4.9230 c1        1 XFM     -0.229000
      4 C4         -0.8780   -3.5060    6.0560 c1        1 XFM      0.002000
      5 C5         -1.9550   -2.8430    6.5670 c1        1 XFM     -0.238000
      6 C6         -2.4300   -1.7040    5.9370 c1        1 XFM      0.110000
      7 C7         -0.0110   -1.3420    3.0910 c3        1 XFM     -0.106000
      8 C8         -0.9880   -1.1480    1.9460 c3        1 XFM     -0.106000
      9 C9         -0.2230   -1.0680    0.6370 c2        1 XFM     -0.006000
     10 N10        -0.2140    0.0900   -0.0760 n1        1 XFM     -0.148000
     11 C11         0.4500    0.1550   -1.2670 c1        1 XFM     -0.008000
     12 C12         1.1150   -0.9600   -1.7510 c1        1 XFM     -0.186000
     13 C13         1.1060   -2.1220   -1.0360 c1        1 XFM     -0.089000
     14 C14         0.4420   -2.1850    0.1540 c2        1 XFM     -0.186000
     15 C15         0.5520    1.4690   -2.0010 c3        1 XFM     -0.108000
     16 C16        -0.0570    1.3250   -3.3840 c3        1 XFM     -0.125000
     17 C17         0.4780    2.4190   -4.2870 c2        1 XFM     -0.001000
     18 C18         1.4720    2.1400   -5.1790 c2        1 XFM     -0.230000
     19 C19         1.9000    3.1160   -6.0660 c1        1 XFM      0.029000
     20 N20         1.3290    4.3530   -6.0470 n2        1 XFM     -0.205000
     21 C21         0.3370    4.6320   -5.1570 c1        1 XFM      0.110000
     22 C22        -0.0940    3.6570   -4.2690 c1        1 XFM     -0.232000
     23 N23        -0.2650    5.9140   -5.1470 n3        1 XFM     -0.321000
     24 C24         3.0300    2.8220   -7.0250 c2        1 XFM     -0.173000
     25 C25        -0.3890   -4.7830    6.7160 c3        1 XFM     -0.186000
     26 N26        -3.5610   -1.0250    6.4580 n3        1 XFM     -0.320000
     27 H3          0.5030   -3.5210    4.5560 ha        1 XFM      0.143000
     28 H5         -2.3910   -3.1720    7.3780 ha        1 XFM      0.141000
     29 H7          0.6930   -1.9630    2.8180 hc        1 XFM      0.104500
     30 H7A         0.3890   -0.4800    3.3290 hc        1 XFM      0.104500
     31 H8         -1.6090   -1.9030    1.9160 hc        1 XFM      0.106000
     32 H8A        -1.4880   -0.3200    2.0820 hc        1 XFM      0.106000
     33 H12         1.5900   -0.9130   -2.6040 ha        1 XFM      0.142000
     34 H13         1.5740   -2.9080   -1.3770 ha        1 XFM      0.137000
     35 H14         0.4350   -3.0140    0.6640 ha        1 XFM      0.144000
     36 H15         0.0700    2.1600   -1.5030 hc        1 XFM      0.099000
     37 H15A        1.4930    1.7240   -2.0840 hc        1 XFM      0.099000
     38 H16        -1.0300    1.4010   -3.3210 hc        1 XFM      0.102000
     39 H16A        0.1800    0.4510   -3.7550 hc        1 XFM      0.102000
     40 H18         1.8820    1.2540   -5.1930 ha        1 XFM      0.140000
     41 H22        -0.8040    3.8580   -3.6320 ha        1 XFM      0.144000
     42 HN23       -1.0300    6.0560   -4.6690 hn        1 XFM      0.195500
     43 HN2A        0.1080    6.5970   -5.6240 hn        1 XFM      0.195500
     44 H24         2.8110    2.0270   -7.5520 ha        1 XFM      0.091333
     45 H24A        3.8560    2.6630   -6.5190 ha        1 XFM      0.091333
     46 H24B        3.1560    3.5850   -7.6250 ha        1 XFM      0.091333
     47 H25        -1.0380   -5.5010    6.5590 hc        1 XFM      0.088333
     48 H25A       -0.2920   -4.6350    7.6800 hc        1 XFM      0.088333
     49 H25B        0.4790   -5.0370    6.3350 hc        1 XFM      0.088333
     50 HN26       -3.9010   -0.2990    6.0180 hn        1 XFM      0.194500
     51 HN2B       -3.9500   -1.3140    7.2300 hn        1 XFM      0.194500
@<TRIPOS>BOND
     1    1    6 1   
     2    2    3 1   
     3    2    7 1   
     4    3   27 1   
     5    4    5 1   
     6    4   25 1   
     7    5   28 1   
     8    6   26 1   
     9    7    8 1   
    10    7   29 1   
    11    7   30 1   
    12    8    9 1   
    13    8   31 1   
    14    8   32 1   
    15    9   10 1   
    16    9   14 1   
    17   11   12 1   
    18   11   15 1   
    19   12   33 1   
    20   13   14 1   
    21   13   34 1   
    22   14   35 1   
    23   15   16 1   
    24   15   36 1   
    25   15   37 1   
    26   16   17 1   
    27   16   38 1   
    28   16   39 1   
    29   17   18 1   
    30   17   22 1   
    31   18   19 1   
    32   18   40 1   
    33   19   20 1   
    34   20   21 1   
    35   21   23 1   
    36   22   41 1   
    37   23   42 1   
    38   23   43 1   
    39   24   44 1   
    40   24   45 1   
    41   24   46 1   
    42   25   47 1   
    43   25   48 1   
    44   25   49 1   
    45   26   50 1   
    46   26   51 1   
@<TRIPOS>SUBSTRUCTURE
     1 XFM         1 TEMP              0 ****  ****    0 ROOT
