@<TRIPOS>MOLECULE
XFN
   54    54     1     0     0
SMALL
bcc


@<TRIPOS>ATOM
      1 C01        -1.9960    1.6670    1.5710 c2        1 XFN     -0.231000
      2 C02        -0.6480    1.7740    1.7460 c2        1 XFN      0.057000
      3 N02         0.2090    2.0800    0.6770 n8        1 XFN     -0.327000
      4 C03        -0.0210    1.4540    3.0390 c2        1 XFN     -0.086000
      5 C04         1.1090    1.9540    3.4590 c1        1 XFN     -0.177000
      6 C05        -2.9160    1.7040    3.8570 c2        1 XFN     -0.232000
      7 C06        -2.9620    1.2860    2.5840 c2        1 XFN     -0.055000
      8 C07         2.2190    2.4560    3.9200 c2        1 XFN     -0.096000
      9 C08        -4.0940    0.4380    2.0940 c3        1 XFN     -0.120000
     10 C09        -3.5930   -0.8920    1.5690 c3        1 XFN     -0.111000
     11 C11        -6.8250   -2.4330    0.4150 c2        1 XFN     -0.280000
     12 N12        -5.9190   -1.4770    0.9820 n2        1 XFN     -0.144000
     13 C13        -4.6600   -1.7900    1.0120 c2        1 XFN     -0.007000
     14 C14        -4.1460   -3.0910    0.5230 c2        1 XFN     -0.218000
     15 C15        -4.0840   -3.4110   -0.7800 c2        1 XFN     -0.075000
     16 C16        -6.4300   -3.5530   -0.2500 c1        1 XFN      0.180000
     17 C18        -3.5830   -4.7060   -1.2800 c3        1 XFN     -0.200000
     18 C34         3.5590    1.8610    3.6750 c3        1 XFN     -0.073000
     19 C35         4.3300    1.6820    4.9570 c2        1 XFN     -0.024000
     20 C36         4.6250    0.4280    5.4040 c2        1 XFN     -0.224000
     21 C37         5.3880    0.2370    6.6590 c3        1 XFN     -0.157000
     22 C38         5.8930    1.4450    7.3030 c1        1 XFN     -0.034000
     23 C39         5.3980    2.7300    6.7530 c2        1 XFN      0.024000
     24 N40         4.7130    2.8530    5.6140 n2        1 XFN     -0.192000
     25 N41         5.6840    3.8460    7.5320 n8        1 XFN     -0.320000
     26 C42         6.4810   -0.8070    6.5060 c3        1 XFN     -0.167000
     27 H01        -2.4390    1.8680    0.5800 ha        1 XFN      0.129000
     28 HN02       -0.2250    2.5890   -0.0610 hn        1 XFN      0.183000
     29 HN0A        1.0810    2.4720    0.9590 hn        1 XFN      0.183000
     30 H03        -0.5860    0.7390    3.6660 ha        1 XFN      0.159000
     31 H05        -2.1300    2.3710    4.2310 ha        1 XFN      0.115000
     32 H07        -3.6750    1.4140    4.5950 ha        1 XFN      0.115000
     33 H07A        2.2090    3.3830    4.5240 ha        1 XFN      0.157000
     34 H08        -3.0770   -1.4540    2.3940 hc        1 XFN      0.103000
     35 H08A       -4.8340    0.2630    2.9200 hc        1 XFN      0.098000
     36 H09        -4.6330    0.9900    1.2770 hc        1 XFN      0.098000
     37 H09A       -2.8360   -0.7130    0.7570 hc        1 XFN      0.103000
     38 H14        -3.8110   -3.7830    1.3130 ha        1 XFN      0.151000
     39 H16        -4.3910   -2.6910   -1.5620 ha        1 XFN      0.137000
     40 HN17       -8.4770   -1.3370    0.0830 hn        1 XFN      0.155500
     41 HN1A       -8.4870   -2.1350    1.5060 hn        1 XFN      0.155500
     42 H18        -4.4130   -5.2490   -1.8020 hc        1 XFN      0.094667
     43 H18A       -3.2020   -5.3550   -0.4540 hc        1 XFN      0.094667
     44 H18B       -2.7550   -4.5380   -2.0140 hc        1 XFN      0.094667
     45 H34         4.1320    2.5440    2.9870 hc        1 XFN      0.103000
     46 H34A        3.4680    0.8660    3.1620 hc        1 XFN      0.103000
     47 H36         4.3040   -0.4730    4.8660 ha        1 XFN      0.144000
     48 H38         4.6520   -0.1450    7.4530 hc        1 XFN      0.180000
     49 HN41        6.4220    3.7190    8.1850 hn        1 XFN      0.216500
     50 HN4A        5.6110    4.7440    7.1130 hn        1 XFN      0.216500
     51 H42         7.0260   -0.9330    7.4730 hc        1 XFN      0.086333
     52 H42A        6.0310   -1.7830    6.2050 hc        1 XFN      0.086333
     53 H42B        7.2080   -0.4920    5.7210 hc        1 XFN      0.086333
     54 N17        -8.2390   -2.2020    0.5350 n8        1 XFN     -0.258000
@<TRIPOS>BOND
     1    1    2 1   
     2    1    7 1   
     3    1   27 1   
     4    2    3 1   
     5    2    4 1   
     6    3   28 1   
     7    3   29 1   
     8    4    5 1   
     9    4   30 1   
    10    5    8 1   
    11    6    7 1   
    12    6   31 1   
    13    6   32 1   
    14    7    9 1   
    15    8   18 1   
    16    8   33 1   
    17    9   10 1   
    18    9   35 1   
    19    9   36 1   
    20   10   13 1   
    21   10   34 1   
    22   10   37 1   
    23   11   12 1   
    24   11   16 1   
    25   11   54 1   
    26   12   13 1   
    27   13   14 1   
    28   14   15 1   
    29   14   38 1   
    30   15   17 1   
    31   15   39 1   
    32   17   42 1   
    33   17   43 1   
    34   17   44 1   
    35   18   19 1   
    36   18   45 1   
    37   18   46 1   
    38   19   20 1   
    39   19   24 1   
    40   20   21 1   
    41   20   47 1   
    42   21   22 1   
    43   21   26 1   
    44   21   48 1   
    45   22   23 1   
    46   23   24 1   
    47   23   25 1   
    48   25   49 1   
    49   25   50 1   
    50   26   51 1   
    51   26   52 1   
    52   26   53 1   
    53   40   54 1   
    54   41   54 1   
@<TRIPOS>SUBSTRUCTURE
     1 XFN         1 TEMP              0 ****  ****    0 ROOT
