@<TRIPOS>MOLECULE
XFN
   57    58     1     0     0
SMALL
bcc


@<TRIPOS>ATOM
      1 C01        -0.6310   -0.1570    0.4700 c2        1 XFN      0.039000
      2 C02         0.7090   -0.1980    0.7150 c2        1 XFN     -0.185000
      3 N02         1.6780   -0.2350   -0.3820 n4        1 XFN     -0.004000
      4 C03         1.2620   -0.2700    2.0660 c2        1 XFN     -0.221000
      5 C04         2.1500    0.5970    2.5780 c2        1 XFN     -0.057000
      6 C05        -1.2030   -0.0990    2.8330 c1        1 XFN      0.344000
      7 C06        -1.5880   -0.1230    1.5460 c2        1 XFN     -0.416000
      8 C07         2.7050    0.4520    3.9490 c3        1 XFN     -0.149000
      9 C08        -3.0500   -0.0650    1.2090 c3        1 XFN     -0.091000
     10 C09        -3.6500   -1.4550    1.0850 c3        1 XFN     -0.111000
     11 C11        -7.2810   -0.9080    1.3310 c2        1 XFN     -0.166000
     12 N12        -5.9900   -0.8610    1.6290 n2        1 XFN     -0.015000
     13 C13        -5.1090   -1.4280    0.7140 c2        1 XFN     -0.104000
     14 C14        -5.5410   -2.0110   -0.4580 c2        1 XFN     -0.048000
     15 C15        -6.9720   -2.0340   -0.8280 c3        1 XFN     -0.192000
     16 C16        -7.9020   -1.4770    0.1410 c1        1 XFN     -0.001000
     17 C18        -7.4220   -3.4230   -1.2920 c3        1 XFN     -0.172000
     18 C34         3.4250    1.7080    4.4030 c3        1 XFN     -0.121000
     19 C35         4.1350    1.5970    5.7300 c2        1 XFN     -0.012000
     20 C36         4.9460    2.6830    6.1060 c2        1 XFN     -0.060000
     21 C37         5.6410    2.6610    7.3840 c3        1 XFN     -0.146000
     22 C38         5.5050    1.4400    8.1540 c2        1 XFN     -0.051000
     23 C39         4.6380    0.3940    7.7000 c2        1 XFN      0.127000
     24 N40         3.9820    0.4920    6.4880 n2        1 XFN     -0.080000
     25 N41         4.4490   -0.7230    8.4670 n3        1 XFN     -0.333000
     26 C42         7.0800    3.1840    7.3140 c3        1 XFN     -0.181000
     27 H01        -1.0460   -0.1390   -0.5560 ha        1 XFN      0.163000
     28 HN02        1.2200   -0.0820   -1.2880 hn        1 XFN      0.261667
     29 HN0A        2.1460   -1.1510   -0.3920 hn        1 XFN      0.261667
     30 H03         0.8900   -1.1270    2.6670 ha        1 XFN      0.180000
     31 H05         2.5170    1.4600    1.9940 ha        1 XFN      0.129000
     32 H07         1.8810    0.2000    4.6720 hc        1 XFN      0.134000
     33 H07A        3.4180   -0.4200    3.9510 hc        1 XFN      0.134000
     34 H08        -3.5920    0.5130    2.0070 hc        1 XFN      0.115000
     35 H08A       -3.1800    0.4990    0.2470 hc        1 XFN      0.115000
     36 H09        -3.5290   -2.0070    2.0570 hc        1 XFN      0.113500
     37 H09A       -3.0960   -2.0360    0.3000 hc        1 XFN      0.113500
     38 H14        -4.8310   -2.4870   -1.1550 ha        1 XFN      0.179000
     39 H16        -7.1100   -1.3450   -1.7430 hc        1 XFN      0.238000
     40 HN17       -9.2080   -0.5120    1.8520 hn        1 XFN      0.274667
     41 HN1A       -8.1270    0.6430    2.4330 hn        1 XFN      0.274667
     42 H18        -8.5030   -3.3880   -1.5780 hc        1 XFN      0.118333
     43 H18A       -6.8160   -3.7350   -2.1770 hc        1 XFN      0.118333
     44 H18B       -7.2870   -4.1670   -0.4720 hc        1 XFN      0.118333
     45 H34         2.6860    2.5520    4.4870 hc        1 XFN      0.119000
     46 H34A        4.1940    2.0000    3.6360 hc        1 XFN      0.119000
     47 H36         5.0620    3.5650    5.4540 ha        1 XFN      0.194000
     48 H38         5.0730    3.4560    8.0310 hc        1 XFN      0.281000
     49 HN41        4.9600   -0.8280    9.3120 hn        1 XFN      0.270000
     50 HN4A        3.8820   -1.4760    8.1500 hn        1 XFN      0.270000
     51 H42         7.5060    3.2660    8.3440 hc        1 XFN      0.127667
     52 H42A        7.7080    2.4820    6.7130 hc        1 XFN      0.127667
     53 H42B        7.0920    4.1930    6.8320 hc        1 XFN      0.127667
     54 H023        2.3850    0.4950   -0.2340 hn        1 XFN      0.261667
     55 H413        6.0780    1.3440    9.0950 ha        1 XFN      0.203000
     56 H173       -8.2300   -0.8490    3.1820 hn        1 XFN      0.274667
     57 N17        -8.2780   -0.3600    2.2820 n4        1 XFN     -0.010000
@<TRIPOS>BOND
     1    1    2 1   
     2    1    7 1   
     3    1   27 1   
     4    2    3 1   
     5    2    4 1   
     6    3   28 1   
     7    3   29 1   
     8    3   54 1   
     9    4    5 1   
    10    4   30 1   
    11    5    8 1   
    12    5   31 1   
    13    6    7 1   
    14    7    9 1   
    15    8   18 1   
    16    8   32 1   
    17    8   33 1   
    18    9   10 1   
    19    9   34 1   
    20    9   35 1   
    21   10   13 1   
    22   10   36 1   
    23   10   37 1   
    24   11   12 1   
    25   11   16 1   
    26   11   57 1   
    27   12   13 1   
    28   13   14 1   
    29   14   15 1   
    30   14   38 1   
    31   15   16 1   
    32   15   17 1   
    33   15   39 1   
    34   17   42 1   
    35   17   43 1   
    36   17   44 1   
    37   18   19 1   
    38   18   45 1   
    39   18   46 1   
    40   19   20 1   
    41   19   24 1   
    42   20   21 1   
    43   20   47 1   
    44   21   22 1   
    45   21   26 1   
    46   21   48 1   
    47   22   23 1   
    48   22   55 1   
    49   23   24 1   
    50   23   25 1   
    51   25   49 1   
    52   25   50 1   
    53   26   51 1   
    54   26   52 1   
    55   26   53 1   
    56   40   57 1   
    57   41   57 1   
    58   56   57 1   
@<TRIPOS>SUBSTRUCTURE
     1 XFN         1 TEMP              0 ****  ****    0 ROOT
