@<TRIPOS>MOLECULE
XFN
   54    56     1     0     0
SMALL
bcc


@<TRIPOS>ATOM
      1 C01         1.1730    3.0030   -0.3160 ca        1 XFN     -0.189000
      2 C02         0.0100    3.7250    0.0350 ca        1 XFN      0.135600
      3 N02         0.0430    5.1230    0.1360 nh        1 XFN     -0.816200
      4 C03        -1.1630    3.0080    0.3610 ca        1 XFN     -0.189000
      5 C04        -1.1650    1.6130    0.3490 ca        1 XFN     -0.043300
      6 C05        -0.0030    0.9140    0.0080 ca        1 XFN     -0.166000
      7 C06         1.1640    1.6080   -0.3240 ca        1 XFN     -0.043300
      8 C07        -2.4010    0.8640    0.7120 c3        1 XFN     -0.034600
      9 C08         2.3940    0.8540   -0.6980 c3        1 XFN     -0.034600
     10 C09         3.0270    0.2030    0.5200 c3        1 XFN     -0.126200
     11 C11         5.4490   -2.1670   -0.9890 ca        1 XFN      0.630700
     12 N12         4.2690   -1.5420   -0.6800 nb        1 XFN     -0.729000
     13 C13         4.3150   -0.4930    0.1720 ca        1 XFN      0.451600
     14 C14         5.5070   -0.0340    0.7660 ca        1 XFN     -0.292800
     15 C15         6.7100   -0.6850    0.4670 ca        1 XFN     -0.006800
     16 C16         6.6920   -1.7640   -0.4140 ca        1 XFN     -0.301800
     17 C18         7.9810   -0.2220    1.0690 c3        1 XFN     -0.060800
     18 C34        -3.0250    0.2110   -0.5090 c3        1 XFN     -0.126200
     19 C35        -4.3120   -0.4910   -0.1670 ca        1 XFN      0.451600
     20 C36        -5.5070   -0.0220   -0.7480 ca        1 XFN     -0.292800
     21 C37        -6.7080   -0.6770   -0.4540 ca        1 XFN     -0.006800
     22 C38        -6.6860   -1.7710    0.4090 ca        1 XFN     -0.301800
     23 C39        -5.4410   -2.1820    0.9720 ca        1 XFN      0.630700
     24 N40        -4.2620   -1.5530    0.6670 nb        1 XFN     -0.729000
     25 N41        -5.4320   -3.2180    1.9220 nh        1 XFN     -0.923000
     26 C42        -7.9830   -0.2050   -1.0420 c3        1 XFN     -0.060800
     27 H01         2.0970    3.5390   -0.5780 ha        1 XFN      0.131000
     28 HN02        0.7430    5.5530   -0.4270 hn        1 XFN      0.384800
     29 HN0A       -0.8500    5.5560    0.0410 hn        1 XFN      0.384800
     30 H03        -2.0810    3.5480    0.6370 ha        1 XFN      0.131000
     31 H05        -0.0080   -0.1860   -0.0000 ha        1 XFN      0.137000
     32 H07        -2.1460    0.0750    1.4700 hc        1 XFN      0.059450
     33 H07A       -3.1470    1.5540    1.1880 hc        1 XFN      0.059450
     34 H08         2.1300    0.0640   -1.4520 hc        1 XFN      0.059450
     35 H08A        3.1380    1.5420   -1.1820 hc        1 XFN      0.059450
     36 H09         3.2320    0.9830    1.3000 hc        1 XFN      0.058950
     37 H09A        2.3070   -0.5370    0.9630 hc        1 XFN      0.058950
     38 H14         5.4920    0.8200    1.4550 ha        1 XFN      0.142000
     39 H16         7.6220   -2.2900   -0.6700 ha        1 XFN      0.141000
     40 HN17        6.1350   -3.8860   -1.7940 hn        1 XFN      0.399550
     41 HN1A        4.5490   -3.5570   -2.1880 hn        1 XFN      0.399550
     42 H18         7.8230    0.0990    2.1280 hc        1 XFN      0.048700
     43 H18A        8.7540   -1.0290    1.0530 hc        1 XFN      0.048700
     44 H18B        8.3750    0.6540    0.4930 hc        1 XFN      0.048700
     45 H34        -3.2310    0.9900   -1.2900 hc        1 XFN      0.058950
     46 H34A       -2.3000   -0.5250   -0.9500 hc        1 XFN      0.058950
     47 H36        -5.4950    0.8420   -1.4240 ha        1 XFN      0.142000
     48 H38        -7.6150   -2.3000    0.6610 ha        1 XFN      0.141000
     49 HN41       -6.1240   -3.9130    1.7560 hn        1 XFN      0.399550
     50 HN4A       -4.5350   -3.5910    2.1470 hn        1 XFN      0.399550
     51 H42        -7.8280    0.1450   -2.0920 hc        1 XFN      0.048700
     52 H42A       -8.7510   -1.0160   -1.0460 hc        1 XFN      0.048700
     53 H42B       -8.3800    0.6530   -0.4420 hc        1 XFN      0.048700
     54 N17         5.4450   -3.1880   -1.9560 nh        1 XFN     -0.923000
@<TRIPOS>BOND
     1    1    2 ar  
     2    1    7 ar  
     3    1   27 1   
     4    2    3 1   
     5    2    4 ar  
     6    3   28 1   
     7    3   29 1   
     8    4    5 ar  
     9    4   30 1   
    10    5    6 ar  
    11    5    8 1   
    12    6    7 ar  
    13    6   31 1   
    14    7    9 1   
    15    8   18 1   
    16    8   32 1   
    17    8   33 1   
    18    9   10 1   
    19    9   34 1   
    20    9   35 1   
    21   10   13 1   
    22   10   36 1   
    23   10   37 1   
    24   11   12 ar  
    25   11   16 ar  
    26   11   54 1   
    27   12   13 ar  
    28   13   14 ar  
    29   14   15 ar  
    30   14   38 1   
    31   15   16 ar  
    32   15   17 1   
    33   16   39 1   
    34   17   42 1   
    35   17   43 1   
    36   17   44 1   
    37   18   19 1   
    38   18   45 1   
    39   18   46 1   
    40   19   20 ar  
    41   19   24 ar  
    42   20   21 ar  
    43   20   47 1   
    44   21   22 ar  
    45   21   26 1   
    46   22   23 ar  
    47   22   48 1   
    48   23   24 ar  
    49   23   25 1   
    50   25   49 1   
    51   25   50 1   
    52   26   51 1   
    53   26   52 1   
    54   26   53 1   
    55   40   54 1   
    56   41   54 1   
@<TRIPOS>SUBSTRUCTURE
     1 XFN         1 TEMP              0 ****  ****    0 ROOT
