@<TRIPOS>MOLECULE
XFN
   54    55     1     0     0
SMALL
bcc


@<TRIPOS>ATOM
      1 C01        -0.0680   -0.0850   -0.2510 c2        1 XFN     -0.193000
      2 C02         1.1950   -0.5710   -0.4190 c2        1 XFN      0.013000
      3 N02         1.6900   -1.0510   -1.6340 n3        1 XFN     -0.313000
      4 C03         2.0500   -0.7190    0.7770 c2        1 XFN     -0.161000
      5 C04         2.5950    0.3250    1.4230 c2        1 XFN     -0.096000
      6 C05         0.2730    0.3820    2.1270 c1        1 XFN      0.112000
      7 C06        -0.5350    0.2960    1.0690 c2        1 XFN     -0.331000
      8 C07         3.4620    0.1750    2.6190 c3        1 XFN     -0.132000
      9 C08        -1.9890    0.6240    1.2120 c3        1 XFN     -0.077000
     10 C09        -2.8350   -0.6260    1.0770 c3        1 XFN     -0.113000
     11 C11        -6.2760    0.8560    1.4140 c2        1 XFN     -0.281000
     12 N12        -4.8450    0.7790    1.3540 n2        1 XFN     -0.145000
     13 C13        -4.3150   -0.3890    1.1570 c2        1 XFN     -0.008000
     14 C14        -5.1250   -1.6130    0.9590 c2        1 XFN     -0.219000
     15 C15        -5.8070   -2.2090    1.9520 c2        1 XFN     -0.073000
     16 C16        -7.0930   -0.2320    1.4580 c1        1 XFN      0.184000
     17 C18        -6.6250   -3.4240    1.7660 c3        1 XFN     -0.201000
     18 C34         2.9960    1.0960    3.7300 c3        1 XFN     -0.121000
     19 C35         3.7690    0.9590    4.9910 c2        1 XFN      0.014000
     20 C36         3.2970    1.7220    6.2080 cx        1 XFN     -0.188000
     21 C37         2.9110    0.8690    7.3960 cx        1 XFN     -0.105000
     22 C38         4.3320    1.3640    7.2740 cx        1 XFN     -0.217000
     23 C39         5.2930    0.4100    6.5640 c2        1 XFN      0.034000
     24 N40         4.8590    0.2570    5.1750 n2        1 XFN     -0.116000
     25 N41         6.3240   -0.1850    7.0520 n2        1 XFN     -0.190000
     26 C42         2.0300    1.4550    8.4430 c3        1 XFN     -0.195000
     27 H01        -0.7720    0.0330   -1.0860 ha        1 XFN      0.136000
     28 HN02        1.2140   -0.6970   -2.4350 hn        1 XFN      0.183500
     29 HN0A        2.6820   -0.9950   -1.7160 hn        1 XFN      0.183500
     30 H03         2.2010   -1.7590    1.1160 ha        1 XFN      0.154000
     31 H05         2.4520    1.3610    1.0680 ha        1 XFN      0.133000
     32 H07         3.4600   -0.8870    2.9840 hc        1 XFN      0.108500
     33 H07A        4.5200    0.4240    2.3320 hc        1 XFN      0.108500
     34 H08        -2.1810    1.1070    2.2070 hc        1 XFN      0.101000
     35 H08A       -2.2690    1.3670    0.4190 hc        1 XFN      0.101000
     36 H09        -2.5620   -1.3570    1.8860 hc        1 XFN      0.105000
     37 H09A       -2.6190   -1.1200    0.0900 hc        1 XFN      0.105000
     38 H14        -5.1260   -2.0080   -0.0710 ha        1 XFN      0.152000
     39 H16        -5.7670   -1.8220    2.9870 ha        1 XFN      0.137000
     40 HN17       -6.6350    2.6710    0.6270 hn        1 XFN      0.155500
     41 HN1A       -6.5920    2.6520    2.2580 hn        1 XFN      0.155500
     42 H18        -7.6990   -3.1850    1.9790 hc        1 XFN      0.095667
     43 H18A       -6.2920   -4.2210    2.4770 hc        1 XFN      0.095667
     44 H18B       -6.5530   -3.8220    0.7240 hc        1 XFN      0.095667
     45 H34         1.9090    0.8890    3.9490 hc        1 XFN      0.120500
     46 H34A        3.0720    2.1670    3.3970 hc        1 XFN      0.120500
     47 H36         2.8680    2.7190    6.0510 hc        1 XFN      0.151000
     48 H38         2.7170   -0.2100    7.2230 hc        1 XFN      0.132000
     49 HN41        4.7590    2.0780    7.9890 hc        1 XFN      0.149000
     50 HN4A        6.4880    0.0220    8.0160 hn        1 XFN      0.147000
     51 H42         2.1810    0.9210    9.4130 hc        1 XFN      0.084333
     52 H42A        0.9580    1.3500    8.1440 hc        1 XFN      0.084333
     53 H42B        2.2480    2.5400    8.5990 hc        1 XFN      0.084333
     54 N17        -6.9000    2.1500    1.4440 n3        1 XFN     -0.258000
@<TRIPOS>BOND
     1    1    2 1   
     2    1    7 1   
     3    1   27 1   
     4    2    3 1   
     5    2    4 1   
     6    3   28 1   
     7    3   29 1   
     8    4    5 1   
     9    4   30 1   
    10    5    8 1   
    11    5   31 1   
    12    6    7 1   
    13    7    9 1   
    14    8   18 1   
    15    8   32 1   
    16    8   33 1   
    17    9   10 1   
    18    9   34 1   
    19    9   35 1   
    20   10   13 1   
    21   10   36 1   
    22   10   37 1   
    23   11   12 1   
    24   11   16 1   
    25   11   54 1   
    26   12   13 1   
    27   13   14 1   
    28   14   15 1   
    29   14   38 1   
    30   15   17 1   
    31   15   39 1   
    32   17   42 1   
    33   17   43 1   
    34   17   44 1   
    35   18   19 1   
    36   18   45 1   
    37   18   46 1   
    38   19   20 1   
    39   19   24 1   
    40   20   21 1   
    41   20   22 1   
    42   20   47 1   
    43   21   22 1   
    44   21   26 1   
    45   21   48 1   
    46   22   23 1   
    47   22   49 1   
    48   23   24 1   
    49   23   25 1   
    50   25   50 1   
    51   26   51 1   
    52   26   52 1   
    53   26   53 1   
    54   40   54 1   
    55   41   54 1   
@<TRIPOS>SUBSTRUCTURE
     1 XFN         1 TEMP              0 ****  ****    0 ROOT
