@<TRIPOS>MOLECULE
XG1
   34    36     1     0     0
SMALL
bcc


@<TRIPOS>ATOM
      1 NAR        -0.0700    0.0570    0.0970 nh        1 XG1     -0.935500
      2 CAG         1.3220    0.0950    0.1200 ca        1 XG1      0.712200
      3 NAI         1.9910    0.0850    1.2720 nb        1 XG1     -0.754000
      4 CAA         3.3820    0.0040    1.2760 ca        1 XG1      0.430600
      5 CAC         4.0480   -0.0310    2.5320 ca        1 XG1     -0.177300
      6 CAE         5.4270   -0.1070    2.5950 ca        1 XG1     -0.124000
      7 CAF         6.2010   -0.1510    1.4260 ca        1 XG1     -0.143000
      8 CAD         5.5830   -0.1180    0.1880 ca        1 XG1     -0.107000
      9 CAB         4.1840   -0.0410    0.0940 ca        1 XG1     -0.116300
     10 CAJ         3.4890   -0.0010   -1.1490 ca        1 XG1     -0.092000
     11 CAM         3.8500   -0.0050   -2.5070 cc        1 XG1     -0.151100
     12 CAH         2.0330    0.0720   -1.1630 ca        1 XG1     -0.218300
     13 NAK         1.5700    0.1110   -2.4480 nc        1 XG1     -0.238400
     14 NAL         2.6530    0.0770   -3.2320 na        1 XG1      0.134800
     15 CAN         2.5860    0.0480   -4.6860 c3        1 XG1      0.050300
     16 CAO         2.0440   -1.2580   -5.2620 c3        1 XG1     -0.101400
     17 CAP         2.0410   -1.1860   -6.7740 c3        1 XG1     -0.080400
     18 CAQ         1.5140   -2.4620   -7.3780 c3        1 XG1     -0.093100
     19 H1         -0.4960    0.4270   -0.7210 hn        1 XG1      0.418800
     20 H2         -0.5420    0.2490    0.9510 hn        1 XG1      0.418800
     21 H3          3.4540    0.0010    3.4590 ha        1 XG1      0.146000
     22 H4          5.9280   -0.1340    3.5750 ha        1 XG1      0.131000
     23 H5          7.2960   -0.2120    1.4980 ha        1 XG1      0.130000
     24 H6          6.1800   -0.1530   -0.7360 ha        1 XG1      0.126000
     25 H7          4.8250   -0.0480   -2.9900 h4        1 XG1      0.182000
     26 H8          3.6330    0.2240   -5.0660 h1        1 XG1      0.066700
     27 H9          1.9340    0.9020   -5.0300 h1        1 XG1      0.066700
     28 H10         2.6760   -2.1220   -4.9260 hc        1 XG1      0.062200
     29 H11         1.0020   -1.4400   -4.8870 hc        1 XG1      0.062200
     30 H12         3.0820   -0.9960   -7.1460 hc        1 XG1      0.040700
     31 H13         1.4070   -0.3220   -7.1080 hc        1 XG1      0.040700
     32 H14         0.4680   -2.6560   -7.0390 hc        1 XG1      0.037700
     33 H15         2.1470   -3.3320   -7.0790 hc        1 XG1      0.037700
     34 H16         1.5160   -2.3910   -8.4930 hc        1 XG1      0.037700
@<TRIPOS>BOND
     1    1    2 1   
     2    1   19 1   
     3    1   20 1   
     4    2    3 ar  
     5    2   12 ar  
     6    3    4 ar  
     7    4    5 ar  
     8    4    9 ar  
     9    5    6 ar  
    10    5   21 1   
    11    6    7 ar  
    12    6   22 1   
    13    7    8 ar  
    14    7   23 1   
    15    8    9 ar  
    16    8   24 1   
    17    9   10 ar  
    18   10   11 2   
    19   10   12 ar  
    20   11   14 1   
    21   11   25 1   
    22   12   13 2   
    23   13   14 1   
    24   14   15 1   
    25   15   16 1   
    26   15   26 1   
    27   15   27 1   
    28   16   17 1   
    29   16   28 1   
    30   16   29 1   
    31   17   18 1   
    32   17   30 1   
    33   17   31 1   
    34   18   32 1   
    35   18   33 1   
    36   18   34 1   
@<TRIPOS>SUBSTRUCTURE
     1 XG1         1 TEMP              0 ****  ****    0 ROOT
