@<TRIPOS>MOLECULE
XG1
   34    36     1     0     0
SMALL
bcc


@<TRIPOS>ATOM
      1 NAR        -0.0660    0.0700    0.0960 nh        1 XG1     -0.935500
      2 CAG         1.3270    0.1020    0.1180 ca        1 XG1      0.712200
      3 NAI         1.9960    0.0910    1.2700 nb        1 XG1     -0.754000
      4 CAA         3.3870    0.0040    1.2730 ca        1 XG1      0.430600
      5 CAC         4.0530   -0.0320    2.5290 ca        1 XG1     -0.177300
      6 CAE         5.4320   -0.1130    2.5910 ca        1 XG1     -0.124000
      7 CAF         6.2050   -0.1610    1.4220 ca        1 XG1     -0.143000
      8 CAD         5.5870   -0.1270    0.1840 ca        1 XG1     -0.107000
      9 CAB         4.1880   -0.0450    0.0910 ca        1 XG1     -0.116300
     10 CAJ         3.4930   -0.0030   -1.1520 ca        1 XG1     -0.092000
     11 CAM         3.8520   -0.0100   -2.5100 cc        1 XG1     -0.151100
     12 CAH         2.0360    0.0760   -1.1650 ca        1 XG1     -0.218300
     13 NAK         1.5730    0.1150   -2.4500 nc        1 XG1     -0.238400
     14 NAL         2.6550    0.0760   -3.2340 na        1 XG1      0.134800
     15 CAN         2.5880    0.0460   -4.6880 c3        1 XG1      0.051300
     16 CAO         2.0380   -1.2580   -5.2620 c3        1 XG1     -0.101400
     17 CAP         2.0350   -1.1870   -6.7750 c3        1 XG1     -0.080400
     18 CAQ         1.5000   -2.4610   -7.3780 c3        1 XG1     -0.093100
     19 H1         -0.4910    0.4400   -0.7220 hn        1 XG1      0.418800
     20 H2         -0.5370    0.2640    0.9500 hn        1 XG1      0.418800
     21 H3          3.4600    0.0030    3.4560 ha        1 XG1      0.146000
     22 H4          5.9330   -0.1410    3.5710 ha        1 XG1      0.131000
     23 H5          7.3000   -0.2260    1.4940 ha        1 XG1      0.130000
     24 H6          6.1830   -0.1650   -0.7400 ha        1 XG1      0.126000
     25 H7          4.8270   -0.0570   -2.9930 h4        1 XG1      0.182000
     26 H8          3.6350    0.2150   -5.0690 h1        1 XG1      0.066700
     27 H9          1.9400    0.9030   -5.0320 h1        1 XG1      0.066700
     28 H10         0.9960   -1.4330   -4.8880 hc        1 XG1      0.062200
     29 H11         2.6650   -2.1250   -4.9250 hc        1 XG1      0.062200
     30 H12         3.0780   -1.0040   -7.1470 hc        1 XG1      0.040700
     31 H13         1.4060   -0.3200   -7.1100 hc        1 XG1      0.040700
     32 H14         2.1280   -3.3340   -7.0770 hc        1 XG1      0.037700
     33 H15         1.5030   -2.3910   -8.4920 hc        1 XG1      0.037700
     34 H16         0.4530   -2.6490   -7.0380 hc        1 XG1      0.037700
@<TRIPOS>BOND
     1    1    2 1   
     2    1   19 1   
     3    1   20 1   
     4    2    3 ar  
     5    2   12 ar  
     6    3    4 ar  
     7    4    5 ar  
     8    4    9 ar  
     9    5    6 ar  
    10    5   21 1   
    11    6    7 ar  
    12    6   22 1   
    13    7    8 ar  
    14    7   23 1   
    15    8    9 ar  
    16    8   24 1   
    17    9   10 ar  
    18   10   11 2   
    19   10   12 ar  
    20   11   14 1   
    21   11   25 1   
    22   12   13 2   
    23   13   14 1   
    24   14   15 1   
    25   15   16 1   
    26   15   26 1   
    27   15   27 1   
    28   16   17 1   
    29   16   28 1   
    30   16   29 1   
    31   17   18 1   
    32   17   30 1   
    33   17   31 1   
    34   18   32 1   
    35   18   33 1   
    36   18   34 1   
@<TRIPOS>SUBSTRUCTURE
     1 XG1         1 TEMP              0 ****  ****    0 ROOT
