@<TRIPOS>MOLECULE
XG1
   34    36     1     0     0
SMALL
bcc


@<TRIPOS>ATOM
      1 NAR        -0.0720    0.0690    0.0870 nv        1 XG1     -0.935500
      2 CAG         1.3210    0.1030    0.1140 ca        1 XG1      0.712200
      3 NAI         1.9870    0.0940    1.2670 nb        1 XG1     -0.754000
      4 CAA         3.3780    0.0090    1.2740 ca        1 XG1      0.430600
      5 CAC         4.0420   -0.0260    2.5320 ca        1 XG1     -0.177300
      6 CAE         5.4200   -0.1050    2.5980 ca        1 XG1     -0.124000
      7 CAF         6.1960   -0.1540    1.4300 ca        1 XG1     -0.143000
      8 CAD         5.5810   -0.1230    0.1910 ca        1 XG1     -0.107000
      9 CAB         4.1820   -0.0410    0.0940 ca        1 XG1     -0.116300
     10 CAJ         3.4900   -0.0020   -1.1510 ca        1 XG1     -0.092000
     11 CAM         3.8540   -0.0100   -2.5080 cc        1 XG1     -0.151100
     12 CAH         2.0340    0.0760   -1.1680 ca        1 XG1     -0.218300
     13 NAK         1.5740    0.1130   -2.4540 nc        1 XG1     -0.238400
     14 NAL         2.6580    0.0740   -3.2360 na        1 XG1      0.134800
     15 CAN         2.5950    0.0420   -4.6900 c3        1 XG1      0.051300
     16 CAO         2.0460   -1.2620   -5.2640 c3        1 XG1     -0.101400
     17 CAP         2.0460   -1.1930   -6.7770 c3        1 XG1     -0.080400
     18 CAQ         1.5120   -2.4660   -7.3790 c3        1 XG1     -0.093100
     19 H1         -0.4940    0.4380   -0.7320 hn        1 XG1      0.418800
     20 H2         -0.5450    0.2640    0.9400 hn        1 XG1      0.418800
     21 H3          3.4450    0.0110    3.4570 ha        1 XG1      0.146000
     22 H4          5.9180   -0.1320    3.5780 ha        1 XG1      0.131000
     23 H5          7.2910   -0.2180    1.5050 ha        1 XG1      0.130000
     24 H6          6.1790   -0.1610   -0.7310 ha        1 XG1      0.126000
     25 H7          4.8290   -0.0570   -2.9890 h4        1 XG1      0.182000
     26 H8          3.6430    0.2100   -5.0680 h1        1 XG1      0.066700
     27 H9          1.9480    0.8990   -5.0360 h1        1 XG1      0.066700
     28 H10         1.0020   -1.4350   -4.8920 hc        1 XG1      0.062200
     29 H11         2.6710   -2.1290   -4.9240 hc        1 XG1      0.062200
     30 H12         3.0910   -1.0110   -7.1460 hc        1 XG1      0.040700
     31 H13         1.4200   -0.3250   -7.1140 hc        1 XG1      0.040700
     32 H14         2.1370   -3.3400   -7.0750 hc        1 XG1      0.037700
     33 H15         1.5180   -2.3980   -8.4940 hc        1 XG1      0.037700
     34 H16         0.4630   -2.6520   -7.0420 hc        1 XG1      0.037700
@<TRIPOS>BOND
     1    1    2 1   
     2    1   19 1   
     3    1   20 1   
     4    2    3 ar  
     5    2   12 ar  
     6    3    4 ar  
     7    4    5 ar  
     8    4    9 ar  
     9    5    6 ar  
    10    5   21 1   
    11    6    7 ar  
    12    6   22 1   
    13    7    8 ar  
    14    7   23 1   
    15    8    9 ar  
    16    8   24 1   
    17    9   10 ar  
    18   10   11 2   
    19   10   12 ar  
    20   11   14 1   
    21   11   25 1   
    22   12   13 2   
    23   13   14 1   
    24   14   15 1   
    25   15   16 1   
    26   15   26 1   
    27   15   27 1   
    28   16   17 1   
    29   16   28 1   
    30   16   29 1   
    31   17   18 1   
    32   17   30 1   
    33   17   31 1   
    34   18   32 1   
    35   18   33 1   
    36   18   34 1   
@<TRIPOS>SUBSTRUCTURE
     1 XG1         1 TEMP              0 ****  ****    0 ROOT
