@<TRIPOS>MOLECULE
XGL
   38    40     1     0     0
SMALL
bcc


@<TRIPOS>ATOM
      1 P          -5.0330   -0.2230   -0.5370 p5        1 XGL      1.319900
      2 OP1        -4.6850   -1.5230    0.1320 o         1 XGL     -0.915500
      3 OP2        -6.4560    0.2380   -0.4910 o         1 XGL     -0.915500
      4 O5'        -4.2350    0.9180    0.5190 os        1 XGL     -0.558200
      5 C5'        -3.0170    0.5210    0.9860 c3        1 XGL      0.236400
      6 C4'        -1.8750    1.3310    0.3010 c3        1 XGL     -0.154500
      7 C6'        -1.5740    0.7310   -1.0190 c2        1 XGL     -0.060200
      8 C7'        -0.3370    0.5750   -1.5070 c2        1 XGL     -0.352200
      9 C3'        -0.6340    1.4270    1.1850 c3        1 XGL      0.147100
     10 O3'        -0.8100    2.3300    2.2770 oh        1 XGL     -0.642800
     11 C2'         0.5590    1.9460    0.3870 c3        1 XGL     -0.091400
     12 C1'         0.9000    1.0250   -0.7950 c3        1 XGL      0.110200
     13 N9          1.7420   -0.1050   -0.4030 na        1 XGL     -0.150900
     14 C8          1.3300   -1.4190   -0.1070 cc        1 XGL      0.439400
     15 N7          2.3560   -2.2420    0.2150 nd        1 XGL     -0.631000
     16 C6          4.8860   -1.7560    0.3680 c         1 XGL      0.646000
     17 O6          5.3980   -2.8390    0.7040 o         1 XGL     -0.643500
     18 C5          3.4930   -1.4440    0.1320 cd        1 XGL      0.192800
     19 C4          3.1280   -0.0970   -0.2500 cc        1 XGL      0.048800
     20 N3          4.0320    0.9410   -0.4320 nc        1 XGL     -0.620100
     21 C2          5.3120    0.6220   -0.1910 cd        1 XGL      0.597800
     22 N2          6.3230    1.6470   -0.2610 nh        1 XGL     -0.866800
     23 N1          5.7680   -0.6630    0.1690 n         1 XGL     -0.498400
     24 OP3        -4.2770    0.0300   -1.8250 o         1 XGL     -0.915500
     25 H5'        -2.8480   -0.5820    0.8230 h1        1 XGL      0.000200
     26 H5''       -2.9440    0.7370    2.0960 h1        1 XGL      0.000200
     27 H4'        -2.2760    2.3690    0.1180 hc        1 XGL      0.078700
     28 H6'        -2.5300    0.4040   -1.5680 ha        1 XGL      0.290000
     29 H7'        -0.1690    0.1190   -2.4920 ha        1 XGL      0.117000
     30 H3'        -0.3930    0.4170    1.6230 h1        1 XGL      0.037700
     31 HO3'       -1.7600    2.3800    2.4470 ho        1 XGL      0.420000
     32 H2'         1.4390    2.0820    1.0660 hc        1 XGL      0.046700
     33 H2''        0.2990    2.9510   -0.0370 hc        1 XGL      0.046700
     34 H1'         1.5360    1.6260   -1.5170 h1        1 XGL      0.048700
     35 H8          0.2650   -1.6970   -0.1540 h5        1 XGL      0.107100
     36 HN21        5.9110    2.5580   -0.3340 hn        1 XGL      0.382800
     37 HN22        6.9360    1.4800   -1.0360 hn        1 XGL      0.382800
     38 HN1         6.7280   -0.7990    0.3910 hn        1 XGL      0.322500
@<TRIPOS>BOND
     1    1    2 1   
     2    1    3 1   
     3    1    4 1   
     4    1   24 1   
     5    4    5 1   
     6    5    6 1   
     7    5   25 1   
     8    5   26 1   
     9    6    7 1   
    10    6    9 1   
    11    6   27 1   
    12    7    8 2   
    13    7   28 1   
    14    8   12 1   
    15    8   29 1   
    16    9   10 1   
    17    9   11 1   
    18    9   30 1   
    19   10   31 1   
    20   11   12 1   
    21   11   32 1   
    22   11   33 1   
    23   12   13 1   
    24   12   34 1   
    25   13   14 1   
    26   13   19 1   
    27   14   15 2   
    28   14   35 1   
    29   15   18 1   
    30   16   17 2   
    31   16   18 1   
    32   16   23 1   
    33   18   19 2   
    34   19   20 1   
    35   20   21 2   
    36   21   22 1   
    37   21   23 1   
    38   22   36 1   
    39   22   37 1   
    40   23   38 1   
@<TRIPOS>SUBSTRUCTURE
     1 XGL         1 TEMP              0 ****  ****    0 ROOT
