@<TRIPOS>MOLECULE
XGL
   38    34     1     0     0
SMALL
bcc


@<TRIPOS>ATOM
      1 P           1.6120   -1.6270    5.7270 p3        1 XGL      2.522000
      2 OP1         2.0700   -2.9080    5.0670 o         1 XGL     -1.236500
      3 OP2         2.7660   -0.7370    5.9310 os        1 XGL     -1.273000
      4 O5'         0.5440   -0.9050    4.7950 os        1 XGL     -0.727000
      5 C5'         0.8370   -0.7680    3.3780 c3        1 XGL      0.101000
      6 C4'         0.0660    0.4470    2.8070 c3        1 XGL     -0.237000
      7 C6'        -1.2070    0.0680    2.3730 c2        1 XGL     -0.022000
      8 C7'        -1.3220   -0.3760    0.7750 c1        1 XGL     -0.327000
      9 C3'         0.9920    1.2200    1.5500 c3        1 XGL      0.083000
     10 O3'         0.3640    2.5940    1.2740 oh        1 XGL     -0.410000
     11 C2'         1.0510    0.6540    0.5520 c3        1 XGL     -0.169000
     12 C1'        -0.3840    0.2980   -0.1560 c2        1 XGL      0.071000
     13 N9         -0.1960   -0.4770   -1.3910 n3        1 XGL     -0.098000
     14 C8          0.2700   -1.7580   -1.4290 c1        1 XGL     -0.086000
     15 N7          0.2010   -2.1960   -2.7210 n2        1 XGL     -0.104000
     16 C6         -0.5980   -1.1080   -4.9420 c1        1 XGL      0.394000
     17 O6         -0.1830   -2.0130   -5.7320 o         1 XGL     -0.373000
     18 C5         -0.2990   -1.2050   -3.4700 c1        1 XGL     -0.242000
     19 C4         -0.5490   -0.1270   -2.6410 c1        1 XGL      0.031000
     20 N3         -1.0990    1.1040   -3.1920 n1        1 XGL     -0.179000
     21 C2         -1.3890    1.2000   -4.5810 c1        1 XGL      0.166000
     22 N2         -1.8610    2.4560   -5.1370 n2        1 XGL     -0.307000
     23 N1         -1.1410    0.0640   -5.4590 n3        1 XGL     -0.340000
     24 OP3         0.9680   -1.9570    7.0980 o         1 XGL     -1.236500
     25 H5'         1.8490   -0.6220    3.2490 h1        1 XGL      0.027000
     26 H5''        0.5650   -1.5710    2.9110 h1        1 XGL      0.027000
     27 H4'         0.0060    1.0350    3.6180 hc        1 XGL      0.217000
     28 H6'        -1.8910   -0.2580    3.0390 ha        1 XGL      0.133000
     29 H7'        -2.1150   -0.7660    0.4480 ha        1 XGL      0.106000
     30 H3'         1.9100    1.3560    1.8830 h1        1 XGL      0.064000
     31 HO3'        0.6460    3.1660    1.8610 ho        1 XGL      0.305000
     32 H2'         1.5170   -0.1620    0.7010 hc        1 XGL      0.076000
     33 H2''        1.5440    1.1640   -0.0380 hc        1 XGL      0.076000
     34 H1'        -0.8040    1.1360   -0.5220 h4        1 XGL      0.143000
     35 H8          0.6310   -2.2650   -0.6670 DU        1 XGL      0.209000
     36 HN21       -2.0060    3.1950   -4.5760 hn        1 XGL      0.188000
     37 HN22       -2.0360    2.5180   -6.0130 hn        1 XGL      0.188000
     38 HN1        -1.3320    0.1290   -6.3710 hn        1 XGL      0.238000
@<TRIPOS>BOND
     1    1    2 1   
     2    1    4 1   
     3    1   24 1   
     4    4    5 1   
     5    5    6 1   
     6    5   25 1   
     7    5   26 1   
     8    6    7 1   
     9    6    9 1   
    10    6   27 1   
    11    7    8 1   
    12    7   28 1   
    13    8   29 1   
    14    9   10 1   
    15    9   11 1   
    16    9   30 1   
    17   10   31 1   
    18   11   12 1   
    19   11   32 1   
    20   11   33 1   
    21   12   13 1   
    22   12   34 1   
    23   13   14 1   
    24   13   19 1   
    25   14   15 1   
    26   15   18 1   
    27   16   17 1   
    28   16   23 1   
    29   18   19 1   
    30   20   21 1   
    31   21   23 1   
    32   22   36 1   
    33   22   37 1   
    34   23   38 1   
@<TRIPOS>SUBSTRUCTURE
     1 XGL         1 TEMP              0 ****  ****    0 ROOT
