@<TRIPOS>MOLECULE
XGP
   27    26     1     0     0
SMALL
bcc


@<TRIPOS>ATOM
      1 P          -3.0850   -0.1770   -0.4830 p3        1 XGP      2.524000
      2 C1         -1.0130    0.6890    0.4740 c3        1 XGP      0.215000
      3 C2         -0.2350   -0.0700    1.4810 c3        1 XGP     -0.030000
      4 O2         -0.5010    0.5030    2.8190 oh        1 XGP     -0.423000
      5 C3          1.1590   -0.0060    1.2210 c3        1 XGP     -0.007000
      6 O3          1.8350   -1.2490    2.0670 oh        1 XGP     -0.384000
      7 C4          1.7400   -0.0510   -0.0580 c3        1 XGP      0.002000
      8 O4          3.0970    0.5210    0.0120 oh        1 XGP     -0.348000
      9 C5          0.9230    0.7390   -1.0690 c3        1 XGP      0.062000
     10 O5         -0.0790    1.8220   -0.3860 os        1 XGP     -0.316000
     11 C6          0.1700   -0.1520   -1.8300 c3        1 XGP     -0.056000
     12 O6          0.9150   -0.5340   -2.9900 oh        1 XGP     -0.367000
     13 OP1        -1.5300   -0.1340   -0.3560 o         1 XGP     -0.725000
     14 OP2        -3.6910   -0.4610    0.8660 o         1 XGP     -1.242667
     15 OP3        -3.4860   -1.2710   -1.4590 o         1 XGP     -1.242667
     16 OP4        -3.5790    1.1410   -0.9810 o         1 XGP     -1.242667
     17 H1         -1.7370    1.1660    0.9340 h2        1 XGP      0.120000
     18 H2         -0.5160   -0.9880    1.4690 h1        1 XGP      0.082000
     19 HO2        -0.9270   -0.0710    3.2990 ho        1 XGP      0.303000
     20 H3          1.4710    0.8160    1.6300 h1        1 XGP      0.092000
     21 HO3         2.3760   -0.9290    2.6650 ho        1 XGP      0.220000
     22 H4          1.8000   -0.9800   -0.3510 h1        1 XGP      0.078000
     23 HO4         3.6650   -0.0540   -0.2740 ho        1 XGP      0.189000
     24 H5          1.5690    1.2390   -1.6940 h1        1 XGP      0.100000
     25 H6         -0.6820    0.2890   -2.1120 h1        1 XGP      0.109500
     26 H6A        -0.0310   -0.9350   -1.3050 h1        1 XGP      0.109500
     27 HO6         0.3710   -0.8630   -3.5890 ho        1 XGP      0.178000
@<TRIPOS>BOND
     1    1   14 1   
     2    1   15 1   
     3    1   16 1   
     4    2    3 1   
     5    2   10 1   
     6    2   13 1   
     7    2   17 1   
     8    3    4 1   
     9    3    5 1   
    10    3   18 1   
    11    4   19 1   
    12    5    6 1   
    13    5    7 1   
    14    5   20 1   
    15    6   21 1   
    16    7    8 1   
    17    7    9 1   
    18    7   22 1   
    19    8   23 1   
    20    9   10 1   
    21    9   11 1   
    22    9   24 1   
    23   11   12 1   
    24   11   25 1   
    25   11   26 1   
    26   12   27 1   
@<TRIPOS>SUBSTRUCTURE
     1 XGP         1 TEMP              0 ****  ****    0 ROOT
