@<TRIPOS>MOLECULE
XGP
   27    27     1     0     0
SMALL
bcc


@<TRIPOS>ATOM
      1 P           0.2080   -0.2540    0.2840 p5        1 XGP      1.320900
      2 C1          2.4010    1.1490    0.4490 c3        1 XGP      0.393900
      3 C2          3.6980    0.5120    1.0320 c3        1 XGP      0.082100
      4 O2          3.4500   -0.5590    1.9060 oh        1 XGP     -0.702800
      5 C3          4.4630    1.5890    1.8200 c3        1 XGP      0.089100
      6 O3          5.6930    1.0980    2.3500 oh        1 XGP     -0.657800
      7 C4          4.7930    2.7620    0.8890 c3        1 XGP      0.109100
      8 O4          5.4010    3.8390    1.5960 oh        1 XGP     -0.628800
      9 C5          3.4860    3.2730    0.2560 c3        1 XGP      0.119100
     10 O5          2.8300    2.2310   -0.4360 os        1 XGP     -0.460600
     11 C6          3.7770    4.3580   -0.7840 c3        1 XGP      0.148400
     12 O6          2.5940    4.8410   -1.3880 oh        1 XGP     -0.640800
     13 OP1         1.7410    0.3240   -0.3820 os        1 XGP     -0.519200
     14 OP2         0.8000   -1.1230    1.3710 o         1 XGP     -0.908833
     15 OP3        -0.3860    1.0290    0.7820 o         1 XGP     -0.908833
     16 OP4        -0.4440   -0.9470   -0.8670 o         1 XGP     -0.908833
     17 H1          1.7540    1.5690    1.2740 h2        1 XGP      0.065700
     18 H2          4.3460    0.1390    0.1910 h1        1 XGP      0.030700
     19 HO2         2.5040   -0.8600    1.7570 ho        1 XGP      0.517000
     20 H3          3.8390    1.9490    2.6850 h1        1 XGP      0.048700
     21 HO3         5.5420    0.1630    2.5400 ho        1 XGP      0.426000
     22 H4          5.5050    2.4190    0.0870 h1        1 XGP      0.039700
     23 HO4         5.9850    3.4340    2.2480 ho        1 XGP      0.402000
     24 H5          2.8210    3.6870    1.0650 h1        1 XGP      0.049700
     25 H6          4.2580    5.2420   -0.2900 h1        1 XGP      0.026700
     26 H6A         4.4550    3.9510   -1.5820 h1        1 XGP      0.026700
     27 HO6         1.9980    4.0820   -1.4880 ho        1 XGP      0.442000
@<TRIPOS>BOND
     1    1   13 1   
     2    1   14 1   
     3    1   15 1   
     4    1   16 1   
     5    2    3 1   
     6    2   10 1   
     7    2   13 1   
     8    2   17 1   
     9    3    4 1   
    10    3    5 1   
    11    3   18 1   
    12    4   19 1   
    13    5    6 1   
    14    5    7 1   
    15    5   20 1   
    16    6   21 1   
    17    7    8 1   
    18    7    9 1   
    19    7   22 1   
    20    8   23 1   
    21    9   10 1   
    22    9   11 1   
    23    9   24 1   
    24   11   12 1   
    25   11   25 1   
    26   11   26 1   
    27   12   27 1   
@<TRIPOS>SUBSTRUCTURE
     1 XGP         1 TEMP              0 ****  ****    0 ROOT
