@<TRIPOS>MOLECULE
XGP
   27    27     1     0     0
SMALL
bcc


@<TRIPOS>ATOM
      1 P           0.1750   -0.2110    0.3130 p5        1 XGP      1.320900
      2 C1          2.3890    1.1610    0.4560 c3        1 XGP      0.393900
      3 C2          3.6830    0.5040    1.0240 c3        1 XGP      0.082100
      4 O2          3.4300   -0.5650    1.8980 oh        1 XGP     -0.702800
      5 C3          4.4720    1.5690    1.8060 c3        1 XGP      0.089100
      6 O3          5.7000    1.0600    2.3210 oh        1 XGP     -0.657800
      7 C4          4.8090    2.7390    0.8740 c3        1 XGP      0.109100
      8 O4          5.4390    3.8060    1.5770 oh        1 XGP     -0.628800
      9 C5          3.5020    3.2710    0.2570 c3        1 XGP      0.119100
     10 O5          2.8240    2.2400   -0.4310 os        1 XGP     -0.460600
     11 C6          3.7960    4.3540   -0.7830 c3        1 XGP      0.148400
     12 O6          2.6140    4.8560   -1.3730 oh        1 XGP     -0.640800
     13 OP1         1.7080    0.3480   -0.3690 os        1 XGP     -0.519200
     14 OP2         0.7670   -1.0910    1.3900 o         1 XGP     -0.908833
     15 OP3        -0.3950    1.0790    0.8200 o         1 XGP     -0.908833
     16 OP4        -0.5000   -0.8910   -0.8330 o         1 XGP     -0.908833
     17 H1          1.7570    1.5890    1.2900 h2        1 XGP      0.065700
     18 H2          4.3160    0.1260    0.1740 h1        1 XGP      0.030700
     19 HO2         2.4780   -0.8530    1.7580 ho        1 XGP      0.517000
     20 H3          3.8630    1.9350    2.6790 h1        1 XGP      0.048700
     21 HO3         5.5390    0.1260    2.5100 ho        1 XGP      0.426000
     22 H4          5.5060    2.3890    0.0640 h1        1 XGP      0.039700
     23 HO4         6.0240    3.3910    2.2210 ho        1 XGP      0.402000
     24 H5          2.8520    3.6920    1.0740 h1        1 XGP      0.049700
     25 H6          4.4590    3.9400   -1.5900 h1        1 XGP      0.026700
     26 H6A         4.2950    5.2300   -0.2930 h1        1 XGP      0.026700
     27 HO6         2.0050    4.1060   -1.4690 ho        1 XGP      0.442000
@<TRIPOS>BOND
     1    1   13 1   
     2    1   14 1   
     3    1   15 1   
     4    1   16 1   
     5    2    3 1   
     6    2   10 1   
     7    2   13 1   
     8    2   17 1   
     9    3    4 1   
    10    3    5 1   
    11    3   18 1   
    12    4   19 1   
    13    5    6 1   
    14    5    7 1   
    15    5   20 1   
    16    6   21 1   
    17    7    8 1   
    18    7    9 1   
    19    7   22 1   
    20    8   23 1   
    21    9   10 1   
    22    9   11 1   
    23    9   24 1   
    24   11   12 1   
    25   11   25 1   
    26   11   26 1   
    27   12   27 1   
@<TRIPOS>SUBSTRUCTURE
     1 XGP         1 TEMP              0 ****  ****    0 ROOT
