@<TRIPOS>MOLECULE
XGP
   27    27     1     0     0
SMALL
bcc


@<TRIPOS>ATOM
      1 P           2.7770   -0.2150   -0.1900 p5        1 XGP      1.320900
      2 C1          0.1850   -0.0920    0.0830 c3        1 XGP      0.393900
      3 C2         -0.6320   -1.3810    0.4000 c3        1 XGP      0.082100
      4 O2          0.0020   -2.5610   -0.0200 oh        1 XGP     -0.702800
      5 C3         -1.9850   -1.2960   -0.3270 c3        1 XGP      0.089100
      6 O3         -2.8180   -2.4200   -0.0510 oh        1 XGP     -0.657800
      7 C4         -2.7320   -0.0390    0.1360 c3        1 XGP      0.109100
      8 O4         -3.9420    0.1510   -0.5920 oh        1 XGP     -0.628800
      9 C5         -1.8300    1.1870   -0.0970 c3        1 XGP      0.119100
     10 O5         -0.6020    1.0340    0.5850 os        1 XGP     -0.460600
     11 C6         -2.4770    2.4510    0.4720 c3        1 XGP      0.148400
     12 O6         -1.6660    3.5930    0.2790 oh        1 XGP     -0.640800
     13 OP1         1.3220   -0.0060    0.7950 os        1 XGP     -0.519200
     14 OP2         2.5750   -1.6810   -0.5000 o         1 XGP     -0.908833
     15 OP3         2.4750    0.7020   -1.3370 o         1 XGP     -0.908833
     16 OP4         3.8920    0.1410    0.7390 o         1 XGP     -0.908833
     17 H1          0.3410    0.0210   -1.0300 h2        1 XGP      0.065700
     18 H2         -0.8120   -1.4500    1.5080 h1        1 XGP      0.030700
     19 HO2         0.9680   -2.3450   -0.1880 ho        1 XGP      0.517000
     20 H3         -1.8230   -1.2580   -1.4400 h1        1 XGP      0.048700
     21 HO3        -2.2170   -3.1650    0.0820 ho        1 XGP      0.426000
     22 H4         -2.9880   -0.1320    1.2280 h1        1 XGP      0.039700
     23 HO4        -4.3140   -0.7290   -0.7250 ho        1 XGP      0.402000
     24 H5         -1.6530    1.3110   -1.2020 h1        1 XGP      0.049700
     25 H6         -3.4410    2.6610   -0.0620 h1        1 XGP      0.026700
     26 H6A        -2.6710    2.3210    1.5700 h1        1 XGP      0.026700
     27 HO6        -0.7450    3.3080    0.3930 ho        1 XGP      0.442000
@<TRIPOS>BOND
     1    1   13 1   
     2    1   14 1   
     3    1   15 1   
     4    1   16 1   
     5    2    3 1   
     6    2   10 1   
     7    2   13 1   
     8    2   17 1   
     9    3    4 1   
    10    3    5 1   
    11    3   18 1   
    12    4   19 1   
    13    5    6 1   
    14    5    7 1   
    15    5   20 1   
    16    6   21 1   
    17    7    8 1   
    18    7    9 1   
    19    7   22 1   
    20    8   23 1   
    21    9   10 1   
    22    9   11 1   
    23    9   24 1   
    24   11   12 1   
    25   11   25 1   
    26   11   26 1   
    27   12   27 1   
@<TRIPOS>SUBSTRUCTURE
     1 XGP         1 TEMP              0 ****  ****    0 ROOT
