@<TRIPOS>MOLECULE
XGR
   38    35     1     0     0
SMALL
bcc


@<TRIPOS>ATOM
      1 P          -5.6700    1.0280    2.6230 p3        1 XGR      2.520000
      2 N1          4.3700   -1.6670   -2.9020 n3        1 XGR     -0.340000
      3 C2          4.5720   -0.8770   -1.7310 c2        1 XGR      0.158000
      4 N2          5.8610   -0.4500   -1.3910 n3        1 XGR     -0.307000
      5 N3          3.4420   -0.4600   -0.9380 n1        1 XGR     -0.195000
      6 C4          2.0950   -0.8450   -1.3280 c1        1 XGR     -0.110000
      7 C5          1.8990   -1.6030   -2.4440 c1        1 XGR     -0.110000
      8 C6          3.0790   -2.0340   -3.2780 c1        1 XGR      0.394000
      9 O6          2.9060   -2.7190   -4.2680 o         1 XGR     -0.368000
     10 N7          0.5720   -1.8820   -2.5350 n2        1 XGR     -0.103500
     11 C8         -0.0560   -1.2970   -1.4760 c1        1 XGR     -0.056000
     12 N9          0.8840   -0.6570   -0.7310 n2        1 XGR     -0.103500
     13 C1'         0.9070   -0.0210    0.5320 c2        1 XGR      0.087000
     14 C2'         0.1870    1.4860    0.4510 c3        1 XGR     -0.192000
     15 C3'        -1.0440    1.4880    0.3570 c3        1 XGR      0.081000
     16 O3'        -1.5090    2.9170    0.3410 oh        1 XGR     -0.395000
     17 C4'        -1.8950    0.6560    1.6220 c3        1 XGR     -0.248000
     18 C5'        -3.4000    0.6580    1.3820 c3        1 XGR      0.111000
     19 O5'        -4.0870    0.8240    2.6390 o         1 XGR     -0.726000
     20 C6'        -1.3920   -0.6740    1.8320 c2        1 XGR     -0.001000
     21 C7'         0.2910   -0.8900    1.5700 c2        1 XGR     -0.339000
     22 OP1        -5.9980    2.3500    1.9960 o         1 XGR     -1.246000
     23 OP2        -6.1970    0.9970    4.0430 o         1 XGR     -1.246000
     24 OP3        -6.3080   -0.0710    1.8310 o         1 XGR     -1.246000
     25 HN1         5.0830   -1.8750   -3.4440 hn        1 XGR      0.237000
     26 HN2         5.9980   -0.0000   -0.6230 hn        1 XGR      0.181500
     27 HN2A        6.5730   -0.6660   -1.9300 hn        1 XGR      0.181500
     28 H8         -0.9980   -1.3800   -1.2550 DU        1 XGR      0.230000
     29 H1'         1.8690    0.0640    0.6790 ha        1 XGR      0.095000
     30 H2'         0.4310    1.9860    1.2600 hc        1 XGR      0.091000
     31 H2'A        0.5590    1.9660   -0.3340 hc        1 XGR      0.091000
     32 H3'        -1.2900    1.0700   -0.5090 h1        1 XGR      0.048000
     33 HO3'       -1.4460    3.2390   -0.4800 ho        1 XGR      0.305000
     34 H4'        -1.8420    1.1740    2.4630 hc        1 XGR      0.221000
     35 H5'        -3.6680   -0.1980    0.9720 h1        1 XGR      0.027500
     36 H5'A       -3.6310    1.3840    0.7920 h1        1 XGR      0.027500
     37 H6'        -1.8700   -1.2830    2.3930 ha        1 XGR      0.142000
     38 H7'         0.7240   -1.7350    1.8220 ha        1 XGR      0.103000
@<TRIPOS>BOND
     1    1   22 1   
     2    1   23 1   
     3    1   24 1   
     4    2    3 1   
     5    2    8 1   
     6    2   25 1   
     7    3    4 1   
     8    3    5 1   
     9    4   26 1   
    10    4   27 1   
    11    6    7 1   
    12    6   12 1   
    13    7   10 1   
    14    8    9 1   
    15   10   11 1   
    16   11   12 1   
    17   13   14 1   
    18   13   21 1   
    19   13   29 1   
    20   14   15 1   
    21   14   30 1   
    22   14   31 1   
    23   15   16 1   
    24   15   17 1   
    25   15   32 1   
    26   16   33 1   
    27   17   18 1   
    28   17   20 1   
    29   17   34 1   
    30   18   19 1   
    31   18   35 1   
    32   18   36 1   
    33   20   21 1   
    34   20   37 1   
    35   21   38 1   
@<TRIPOS>SUBSTRUCTURE
     1 XGR         1 TEMP              0 ****  ****    0 ROOT
