@<TRIPOS>MOLECULE
XGR
   38    40     1     0     0
SMALL
bcc


@<TRIPOS>ATOM
      1 P          -5.0110   -0.3120    0.3880 p5        1 XGR      1.319900
      2 N1          5.8040   -0.6280   -0.1380 n         1 XGR     -0.498400
      3 C2          5.3300    0.6320    0.2830 cc        1 XGR      0.597800
      4 N2          6.3310    1.6590    0.4280 nh        1 XGR     -0.866800
      5 N3          4.0430    0.9260    0.5170 nd        1 XGR     -0.620100
      6 C4          3.1520   -0.1060    0.2620 cd        1 XGR      0.048800
      7 C5          3.5360   -1.4290   -0.1850 cc        1 XGR      0.192800
      8 C6          4.9350   -1.7160   -0.4120 c         1 XGR      0.646000
      9 O6          5.4630   -2.7750   -0.7970 o         1 XGR     -0.643500
     10 N7          2.4070   -2.2300   -0.3330 nc        1 XGR     -0.631000
     11 C8          1.3690   -1.4330    0.0130 cd        1 XGR      0.439400
     12 N9          1.7630   -0.1330    0.3880 na        1 XGR     -0.150900
     13 C1'         0.9040    0.9670    0.8250 c3        1 XGR      0.110200
     14 C2'         0.5770    1.9480   -0.3120 c3        1 XGR     -0.091400
     15 C3'        -0.5970    1.4640   -1.1590 c3        1 XGR      0.147100
     16 O3'        -0.7610    2.4230   -2.2030 oh        1 XGR     -0.642800
     17 C4'        -1.8520    1.3100   -0.3050 c3        1 XGR     -0.154500
     18 C5'        -2.9750    0.5290   -1.0540 c3        1 XGR      0.236400
     19 O5'        -4.2040    0.8910   -0.5890 os        1 XGR     -0.558200
     20 C6'        -1.5710    0.6410    0.9860 c2        1 XGR     -0.060200
     21 C7'        -0.3410    0.4690    1.4880 c2        1 XGR     -0.352200
     22 OP1        -6.4370    0.1400    0.3410 o         1 XGR     -0.915500
     23 OP2        -4.6400   -1.5710   -0.3430 o         1 XGR     -0.915500
     24 OP3        -4.2820   -0.1230    1.7020 o         1 XGR     -0.915500
     25 HN2         6.9310    1.4550    1.2040 hn        1 XGR      0.382800
     26 HN2A        5.9090    2.5610    0.5420 hn        1 XGR      0.382800
     27 H1'         1.5220    1.5330    1.5900 h1        1 XGR      0.048700
     28 H2'         0.3010    2.9260    0.1610 hc        1 XGR      0.046700
     29 H2'A        1.4680    2.1280   -0.9660 hc        1 XGR      0.046700
     30 H3'        -0.3390    0.4810   -1.6460 h1        1 XGR      0.037700
     31 HO3'       -1.7080    2.4750   -2.3880 ho        1 XGR      0.420000
     32 H4'        -2.2660    2.3340   -0.0740 hc        1 XGR      0.078700
     33 H5'        -2.8830    0.8070   -2.1490 h1        1 XGR      0.000200
     34 H5'A       -2.7990   -0.5790   -0.9480 h1        1 XGR      0.000200
     35 H6'        -2.5330    0.2780    1.4990 ha        1 XGR      0.290000
     36 H7'        -0.1870   -0.0390    2.4500 ha        1 XGR      0.117000
     37 HN1         6.7690   -0.7450   -0.3480 hn        1 XGR      0.322500
     38 H8          0.3050   -1.7220    0.0260 h5        1 XGR      0.107100
@<TRIPOS>BOND
     1    1   19 1   
     2    1   22 1   
     3    1   23 1   
     4    1   24 1   
     5    2    3 1   
     6    2    8 1   
     7    2   37 1   
     8    3    4 1   
     9    3    5 2   
    10    4   25 1   
    11    4   26 1   
    12    5    6 1   
    13    6    7 2   
    14    6   12 1   
    15    7    8 1   
    16    7   10 1   
    17    8    9 2   
    18   10   11 2   
    19   11   12 1   
    20   11   38 1   
    21   12   13 1   
    22   13   14 1   
    23   13   21 1   
    24   13   27 1   
    25   14   15 1   
    26   14   28 1   
    27   14   29 1   
    28   15   16 1   
    29   15   17 1   
    30   15   30 1   
    31   16   31 1   
    32   17   18 1   
    33   17   20 1   
    34   17   32 1   
    35   18   19 1   
    36   18   33 1   
    37   18   34 1   
    38   20   21 2   
    39   20   35 1   
    40   21   36 1   
@<TRIPOS>SUBSTRUCTURE
     1 XGR         1 TEMP              0 ****  ****    0 ROOT
