@<TRIPOS>MOLECULE
XGU
   38    40     1     0     0
SMALL
bcc


@<TRIPOS>ATOM
      1 OP3         5.7680    0.1840    0.5960 o         1 XGU     -0.913833
      2 P           5.0710   -0.0290   -0.7150 p5        1 XGU      1.325900
      3 OP1         4.4390    1.2270   -1.2880 o         1 XGU     -0.913833
      4 OP2         5.6660   -0.9910   -1.6940 o         1 XGU     -0.913833
      5 O6'         3.5970   -0.8080   -0.2000 os        1 XGU     -0.557200
      6 C6'         2.9410   -0.1340    0.7900 c3        1 XGU      0.233400
      7 C5'         1.7700    0.7120    0.2130 c3        1 XGU      0.060100
      8 O5'         0.5520    0.0960    0.6980 os        1 XGU     -0.439600
      9 C4'         1.8130    2.1740    0.6790 c3        1 XGU      0.165100
     10 O4'         2.9390    2.8770    0.2400 oh        1 XGU     -0.689800
     11 C3'         0.5600    2.9060    0.1730 c3        1 XGU     -0.110400
     12 C2'        -0.6960    2.1830    0.6070 c3        1 XGU     -0.109400
     13 C1'        -0.6030    0.7170    0.1400 c3        1 XGU      0.252800
     14 N9         -1.7470   -0.0900    0.5530 na        1 XGU     -0.160900
     15 C8         -1.7690   -1.0950    1.5390 cc        1 XGU      0.443400
     16 N7         -2.9890   -1.6560    1.7030 nd        1 XGU     -0.636000
     17 C4         -3.0450   -0.0130    0.0530 cc        1 XGU      0.066800
     18 C5         -3.8080   -1.0010    0.7860 cd        1 XGU      0.188800
     19 N3         -3.5590    0.7960   -0.9500 nc        1 XGU     -0.619100
     20 C2         -4.8670    0.6230   -1.1980 cd        1 XGU      0.608800
     21 N2         -5.5190    1.4690   -2.1610 nh        1 XGU     -0.868800
     22 N1         -5.6910   -0.3200   -0.5470 n         1 XGU     -0.500400
     23 C6         -5.2150   -1.1630    0.4900 c         1 XGU      0.647000
     24 O6         -6.0380   -1.9330    1.0150 o         1 XGU     -0.643500
     25 H6'1        3.6390    0.5650    1.3370 h1        1 XGU      0.015700
     26 H6'2        2.4960   -0.8680    1.5240 h1        1 XGU      0.015700
     27 H5'         1.7860    0.6640   -0.9100 h1        1 XGU      0.086700
     28 H4'         1.8070    2.2000    1.8080 h1        1 XGU      0.009700
     29 H4T'        3.5600    2.2570   -0.2710 ho        1 XGU      0.525000
     30 H3'1        0.6080    2.9730   -0.9440 hc        1 XGU      0.040700
     31 H3'2        0.5540    3.9500    0.5750 hc        1 XGU      0.040700
     32 H2'1       -1.6030    2.6660    0.1640 hc        1 XGU      0.038700
     33 H2'2       -0.7860    2.2190    1.7230 hc        1 XGU      0.038700
     34 H1'        -0.5550    0.6780   -0.9920 h2        1 XGU      0.070700
     35 H8         -0.8430   -1.3690    2.0680 h5        1 XGU      0.100100
     36 HN21       -4.9050    2.1910   -2.4890 hn        1 XGU      0.389300
     37 HN22       -5.8720    0.9310   -2.9280 hn        1 XGU      0.389300
     38 HN1        -6.6630   -0.3520   -0.7560 hn        1 XGU      0.323500
@<TRIPOS>BOND
     1    1    2 1   
     2    2    3 1   
     3    2    4 1   
     4    2    5 1   
     5    5    6 1   
     6    6    7 1   
     7    6   25 1   
     8    6   26 1   
     9    7    8 1   
    10    7    9 1   
    11    7   27 1   
    12    8   13 1   
    13    9   10 1   
    14    9   11 1   
    15    9   28 1   
    16   10   29 1   
    17   11   12 1   
    18   11   30 1   
    19   11   31 1   
    20   12   13 1   
    21   12   32 1   
    22   12   33 1   
    23   13   14 1   
    24   13   34 1   
    25   14   15 1   
    26   14   17 1   
    27   15   16 2   
    28   15   35 1   
    29   16   18 1   
    30   17   18 2   
    31   17   19 1   
    32   18   23 1   
    33   19   20 2   
    34   20   21 1   
    35   20   22 1   
    36   21   36 1   
    37   21   37 1   
    38   22   23 1   
    39   22   38 1   
    40   23   24 2   
@<TRIPOS>SUBSTRUCTURE
     1 XGU         1 TEMP              0 ****  ****    0 ROOT
