@<TRIPOS>MOLECULE
XH2
   28    28     1     0     0
SMALL
bcc


@<TRIPOS>ATOM
      1 OAF         0.0900    0.2180   -0.2710 oh        1 XH2     -0.616800
      2 CAC         1.4810   -0.0070   -0.0530 c3        1 XH2      0.163300
      3 CAB         1.7900   -0.0430    1.4570 c3        1 XH2      0.104100
      4 OAG         1.4200    1.2050    2.0330 oh        1 XH2     -0.627800
      5 CAA         3.2530   -0.3730    1.6900 c3        1 XH2     -0.096400
      6 CAI         3.6500   -1.7080    1.0650 c3        1 XH2      0.042000
      7 CAH         5.1890   -1.6940    0.7180 c         1 XH2      0.906600
      8 OAO         5.6890   -0.6500    0.2320 o         1 XH2     -0.817300
      9 OAN         5.8080   -2.7650    0.9710 o         1 XH2     -0.817300
     10 OAM         3.3770   -2.7320    2.0210 oh        1 XH2     -0.634800
     11 CAE         2.8900   -2.0290   -0.1850 c2        1 XH2     -0.092200
     12 CAD         1.9020   -1.2870   -0.7060 c2        1 XH2     -0.168400
     13 CAL         1.2220   -1.6510   -1.9780 c3        1 XH2     -0.018200
     14 CAK        -0.0310   -2.4690   -1.7010 c3        1 XH2      0.128400
     15 OAJ        -0.6020   -2.8150   -2.9580 oh        1 XH2     -0.615800
     16 HAF        -0.1900    0.8410    0.4120 ho        1 XH2      0.404000
     17 HAC         2.0440    0.8520   -0.5260 h1        1 XH2      0.038700
     18 HAB         1.1220   -0.7930    1.9650 h1        1 XH2      0.085700
     19 HAG         2.1120    1.8370    1.8090 ho        1 XH2      0.397000
     20 HAA1        3.9010    0.4270    1.2390 hc        1 XH2      0.065700
     21 HAA2        3.4520   -0.4100    2.7910 hc        1 XH2      0.065700
     22 HAM         4.1460   -3.3260    2.0230 ho        1 XH2      0.429000
     23 HAE         3.2210   -2.9590   -0.6770 ha        1 XH2      0.129000
     24 HAL1        0.9310   -0.7220   -2.5350 hc        1 XH2      0.050200
     25 HAL2        1.9090   -2.2440   -2.6370 hc        1 XH2      0.050200
     26 HAK1       -0.7600   -1.8620   -1.0990 h1        1 XH2      0.030700
     27 HAK2        0.2250   -3.4060   -1.1380 h1        1 XH2      0.030700
     28 HAJ        -1.4410   -3.2440   -2.7620 ho        1 XH2      0.384000
@<TRIPOS>BOND
     1    1    2 1   
     2    1   16 1   
     3    2    3 1   
     4    2   12 1   
     5    2   17 1   
     6    3    4 1   
     7    3    5 1   
     8    3   18 1   
     9    4   19 1   
    10    5    6 1   
    11    5   20 1   
    12    5   21 1   
    13    6    7 1   
    14    6   10 1   
    15    6   11 1   
    16    7    8 1   
    17    7    9 1   
    18   10   22 1   
    19   11   12 2   
    20   11   23 1   
    21   12   13 1   
    22   13   14 1   
    23   13   24 1   
    24   13   25 1   
    25   14   15 1   
    26   14   26 1   
    27   14   27 1   
    28   15   28 1   
@<TRIPOS>SUBSTRUCTURE
     1 XH2         1 TEMP              0 ****  ****    0 ROOT
