@<TRIPOS>MOLECULE
XH2
   28    28     1     0     0
SMALL
bcc


@<TRIPOS>ATOM
      1 OAF         0.0740    0.1950   -0.2540 oh        1 XH2     -0.616800
      2 CAC         1.4680   -0.0210   -0.0410 c3        1 XH2      0.163300
      3 CAB         1.7800   -0.0760    1.4670 c3        1 XH2      0.104100
      4 OAG         1.4000    1.1600    2.0610 oh        1 XH2     -0.627800
      5 CAA         3.2460   -0.3970    1.6920 c3        1 XH2     -0.096400
      6 CAI         3.6530   -1.7190    1.0480 c3        1 XH2      0.042000
      7 CAH         5.1910   -1.6870    0.6980 c         1 XH2      0.906600
      8 OAO         5.6810   -0.6320    0.2260 o         1 XH2     -0.817300
      9 OAN         5.8200   -2.7560    0.9350 o         1 XH2     -0.817300
     10 OAM         3.3910   -2.7590    1.9900 oh        1 XH2     -0.634800
     11 CAE         2.8930   -2.0290   -0.2050 c2        1 XH2     -0.092200
     12 CAD         1.8970   -1.2890   -0.7130 c2        1 XH2     -0.168400
     13 CAL         1.2180   -1.6410   -1.9890 c3        1 XH2     -0.018200
     14 CAK        -0.0280   -2.4730   -1.7210 c3        1 XH2      0.128400
     15 OAJ        -0.5980   -2.8060   -2.9820 oh        1 XH2     -0.615800
     16 HAF        -0.2100    0.8060    0.4390 ho        1 XH2      0.404000
     17 HAC         2.0220    0.8480   -0.5040 h1        1 XH2      0.038700
     18 HAB         1.1190   -0.8390    1.9660 h1        1 XH2      0.085700
     19 HAG         2.0870    1.8020    1.8450 ho        1 XH2      0.397000
     20 HAA1        3.4480   -0.4470    2.7930 hc        1 XH2      0.065700
     21 HAA2        3.8860    0.4150    1.2520 hc        1 XH2      0.065700
     22 HAM         4.1650   -3.3460    1.9820 ho        1 XH2      0.429000
     23 HAE         3.2310   -2.9500   -0.7100 ha        1 XH2      0.129000
     24 HAL1        0.9190   -0.7060   -2.5330 hc        1 XH2      0.050200
     25 HAL2        1.9090   -2.2190   -2.6580 hc        1 XH2      0.050200
     26 HAK1       -0.7600   -1.8800   -1.1100 h1        1 XH2      0.030700
     27 HAK2        0.2380   -3.4150   -1.1710 h1        1 XH2      0.030700
     28 HAJ        -1.4330   -3.2450   -2.7900 ho        1 XH2      0.384000
@<TRIPOS>BOND
     1    1    2 1   
     2    1   16 1   
     3    2    3 1   
     4    2   12 1   
     5    2   17 1   
     6    3    4 1   
     7    3    5 1   
     8    3   18 1   
     9    4   19 1   
    10    5    6 1   
    11    5   20 1   
    12    5   21 1   
    13    6    7 1   
    14    6   10 1   
    15    6   11 1   
    16    7    8 1   
    17    7    9 1   
    18   10   22 1   
    19   11   12 2   
    20   11   23 1   
    21   12   13 1   
    22   13   14 1   
    23   13   24 1   
    24   13   25 1   
    25   14   15 1   
    26   14   26 1   
    27   14   27 1   
    28   15   28 1   
@<TRIPOS>SUBSTRUCTURE
     1 XH2         1 TEMP              0 ****  ****    0 ROOT
