@<TRIPOS>MOLECULE
XHP
   20    21     1     0     0
SMALL
bcc


@<TRIPOS>ATOM
      1 N1          1.3460   -1.3970   -0.0090 nc        1 XHP     -0.740000
      2 C2          2.3210   -0.4950    0.0270 cd        1 XHP      0.680800
      3 N2          3.6630   -0.9340    0.1580 nh        1 XHP     -0.884800
      4 N3          2.1220    0.9100   -0.0080 n         1 XHP     -0.526400
      5 C4          0.8410    1.4700    0.0370 c         1 XHP      0.630200
      6 O4          0.7400    2.7030    0.0830 o         1 XHP     -0.563500
      7 N5         -1.5280    0.9800    0.0020 ne        1 XHP     -0.464300
      8 C6         -2.6060    0.0650   -0.0110 ce        1 XHP      0.011400
      9 C7         -2.3240   -1.4240    0.0030 c3        1 XHP      0.115000
     10 N8         -0.9570   -1.8570    0.0040 n2        1 XHP     -0.546900
     11 C9          0.0020   -0.9670    0.0060 cc        1 XHP      0.554000
     12 C10        -0.3170    0.5120    0.0130 cc        1 XHP      0.265000
     13 C6A        -3.8790    0.5100   -0.0320 c2        1 XHP     -0.139000
     14 HN2         3.7700   -1.9270    0.1160 hn        1 XHP      0.417300
     15 HN2A        4.3190   -0.4410   -0.4080 hn        1 XHP      0.417300
     16 HN3         2.8970    1.5300    0.0860 hn        1 XHP      0.338500
     17 H7         -2.8070   -1.8780    0.9180 h1        1 XHP      0.085200
     18 H5         -2.8100   -1.8960   -0.9020 h1        1 XHP      0.085200
     19 H6A        -4.1440    1.5760   -0.0410 ha        1 XHP      0.132500
     20 H6AA       -4.7190   -0.1970   -0.0410 ha        1 XHP      0.132500
@<TRIPOS>BOND
     1    1    2 2   
     2    1   11 1   
     3    2    3 1   
     4    2    4 1   
     5    3   14 1   
     6    3   15 1   
     7    4    5 1   
     8    4   16 1   
     9    5    6 2   
    10    5   12 1   
    11    7    8 1   
    12    7   12 2   
    13    8    9 1   
    14    8   13 2   
    15    9   10 1   
    16    9   17 1   
    17    9   18 1   
    18   10   11 2   
    19   11   12 1   
    20   13   19 1   
    21   13   20 1   
@<TRIPOS>SUBSTRUCTURE
     1 XHP         1 TEMP              0 ****  ****    0 ROOT
