@<TRIPOS>MOLECULE
XHP
   21    22     1     0     0
SMALL
bcc


@<TRIPOS>ATOM
      1 N1         -0.0080    0.0010   -0.0250 nc        1 XHP     -0.619000
      2 C2          1.3000    0.0000    0.0200 cd        1 XHP      0.560800
      3 N2          1.9810    0.0010   -1.3270 nz        1 XHP     -0.809600
      4 N3          2.1300   -0.0000    1.1430 ns        1 XHP     -0.534400
      5 C4          1.5460   -0.0010    2.4430 c         1 XHP      0.645200
      6 O4          2.3240   -0.0010    3.3940 o         1 XHP     -0.482500
      7 N5         -0.5350   -0.0010    3.6630 ne        1 XHP     -0.406300
      8 C6         -1.9440   -0.0010    3.7130 ce        1 XHP     -0.029600
      9 C7         -2.7460   -0.0010    2.4250 c3        1 XHP      0.104000
     10 N8         -2.0250   -0.0000    1.1850 n2        1 XHP     -0.459900
     11 C9         -0.7200   -0.0000    1.2100 cc        1 XHP      0.507000
     12 C10         0.0520   -0.0010    2.5030 cc        1 XHP      0.243000
     13 C6A        -2.5810   -0.0010    4.9050 c2        1 XHP     -0.064000
     14 HN2         1.2680    0.0020   -2.0740 hn        1 XHP      0.484467
     15 HN2A        2.5620    0.8420   -1.4160 hn        1 XHP      0.484467
     16 HN3         3.1260   -0.0000    1.0790 hn        1 XHP      0.353500
     17 H7         -3.4180   -0.9120    2.4000 h1        1 XHP      0.115700
     18 H5         -3.4180    0.9110    2.4000 h1        1 XHP      0.115700
     19 H6A        -3.6800   -0.0010    4.9540 ha        1 XHP      0.153000
     20 H6AA       -2.0520   -0.0020    5.8700 ha        1 XHP      0.153000
     21 H23         2.5620   -0.8400   -1.4170 hn        1 XHP      0.484467
@<TRIPOS>BOND
     1    1    2 2   
     2    1   11 1   
     3    2    3 1   
     4    2    4 1   
     5    3   14 1   
     6    3   15 1   
     7    3   21 1   
     8    4    5 1   
     9    4   16 1   
    10    5    6 2   
    11    5   12 1   
    12    7    8 1   
    13    7   12 2   
    14    8    9 1   
    15    8   13 2   
    16    9   10 1   
    17    9   17 1   
    18    9   18 1   
    19   10   11 2   
    20   11   12 1   
    21   13   19 1   
    22   13   20 1   
@<TRIPOS>SUBSTRUCTURE
     1 XHP         1 TEMP              0 ****  ****    0 ROOT
