@<TRIPOS>MOLECULE
XHP
   20    17     1     0     0
SMALL
bcc


@<TRIPOS>ATOM
      1 N1          0.3390   -0.3440   -1.9400 n1        1 XHP     -0.233000
      2 C2          1.8020   -0.3440   -1.9400 c1        1 XHP      0.234000
      3 N2          2.5100   -0.3810   -3.1680 n2        1 XHP     -0.323000
      4 N3          2.5350   -0.3440   -0.6730 n         1 XHP     -0.366000
      5 C4          1.8340   -0.2000    0.5530 c2        1 XHP      0.357000
      6 O4          2.4420   -0.2040    1.6050 o         1 XHP     -0.288000
      7 N5         -0.3550    0.1120    1.7660 n1        1 XHP     -0.036000
      8 C6         -1.7620    0.2870    1.7460 c1        1 XHP     -0.125000
      9 C7         -2.4840    0.5280    0.4200 c3        1 XHP     -0.093000
     10 N8         -1.8140   -0.0510   -0.7120 n2        1 XHP     -0.134000
     11 C9         -0.3810   -0.2050   -0.7010 c1        1 XHP      0.047000
     12 C10         0.3460   -0.1340    0.5540 c2        1 XHP     -0.092000
     13 C6A        -2.4600    0.2600    2.8990 c1        1 XHP     -0.139000
     14 HN2         2.0560   -0.3350   -3.9580 hn        1 XHP      0.212500
     15 HN2A        3.4170   -0.4740   -3.1690 hn        1 XHP      0.212500
     16 HN3         3.4470   -0.3440   -0.6770 hn        1 XHP      0.252000
     17 H7         -2.6500    1.4830    0.2990 h1        1 XHP      0.124500
     18 H5         -3.3980    0.1890    0.4630 h1        1 XHP      0.124500
     19 H6A        -3.4280    0.3800    2.8850 DU        1 XHP      0.124000
     20 H6AA       -1.9970    0.1210    3.7470 ha        1 XHP      0.141000
@<TRIPOS>BOND
     1    1    2 1   
     2    2    4 1   
     3    3   14 1   
     4    3   15 1   
     5    4    5 1   
     6    4   16 1   
     7    5    6 1   
     8    5   12 1   
     9    7   12 1   
    10    8    9 1   
    11    8   13 1   
    12    9   10 1   
    13    9   17 1   
    14    9   18 1   
    15   10   11 1   
    16   11   12 1   
    17   13   20 1   
@<TRIPOS>SUBSTRUCTURE
     1 XHP         1 TEMP              0 ****  ****    0 ROOT
