@<TRIPOS>MOLECULE
XHP
   21    22     1     0     0
SMALL
bcc


@<TRIPOS>ATOM
      1 N1         -0.0120   -0.0000   -0.0280 nc        1 XHP     -0.619000
      2 C2          1.2960   -0.0000    0.0190 cd        1 XHP      0.560800
      3 N2          1.9790   -0.0000   -1.3260 n4        1 XHP     -0.809600
      4 N3          2.1250   -0.0000    1.1430 n         1 XHP     -0.534400
      5 C4          1.5390    0.0000    2.4420 c         1 XHP      0.645200
      6 O4          2.3150    0.0000    3.3940 o         1 XHP     -0.482500
      7 N5         -0.5440    0.0000    3.6600 ne        1 XHP     -0.406300
      8 C6         -1.9540    0.0000    3.7070 ce        1 XHP     -0.029600
      9 C7         -2.7540    0.0000    2.4190 c3        1 XHP      0.104000
     10 N8         -2.0300    0.0000    1.1790 n2        1 XHP     -0.459900
     11 C9         -0.7250    0.0000    1.2060 cc        1 XHP      0.507000
     12 C10         0.0450    0.0000    2.5000 cc        1 XHP      0.243000
     13 C6A        -2.5920    0.0000    4.8990 c2        1 XHP     -0.064000
     14 HN2         2.5610    0.8410   -1.4150 hn        1 XHP      0.484467
     15 HN2A        1.2670   -0.0000   -2.0750 hn        1 XHP      0.484467
     16 HN3         3.1200    0.0000    1.0800 hn        1 XHP      0.353500
     17 H7         -3.4250    0.9120    2.3920 h1        1 XHP      0.115700
     18 H5         -3.4260   -0.9110    2.3920 h1        1 XHP      0.115700
     19 H6A        -3.6910    0.0000    4.9460 ha        1 XHP      0.153000
     20 H6AA       -2.0640    0.0000    5.8650 ha        1 XHP      0.153000
     21 H23         2.5610   -0.8410   -1.4150 hn        1 XHP      0.484467
@<TRIPOS>BOND
     1    1    2 2   
     2    1   11 1   
     3    2    3 1   
     4    2    4 1   
     5    3   14 1   
     6    3   15 1   
     7    3   21 1   
     8    4    5 1   
     9    4   16 1   
    10    5    6 2   
    11    5   12 1   
    12    7    8 1   
    13    7   12 2   
    14    8    9 1   
    15    8   13 2   
    16    9   10 1   
    17    9   17 1   
    18    9   18 1   
    19   10   11 2   
    20   11   12 1   
    21   13   19 1   
    22   13   20 1   
@<TRIPOS>SUBSTRUCTURE
     1 XHP         1 TEMP              0 ****  ****    0 ROOT
