@<TRIPOS>MOLECULE
XI2
   41    43     1     0     0
SMALL
bcc


@<TRIPOS>ATOM
      1 F26        -0.0360   -0.5790    0.0110 f         1 XI2     -0.131900
      2 C22         1.3040   -0.3880    0.0170 ca        1 XI2      0.156900
      3 C21         2.0070   -0.4170    1.2370 ca        1 XI2     -0.177000
      4 C20         3.3820   -0.2160    1.2440 ca        1 XI2     -0.072000
      5 C23         1.9730   -0.1620   -1.1980 ca        1 XI2     -0.204000
      6 C24         3.3640    0.0330   -1.1890 ca        1 XI2      0.171900
      7 F25         4.0200    0.2500   -2.3480 f         1 XI2     -0.115900
      8 C19         4.0610   -0.0020    0.0400 ca        1 XI2      0.046100
      9 O18         5.4550    0.0440    0.0750 os        1 XI2     -0.324400
     10 C3          6.0480    1.2870   -0.1440 ca        1 XI2      0.870300
     11 N2          5.2450    2.3930   -0.3910 nb        1 XI2     -0.754000
     12 N4          7.4120    1.2020   -0.0830 nb        1 XI2     -0.695000
     13 C6          8.0070    2.4140   -0.3020 ca        1 XI2      0.476800
     14 N7          9.3640    2.7700   -0.2720 na        1 XI2     -0.098800
     15 N8          9.5450    4.0690   -0.5850 nc        1 XI2     -0.575100
     16 C9          8.3180    4.6550   -0.7470 cd        1 XI2      0.590800
     17 C5          7.2710    3.6440   -0.5670 ca        1 XI2     -0.488500
     18 C1          5.8730    3.5550   -0.6030 ca        1 XI2      0.542200
     19 N10         8.0430    5.9730   -1.1120 nu        1 XI2     -0.784200
     20 C11         9.1370    6.9330   -1.1790 c3        1 XI2      0.231500
     21 C13         9.7030    7.3770    0.1670 c3        1 XI2     -0.123100
     22 C12         8.6670    8.1750   -1.9560 c3        1 XI2     -0.323600
     23 S14         7.6850    7.8130   -3.3190 s6        1 XI2      1.355000
     24 O15         8.3100    6.8930   -4.1610 o         1 XI2     -0.647300
     25 O16         6.3720    7.5770   -2.8920 o         1 XI2     -0.647300
     26 C17         7.7450    9.3420   -4.0480 c3        1 XI2     -0.372300
     27 H21         1.4610   -0.5950    2.1750 ha        1 XI2      0.158000
     28 H20         3.9480   -0.2340    2.1880 ha        1 XI2      0.161000
     29 H23         1.4180   -0.1370   -2.1460 ha        1 XI2      0.170000
     30 HN7        10.1260    2.1380   -0.3860 hn        1 XI2      0.332700
     31 H1          5.2320    4.4330   -0.8110 h4        1 XI2      0.046100
     32 HN10        7.2250    6.3250   -0.6510 hn        1 XI2      0.414800
     33 H11         9.9690    6.4460   -1.7750 h1        1 XI2      0.097700
     34 H13         8.9150    7.8520    0.7990 hc        1 XI2      0.049033
     35 H13A       10.1290    6.5050    0.7200 hc        1 XI2      0.049033
     36 H13B       10.5170    8.1200   -0.0040 hc        1 XI2      0.049033
     37 H12         9.5940    8.7350   -2.2440 h1        1 XI2      0.111700
     38 H12A        8.1120    8.8470   -1.2490 h1        1 XI2      0.111700
     39 H17         7.5270   10.1840   -3.3480 h1        1 XI2      0.114700
     40 H17A        6.9880    9.4240   -4.8700 h1        1 XI2      0.114700
     41 H17B        8.7350    9.5610   -4.5190 h1        1 XI2      0.114700
@<TRIPOS>BOND
     1    1    2 1   
     2    2    3 ar  
     3    2    5 ar  
     4    3    4 ar  
     5    3   27 1   
     6    4    8 ar  
     7    4   28 1   
     8    5    6 ar  
     9    5   29 1   
    10    6    7 1   
    11    6    8 ar  
    12    8    9 1   
    13    9   10 1   
    14   10   11 ar  
    15   10   12 ar  
    16   11   18 ar  
    17   12   13 ar  
    18   13   14 1   
    19   13   17 ar  
    20   14   15 1   
    21   14   30 1   
    22   15   16 2   
    23   16   17 1   
    24   16   19 1   
    25   17   18 ar  
    26   18   31 1   
    27   19   20 1   
    28   19   32 1   
    29   20   21 1   
    30   20   22 1   
    31   20   33 1   
    32   21   34 1   
    33   21   35 1   
    34   21   36 1   
    35   22   23 1   
    36   22   37 1   
    37   22   38 1   
    38   23   24 2   
    39   23   25 2   
    40   23   26 1   
    41   26   39 1   
    42   26   40 1   
    43   26   41 1   
@<TRIPOS>SUBSTRUCTURE
     1 XI2         1 TEMP              0 ****  ****    0 ROOT
