@<TRIPOS>MOLECULE
XI2
   41    43     1     0     0
SMALL
bcc


@<TRIPOS>ATOM
      1 F26        -7.1530   -2.3270   -0.7740 f         1 XI2     -0.131900
      2 C22        -6.2030   -1.4050   -0.4890 ca        1 XI2      0.156900
      3 C21        -6.0900   -0.2520   -1.2900 ca        1 XI2     -0.177000
      4 C20        -5.1120    0.6920   -1.0020 ca        1 XI2     -0.072000
      5 C23        -5.3440   -1.6150    0.6020 ca        1 XI2     -0.204000
      6 C24        -4.3610   -0.6550    0.8960 ca        1 XI2      0.171900
      7 F25        -3.5300   -0.8440    1.9420 f         1 XI2     -0.115900
      8 C19        -4.2580    0.5000    0.0890 ca        1 XI2      0.046100
      9 O18        -3.3940    1.5400    0.4340 os        1 XI2     -0.324400
     10 C3         -2.0360    1.3350    0.1900 ca        1 XI2      0.870300
     11 N2         -1.6150    0.1320   -0.3610 nb        1 XI2     -0.754000
     12 N4         -1.2960    2.4220    0.5670 nb        1 XI2     -0.695000
     13 C6          0.0390    2.2320    0.3390 ca        1 XI2      0.476800
     14 N7          1.1190    3.1080    0.5280 na        1 XI2     -0.098800
     15 N8          2.2940    2.5230    0.2190 nc        1 XI2     -0.575100
     16 C9          2.0420    1.2710   -0.2760 cd        1 XI2      0.590800
     17 C5          0.5990    1.0160   -0.2390 ca        1 XI2     -0.488500
     18 C1         -0.3000   -0.0080   -0.5630 ca        1 XI2      0.542200
     19 N10         2.9710    0.3110   -0.6800 nh        1 XI2     -0.784200
     20 C11         4.3770    0.6800   -0.7730 c3        1 XI2      0.231500
     21 C13         4.7400    1.5890   -1.9430 c3        1 XI2     -0.123100
     22 C12         5.2260   -0.6000   -0.8550 c3        1 XI2     -0.323600
     23 S14         4.6800   -1.8650    0.1720 s6        1 XI2      1.355000
     24 O15         4.5490   -1.4250    1.4900 o         1 XI2     -0.647300
     25 O16         3.6100   -2.5290   -0.4430 o         1 XI2     -0.647300
     26 C17         6.0560   -2.8490    0.0640 c3        1 XI2     -0.372300
     27 H21        -6.7740   -0.1100   -2.1400 ha        1 XI2      0.158000
     28 H20        -5.0080    1.6000   -1.6170 ha        1 XI2      0.161000
     29 H23        -5.4360   -2.5190    1.2200 ha        1 XI2      0.170000
     30 HN7         1.1200    3.8930    1.1410 hn        1 XI2      0.332700
     31 H1          0.0350   -0.9720   -0.9920 h4        1 XI2      0.046100
     32 HN10        2.6400   -0.2200   -1.4640 hn        1 XI2      0.414800
     33 H11         4.6450    1.2120    0.1910 h1        1 XI2      0.097700
     34 H13         4.4820    1.1140   -2.9200 hc        1 XI2      0.049033
     35 H13A        4.2000    2.5640   -1.8640 hc        1 XI2      0.049033
     36 H13B        5.8380    1.7900   -1.9250 hc        1 XI2      0.049033
     37 H12         5.2410   -0.9500   -1.9210 h1        1 XI2      0.111700
     38 H12A        6.2790   -0.2940   -0.6200 h1        1 XI2      0.111700
     39 H17         6.9280   -2.4420    0.6320 h1        1 XI2      0.114700
     40 H17A        5.8560   -3.8650    0.4930 h1        1 XI2      0.114700
     41 H17B        6.4040   -3.0230   -0.9820 h1        1 XI2      0.114700
@<TRIPOS>BOND
     1    1    2 1   
     2    2    3 ar  
     3    2    5 ar  
     4    3    4 ar  
     5    3   27 1   
     6    4    8 ar  
     7    4   28 1   
     8    5    6 ar  
     9    5   29 1   
    10    6    7 1   
    11    6    8 ar  
    12    8    9 1   
    13    9   10 1   
    14   10   11 ar  
    15   10   12 ar  
    16   11   18 ar  
    17   12   13 ar  
    18   13   14 1   
    19   13   17 ar  
    20   14   15 1   
    21   14   30 1   
    22   15   16 2   
    23   16   17 1   
    24   16   19 1   
    25   17   18 ar  
    26   18   31 1   
    27   19   20 1   
    28   19   32 1   
    29   20   21 1   
    30   20   22 1   
    31   20   33 1   
    32   21   34 1   
    33   21   35 1   
    34   21   36 1   
    35   22   23 1   
    36   22   37 1   
    37   22   38 1   
    38   23   24 2   
    39   23   25 2   
    40   23   26 1   
    41   26   39 1   
    42   26   40 1   
    43   26   41 1   
@<TRIPOS>SUBSTRUCTURE
     1 XI2         1 TEMP              0 ****  ****    0 ROOT
