@<TRIPOS>MOLECULE
XI2
   41    43     1     0     0
SMALL
bcc


@<TRIPOS>ATOM
      1 F26        -0.0340   -0.5780    0.0280 f         1 XI2     -0.131900
      2 C22         1.3060   -0.3880    0.0270 ca        1 XI2      0.156900
      3 C21         2.0150   -0.4220    1.2440 ca        1 XI2     -0.177000
      4 C20         3.3900   -0.2220    1.2450 ca        1 XI2     -0.072000
      5 C23         1.9680   -0.1580   -1.1900 ca        1 XI2     -0.204000
      6 C24         3.3600    0.0360   -1.1870 ca        1 XI2      0.171900
      7 F25         4.0100    0.2570   -2.3490 f         1 XI2     -0.115900
      8 C19         4.0620   -0.0040    0.0380 ca        1 XI2      0.046100
      9 O18         5.4570    0.0410    0.0660 os        1 XI2     -0.324400
     10 C3          6.0500    1.2840   -0.1520 ca        1 XI2      0.870300
     11 N2          5.2460    2.3920   -0.3910 nb        1 XI2     -0.754000
     12 N4          7.4140    1.1990   -0.0990 nb        1 XI2     -0.695000
     13 C6          8.0090    2.4110   -0.3170 ca        1 XI2      0.476800
     14 N7          9.3660    2.7660   -0.2920 na        1 XI2     -0.098800
     15 N8          9.5470    4.0650   -0.6010 nc        1 XI2     -0.575100
     16 C9          8.3190    4.6520   -0.7540 cd        1 XI2      0.590800
     17 C5          7.2720    3.6420   -0.5730 ca        1 XI2     -0.488500
     18 C1          5.8740    3.5540   -0.6020 ca        1 XI2      0.542200
     19 N10         8.0440    5.9720   -1.1140 nh        1 XI2     -0.784200
     20 C11         9.1380    6.9320   -1.1820 c3        1 XI2      0.231500
     21 C13         9.7110    7.3700    0.1620 c3        1 XI2     -0.123100
     22 C12         8.6650    8.1770   -1.9520 c3        1 XI2     -0.323600
     23 S14         7.6760    7.8210   -3.3120 s6        1 XI2      1.355000
     24 O15         8.2960    6.9030   -4.1600 o         1 XI2     -0.647300
     25 O16         6.3650    7.5840   -2.8790 o         1 XI2     -0.647300
     26 C17         7.7340    9.3530   -4.0360 c3        1 XI2     -0.372300
     27 H21         1.4740   -0.6030    2.1840 ha        1 XI2      0.158000
     28 H20         3.9610   -0.2440    2.1860 ha        1 XI2      0.161000
     29 H23         1.4080   -0.1290   -2.1350 ha        1 XI2      0.170000
     30 HN7        10.1270    2.1330   -0.4120 hn        1 XI2      0.332700
     31 H1          5.2330    4.4340   -0.8040 h4        1 XI2      0.046100
     32 HN10        7.2280    6.3230   -0.6460 hn        1 XI2      0.414800
     33 H11         9.9670    6.4470   -1.7840 h1        1 XI2      0.097700
     34 H13         8.9270    7.8440    0.8000 hc        1 XI2      0.049033
     35 H13A       10.1390    6.4960    0.7090 hc        1 XI2      0.049033
     36 H13B       10.5250    8.1140   -0.0110 hc        1 XI2      0.049033
     37 H12         8.1140    8.8470   -1.2400 h1        1 XI2      0.111700
     38 H12A        9.5910    8.7370   -2.2430 h1        1 XI2      0.111700
     39 H17         8.7210    9.5730   -4.5110 h1        1 XI2      0.114700
     40 H17A        6.9720    9.4380   -4.8530 h1        1 XI2      0.114700
     41 H17B        7.5200   10.1920   -3.3310 h1        1 XI2      0.114700
@<TRIPOS>BOND
     1    1    2 1   
     2    2    3 ar  
     3    2    5 ar  
     4    3    4 ar  
     5    3   27 1   
     6    4    8 ar  
     7    4   28 1   
     8    5    6 ar  
     9    5   29 1   
    10    6    7 1   
    11    6    8 ar  
    12    8    9 1   
    13    9   10 1   
    14   10   11 ar  
    15   10   12 ar  
    16   11   18 ar  
    17   12   13 ar  
    18   13   14 1   
    19   13   17 ar  
    20   14   15 1   
    21   14   30 1   
    22   15   16 2   
    23   16   17 1   
    24   16   19 1   
    25   17   18 ar  
    26   18   31 1   
    27   19   20 1   
    28   19   32 1   
    29   20   21 1   
    30   20   22 1   
    31   20   33 1   
    32   21   34 1   
    33   21   35 1   
    34   21   36 1   
    35   22   23 1   
    36   22   37 1   
    37   22   38 1   
    38   23   24 2   
    39   23   25 2   
    40   23   26 1   
    41   26   39 1   
    42   26   40 1   
    43   26   41 1   
@<TRIPOS>SUBSTRUCTURE
     1 XI2         1 TEMP              0 ****  ****    0 ROOT
