@<TRIPOS>MOLECULE
XI2
   42    44     1     0     0
SMALL
bcc


@<TRIPOS>ATOM
      1 F26         0.2800   -0.2860   -1.4650 f         1 XI2     -0.116900
      2 C22         1.5500   -0.0820   -1.0500 ca        1 XI2      0.176900
      3 C21         1.8450   -0.1060    0.3290 ca        1 XI2     -0.172000
      4 C20         3.1480    0.1090    0.7580 ca        1 XI2     -0.061000
      5 C23         2.5570    0.1540   -2.0030 ca        1 XI2     -0.201000
      6 C24         3.8750    0.3660   -1.5680 ca        1 XI2      0.173900
      7 F25         4.8560    0.5980   -2.4650 f         1 XI2     -0.119900
      8 C19         4.1570    0.3350   -0.1840 ca        1 XI2      0.012100
      9 O18         5.4780    0.3840    0.2780 os        1 XI2     -0.295400
     10 C3          6.1280    1.6010    0.2160 ca        1 XI2      0.897300
     11 N2          5.4650    2.7250   -0.2880 nb        1 XI2     -0.703000
     12 N4          7.4130    1.5090    0.6860 nb        1 XI2     -0.670000
     13 C6          8.0690    2.7010    0.6130 ca        1 XI2      0.486800
     14 N7          9.3930    3.0250    0.9870 na        1 XI2     -0.063800
     15 N8          9.6790    4.2960    0.7670 nc        1 XI2     -0.450100
     16 C9          8.5610    4.8950    0.2350 cd        1 XI2      0.367800
     17 C5          7.4860    3.9340    0.1040 ca        1 XI2     -0.471500
     18 C1          6.1440    3.8650   -0.3390 ca        1 XI2      0.533200
     19 N10         8.4640    6.2920   -0.1300 n4        1 XI2     -0.684000
     20 C11         9.1460    6.5970   -1.4570 c3        1 XI2      0.185500
     21 C13        10.6140    6.9410   -1.2500 c3        1 XI2     -0.132100
     22 C12         8.4350    7.7300   -2.1920 c3        1 XI2     -0.354600
     23 S14         6.8950    7.2870   -2.8700 s6        1 XI2      1.351000
     24 O15         7.1160    6.4450   -3.9500 o         1 XI2     -0.652800
     25 O16         6.1880    6.7610   -1.7640 o         1 XI2     -0.652800
     26 C17         6.3200    8.7800   -3.3120 c3        1 XI2     -0.408300
     27 H21         1.0390   -0.2970    1.0540 ha        1 XI2      0.170000
     28 H20         3.3990    0.0850    1.8300 ha        1 XI2      0.165000
     29 H23         2.3180    0.1680   -3.0770 ha        1 XI2      0.179000
     30 HN7        10.0780    2.4080    1.3810 hn        1 XI2      0.373700
     31 H1          5.6150    4.7520   -0.7490 h4        1 XI2      0.075100
     32 HN10        7.4500    6.5080   -0.1930 hn        1 XI2      0.477800
     33 H11         9.0690    5.6500   -2.0800 hx        1 XI2      0.129700
     34 H13        10.7300    7.9150   -0.7150 hc        1 XI2      0.082367
     35 H13A       11.1490    6.1430   -0.6790 hc        1 XI2      0.082367
     36 H13B       11.1010    7.0290   -2.2540 hc        1 XI2      0.082367
     37 H12         9.1330    8.0460   -3.0190 h1        1 XI2      0.138700
     38 H12A        8.3550    8.6320   -1.5300 h1        1 XI2      0.138700
     39 H17         5.8120    9.3360   -2.4800 h1        1 XI2      0.150700
     40 H17A        5.5440    8.7050   -4.1270 h1        1 XI2      0.150700
     41 H17B        7.0880    9.4850   -3.7240 h1        1 XI2      0.150700
     42 H102        8.8880    6.8740    0.6040 hn        1 XI2      0.477800
@<TRIPOS>BOND
     1    1    2 1   
     2    2    3 ar  
     3    2    5 ar  
     4    3    4 ar  
     5    3   27 1   
     6    4    8 ar  
     7    4   28 1   
     8    5    6 ar  
     9    5   29 1   
    10    6    7 1   
    11    6    8 ar  
    12    8    9 1   
    13    9   10 1   
    14   10   11 ar  
    15   10   12 ar  
    16   11   18 ar  
    17   12   13 ar  
    18   13   14 1   
    19   13   17 ar  
    20   14   15 1   
    21   14   30 1   
    22   15   16 2   
    23   16   17 1   
    24   16   19 1   
    25   17   18 ar  
    26   18   31 1   
    27   19   20 1   
    28   19   32 1   
    29   19   42 1   
    30   20   21 1   
    31   20   22 1   
    32   20   33 1   
    33   21   34 1   
    34   21   35 1   
    35   21   36 1   
    36   22   23 1   
    37   22   37 1   
    38   22   38 1   
    39   23   24 2   
    40   23   25 2   
    41   23   26 1   
    42   26   39 1   
    43   26   40 1   
    44   26   41 1   
@<TRIPOS>SUBSTRUCTURE
     1 XI2         1 TEMP              0 ****  ****    0 ROOT
