@<TRIPOS>MOLECULE
XI7
   21    21     1     0     0
SMALL
bcc


@<TRIPOS>ATOM
      1 O8          0.6390   -1.0920   -0.3780 o         1 XI7     -0.562100
      2 C9          1.5120   -0.2260   -0.4730 c         1 XI7      0.468100
      3 C10         2.9110   -0.3090    0.1660 c         1 XI7      0.857600
      4 O11         3.0080   -0.0810    1.3960 o         1 XI7     -0.806800
      5 O10         3.8640   -0.5630   -0.6230 o         1 XI7     -0.806800
      6 C8          1.2880    1.0560   -1.2480 c3        1 XI7     -0.296400
      7 C7          0.5390    0.8960   -2.5360 c         1 XI7      0.600700
      8 C1          1.2400    0.2560   -3.6750 ca        1 XI7     -0.172600
      9 C6          0.6350    0.2920   -4.9410 ca        1 XI7     -0.081500
     10 C5          1.2630   -0.2870   -6.0400 ca        1 XI7     -0.159000
     11 C4          2.5000   -0.9150   -5.8830 ca        1 XI7     -0.119000
     12 C3          3.1020   -0.9600   -4.6270 ca        1 XI7     -0.159000
     13 C2          2.4790   -0.3780   -3.5210 ca        1 XI7     -0.081500
     14 O14        -0.6150    1.3320   -2.6660 o         1 XI7     -0.572100
     15 H81C        2.2910    1.5130   -1.4670 hc        1 XI7      0.084700
     16 H82C        0.7230    1.7560   -0.5740 hc        1 XI7      0.084700
     17 H6         -0.3450    0.7820   -5.0500 ha        1 XI7      0.177500
     18 H2          2.9740   -0.4340   -2.5260 ha        1 XI7      0.177500
     19 H5          0.7840   -0.2540   -7.0280 ha        1 XI7      0.126000
     20 H4          2.9960   -1.3750   -6.7500 ha        1 XI7      0.115000
     21 H3          4.0730   -1.4590   -4.4950 ha        1 XI7      0.126000
@<TRIPOS>BOND
     1    1    2 2   
     2    2    3 1   
     3    2    6 1   
     4    3    4 1   
     5    3    5 1   
     6    6    7 1   
     7    6   15 1   
     8    6   16 1   
     9    7    8 1   
    10    7   14 2   
    11    8    9 ar  
    12    8   13 ar  
    13    9   10 ar  
    14    9   17 1   
    15   10   11 ar  
    16   10   19 1   
    17   11   12 ar  
    18   11   20 1   
    19   12   13 ar  
    20   12   21 1   
    21   13   18 1   
@<TRIPOS>SUBSTRUCTURE
     1 XI7         1 TEMP              0 ****  ****    0 ROOT
