@<TRIPOS>MOLECULE
XI7
   21    21     1     0     0
SMALL
bcc


@<TRIPOS>ATOM
      1 O8         -0.4060   -0.6090   -0.9630 o         1 XI7     -0.562100
      2 C9          0.6640   -0.0500   -0.7170 c         1 XI7      0.468100
      3 C10         0.8040    1.3510   -0.0930 c         1 XI7      0.857600
      4 O11         0.6150    1.4650    1.1430 o         1 XI7     -0.806800
      5 O10         1.1450    2.2760   -0.8830 o         1 XI7     -0.806800
      6 C8          1.9980   -0.7080   -1.0030 c3        1 XI7     -0.296400
      7 C7          2.0660   -1.4660   -2.2940 c         1 XI7      0.600700
      8 C1          2.1070   -0.6900   -3.5570 ca        1 XI7     -0.172600
      9 C6          1.8760    0.6900   -3.5860 ca        1 XI7     -0.081500
     10 C5          1.9330    1.3770   -4.8010 ca        1 XI7     -0.159000
     11 C4          2.2190    0.7000   -5.9840 ca        1 XI7     -0.119000
     12 C3          2.4460   -0.6770   -5.9600 ca        1 XI7     -0.159000
     13 C2          2.3880   -1.3690   -4.7530 ca        1 XI7     -0.081500
     14 O14         2.1390   -2.7050   -2.3080 o         1 XI7     -0.572100
     15 H81C        2.2110   -1.4080   -0.1500 hc        1 XI7      0.084700
     16 H82C        2.7890    0.0900   -1.0100 hc        1 XI7      0.084700
     17 H6          1.6370    1.2510   -2.6550 ha        1 XI7      0.177500
     18 H2          2.5560   -2.4570   -4.7220 ha        1 XI7      0.177500
     19 H5          1.7460    2.4610   -4.8130 ha        1 XI7      0.126000
     20 H4          2.2630    1.2470   -6.9360 ha        1 XI7      0.115000
     21 H3          2.6670   -1.2160   -6.8910 ha        1 XI7      0.126000
@<TRIPOS>BOND
     1    1    2 2   
     2    2    3 1   
     3    2    6 1   
     4    3    4 1   
     5    3    5 1   
     6    6    7 1   
     7    6   15 1   
     8    6   16 1   
     9    7    8 1   
    10    7   14 2   
    11    8    9 ar  
    12    8   13 ar  
    13    9   10 ar  
    14    9   17 1   
    15   10   11 ar  
    16   10   19 1   
    17   11   12 ar  
    18   11   20 1   
    19   12   13 ar  
    20   12   21 1   
    21   13   18 1   
@<TRIPOS>SUBSTRUCTURE
     1 XI7         1 TEMP              0 ****  ****    0 ROOT
