@<TRIPOS>MOLECULE
XI7
   21    21     1     0     0
SMALL
bcc


@<TRIPOS>ATOM
      1 O8          1.7170   -1.0470    1.0020 o         1 XI7     -0.562100
      2 C9          1.6310   -0.0490    0.2840 c         1 XI7      0.468100
      3 C10         2.2180    1.3350    0.6220 c         1 XI7      0.857600
      4 O11         1.3860    2.2130    0.9860 o         1 XI7     -0.806800
      5 O10         3.4530    1.5000    0.4750 o         1 XI7     -0.806800
      6 C8          0.9240   -0.0820   -1.0560 c3        1 XI7     -0.296400
      7 C7         -0.3440   -0.8810   -1.0830 c         1 XI7      0.600700
      8 C1         -1.5340   -0.3230   -0.3980 ca        1 XI7     -0.172600
      9 C6         -2.7760   -0.9470   -0.5950 ca        1 XI7     -0.081500
     10 C5         -3.9210   -0.4500    0.0210 ca        1 XI7     -0.159000
     11 C4         -3.8360    0.6730    0.8460 ca        1 XI7     -0.119000
     12 C3         -2.6050    1.2920    1.0510 ca        1 XI7     -0.159000
     13 C2         -1.4520    0.8000    0.4330 ca        1 XI7     -0.081500
     14 O14        -0.4140   -1.9530   -1.7040 o         1 XI7     -0.572100
     15 H81C        0.6910    0.9760   -1.3560 hc        1 XI7      0.084700
     16 H82C        1.6480   -0.5090   -1.8010 hc        1 XI7      0.084700
     17 H6         -2.8290   -1.8380   -1.2410 ha        1 XI7      0.177500
     18 H2         -0.4780    1.3060    0.6190 ha        1 XI7      0.177500
     19 H5         -4.8890   -0.9430   -0.1400 ha        1 XI7      0.126000
     20 H4         -4.7390    1.0650    1.3340 ha        1 XI7      0.115000
     21 H3         -2.5290    2.1730    1.7050 ha        1 XI7      0.126000
@<TRIPOS>BOND
     1    1    2 2   
     2    2    3 1   
     3    2    6 1   
     4    3    4 1   
     5    3    5 1   
     6    6    7 1   
     7    6   15 1   
     8    6   16 1   
     9    7    8 1   
    10    7   14 2   
    11    8    9 ar  
    12    8   13 ar  
    13    9   10 ar  
    14    9   17 1   
    15   10   11 ar  
    16   10   19 1   
    17   11   12 ar  
    18   11   20 1   
    19   12   13 ar  
    20   12   21 1   
    21   13   18 1   
@<TRIPOS>SUBSTRUCTURE
     1 XI7         1 TEMP              0 ****  ****    0 ROOT
