@<TRIPOS>MOLECULE
XIF
   19    19     1     0     0
SMALL
bcc


@<TRIPOS>ATOM
      1 N1          1.9780   -0.6040   -0.2360 n3        1 XIF     -0.822200
      2 C2          0.8520   -1.4490    0.1040 c3        1 XIF      0.159800
      3 C3         -0.4930   -0.8270   -0.3140 c3        1 XIF      0.151100
      4 O3         -1.5000   -1.6760    0.2090 oh        1 XIF     -0.602800
      5 C4         -0.6240    0.5910    0.2690 c3        1 XIF      0.100100
      6 O4         -1.8380    1.1140   -0.2540 oh        1 XIF     -0.608800
      7 C5          0.5740    1.4400   -0.1310 c3        1 XIF     -0.111400
      8 C6          1.8760    0.7510    0.2710 c3        1 XIF      0.166800
      9 HN1         2.8290   -1.0270    0.0840 hn        1 XIF      0.368800
     10 H21         0.9750   -2.4240   -0.4440 h1        1 XIF      0.046200
     11 H22         0.7950   -1.6800    1.2080 h1        1 XIF      0.046200
     12 H3         -0.5820   -0.7790   -1.4350 h1        1 XIF      0.061700
     13 HO3        -2.3440   -1.2530    0.0020 ho        1 XIF      0.419000
     14 H4         -0.7040    0.5290    1.3910 h1        1 XIF      0.045700
     15 HO4        -1.8980    2.0310    0.0360 ho        1 XIF      0.406000
     16 H51         0.5520    1.6130   -1.2380 hc        1 XIF      0.055700
     17 H52         0.5220    2.4380    0.3750 hc        1 XIF      0.055700
     18 H61         1.9600    0.7900    1.3980 h1        1 XIF      0.030700
     19 H62         2.7420    1.3320   -0.1540 h1        1 XIF      0.030700
@<TRIPOS>BOND
     1    1    2 1   
     2    1    8 1   
     3    1    9 1   
     4    2    3 1   
     5    2   10 1   
     6    2   11 1   
     7    3    4 1   
     8    3    5 1   
     9    3   12 1   
    10    4   13 1   
    11    5    6 1   
    12    5    7 1   
    13    5   14 1   
    14    6   15 1   
    15    7    8 1   
    16    7   16 1   
    17    7   17 1   
    18    8   18 1   
    19    8   19 1   
@<TRIPOS>SUBSTRUCTURE
     1 XIF         1 TEMP              0 ****  ****    0 ROOT
