@<TRIPOS>MOLECULE
XIF
   19    19     1     0     0
SMALL
bcc


@<TRIPOS>ATOM
      1 N1         -1.0710   -0.6100   -1.3560 n3        1 XIF     -0.822200
      2 C2          0.4010   -0.6100   -1.3560 c3        1 XIF      0.159800
      3 C3          0.9820   -0.6100    0.0480 c3        1 XIF      0.151100
      4 O3          2.4030   -0.4290   -0.0380 oh        1 XIF     -0.602800
      5 C4          0.4100    0.4720    0.8980 c3        1 XIF      0.100100
      6 O4          0.8750    0.2920    2.2630 oh        1 XIF     -0.608800
      7 C5         -1.0730    0.4660    0.8920 c3        1 XIF     -0.111400
      8 C6         -1.6450    0.4610   -0.5150 c3        1 XIF      0.166800
      9 HN1        -1.3750   -0.5210   -2.2110 hn        1 XIF      0.368800
     10 H21         0.7170    0.1840   -1.8280 h1        1 XIF      0.046200
     11 H22         0.7170   -1.4040   -1.8280 h1        1 XIF      0.046200
     12 H3          0.7980   -1.4720    0.4670 h1        1 XIF      0.061700
     13 HO3         2.8090   -1.2080    0.0940 ho        1 XIF      0.419000
     14 H4          0.7250    1.3350    0.5670 h1        1 XIF      0.045700
     15 HO4         1.1800    1.0650    2.5760 ho        1 XIF      0.406000
     16 H51        -1.3940    1.2590    1.3610 hc        1 XIF      0.055700
     17 H52        -1.3870   -0.3290    1.3630 hc        1 XIF      0.055700
     18 H61        -2.6120    0.3360   -0.4620 h1        1 XIF      0.030700
     19 H62        -1.4610    1.3230   -0.9340 h1        1 XIF      0.030700
@<TRIPOS>BOND
     1    1    2 1   
     2    1    8 1   
     3    1    9 1   
     4    2    3 1   
     5    2   10 1   
     6    2   11 1   
     7    3    4 1   
     8    3    5 1   
     9    3   12 1   
    10    4   13 1   
    11    5    6 1   
    12    5    7 1   
    13    5   14 1   
    14    6   15 1   
    15    7    8 1   
    16    7   16 1   
    17    7   17 1   
    18    8   18 1   
    19    8   19 1   
@<TRIPOS>SUBSTRUCTURE
     1 XIF         1 TEMP              0 ****  ****    0 ROOT
