@<TRIPOS>MOLECULE
XIF
   19    19     1     0     0
SMALL
bcc


@<TRIPOS>ATOM
      1 N1          0.0410    0.0060   -0.0240 n3        1 XIF     -0.818200
      2 C2          1.4830   -0.0440    0.0880 c3        1 XIF      0.132800
      3 C3          1.9640    0.0720    1.5460 c3        1 XIF      0.100100
      4 O3          3.3750    0.2300    1.5850 oh        1 XIF     -0.609800
      5 C4          1.3740    1.3310    2.2050 c3        1 XIF      0.151100
      6 O4          1.6920    1.3660    3.5870 oh        1 XIF     -0.599800
      7 C5         -0.1440    1.3090    2.0870 c3        1 XIF     -0.078400
      8 C6         -0.5620    1.1540    0.6270 c3        1 XIF      0.160800
      9 HN1        -0.2260   -0.0190   -0.9910 hn        1 XIF      0.366800
     10 H21         1.9980    0.7680   -0.5060 h1        1 XIF      0.035200
     11 H22         1.8210   -1.0350   -0.3270 h1        1 XIF      0.035200
     12 H3          1.6670   -0.8390    2.1350 h1        1 XIF      0.061700
     13 HO3         3.7570   -0.5680    1.2010 ho        1 XIF      0.407000
     14 H4          1.8000    2.2430    1.7010 h1        1 XIF      0.044700
     15 HO4         2.6540    1.2920    3.6470 ho        1 XIF      0.416000
     16 H51        -0.5630    2.2650    2.4910 hc        1 XIF      0.064700
     17 H52        -0.5520    0.4680    2.7040 hc        1 XIF      0.064700
     18 H61        -1.6790    1.0100    0.5840 h1        1 XIF      0.032200
     19 H62        -0.3220    2.1190    0.0880 h1        1 XIF      0.032200
@<TRIPOS>BOND
     1    1    2 1   
     2    1    8 1   
     3    1    9 1   
     4    2    3 1   
     5    2   10 1   
     6    2   11 1   
     7    3    4 1   
     8    3    5 1   
     9    3   12 1   
    10    4   13 1   
    11    5    6 1   
    12    5    7 1   
    13    5   14 1   
    14    6   15 1   
    15    7    8 1   
    16    7   16 1   
    17    7   17 1   
    18    8   18 1   
    19    8   19 1   
@<TRIPOS>SUBSTRUCTURE
     1 XIF         1 TEMP              0 ****  ****    0 ROOT
