@<TRIPOS>MOLECULE
XIF
   19    19     1     0     0
SMALL
bcc


@<TRIPOS>ATOM
      1 N1         -0.0280    0.0610   -0.0620 n7        1 XIF     -0.822200
      2 C2          1.4140   -0.0790   -0.0590 c3        1 XIF      0.159800
      3 C3          1.9980   -0.0770    1.3650 c3        1 XIF      0.151100
      4 O3          3.4080   -0.0660    1.2130 oh        1 XIF     -0.602800
      5 C4          1.5270    1.1740    2.1280 c3        1 XIF      0.100100
      6 O4          2.0290    1.0330    3.4500 oh        1 XIF     -0.608800
      7 C5          0.0080    1.2650    2.1080 c3        1 XIF     -0.111400
      8 C6         -0.5120    1.2130    0.6730 c3        1 XIF      0.166800
      9 HN1        -0.3640    0.0910   -1.0070 hn        1 XIF      0.368800
     10 H21         1.6650   -1.0640   -0.5420 h1        1 XIF      0.046200
     11 H22         1.9340    0.7350   -0.6460 h1        1 XIF      0.046200
     12 H3          1.6850   -0.9980    1.9290 h1        1 XIF      0.061700
     13 HO3         3.7750   -0.0000    2.1040 ho        1 XIF      0.419000
     14 H4          1.9810    2.0920    1.6590 h1        1 XIF      0.045700
     15 HO4         1.6770    1.7680    3.9650 ho        1 XIF      0.406000
     16 H51        -0.4200    0.4200    2.7070 hc        1 XIF      0.055700
     17 H52        -0.3240    2.2250    2.5790 hc        1 XIF      0.055700
     18 H61        -1.6370    1.1460    0.6960 h1        1 XIF      0.030700
     19 H62        -0.2390    2.1870    0.1660 h1        1 XIF      0.030700
@<TRIPOS>BOND
     1    1    2 1   
     2    1    8 1   
     3    1    9 1   
     4    2    3 1   
     5    2   10 1   
     6    2   11 1   
     7    3    4 1   
     8    3    5 1   
     9    3   12 1   
    10    4   13 1   
    11    5    6 1   
    12    5    7 1   
    13    5   14 1   
    14    6   15 1   
    15    7    8 1   
    16    7   16 1   
    17    7   17 1   
    18    8   18 1   
    19    8   19 1   
@<TRIPOS>SUBSTRUCTURE
     1 XIF         1 TEMP              0 ****  ****    0 ROOT
