@<TRIPOS>MOLECULE
XIF
   19    19     1     0     0
SMALL
bcc


@<TRIPOS>ATOM
      1 N1         -0.0430    0.0790   -0.0580 n3        1 XIF     -0.822200
      2 C2          1.3960   -0.0810   -0.0630 c3        1 XIF      0.159800
      3 C3          1.9880   -0.0900    1.3580 c3        1 XIF      0.151100
      4 O3          3.3970   -0.0980    1.1980 oh        1 XIF     -0.602800
      5 C4          1.5380    1.1650    2.1260 c3        1 XIF      0.100100
      6 O4          2.0450    1.0140    3.4460 oh        1 XIF     -0.608800
      7 C5          0.0210    1.2770    2.1150 c3        1 XIF     -0.111400
      8 C6         -0.5080    1.2360    0.6820 c3        1 XIF      0.166800
      9 HN1        -0.3840    0.1160   -1.0010 hn        1 XIF      0.368800
     10 H21         1.6310   -1.0680   -0.5500 h1        1 XIF      0.046200
     11 H22         1.9250    0.7270   -0.6500 h1        1 XIF      0.046200
     12 H3          1.6640   -1.0080    1.9220 h1        1 XIF      0.061700
     13 HO3         3.7690   -0.0410    2.0880 ho        1 XIF      0.419000
     14 H4          2.0030    2.0780    1.6570 h1        1 XIF      0.045700
     15 HO4         1.7060    1.7520    3.9640 ho        1 XIF      0.406000
     16 H51        -0.4160    0.4370    2.7140 hc        1 XIF      0.055700
     17 H52        -0.2960    2.2400    2.5900 hc        1 XIF      0.055700
     18 H61        -0.2240    2.2070    0.1760 h1        1 XIF      0.030700
     19 H62        -1.6330    1.1850    0.7110 h1        1 XIF      0.030700
@<TRIPOS>BOND
     1    1    2 1   
     2    1    8 1   
     3    1    9 1   
     4    2    3 1   
     5    2   10 1   
     6    2   11 1   
     7    3    4 1   
     8    3    5 1   
     9    3   12 1   
    10    4   13 1   
    11    5    6 1   
    12    5    7 1   
    13    5   14 1   
    14    6   15 1   
    15    7    8 1   
    16    7   16 1   
    17    7   17 1   
    18    8   18 1   
    19    8   19 1   
@<TRIPOS>SUBSTRUCTURE
     1 XIF         1 TEMP              0 ****  ****    0 ROOT
