@<TRIPOS>MOLECULE
XIG
   70    74     1     0     0
SMALL
bcc


@<TRIPOS>ATOM
      1 C1         -0.8270   -0.8400    0.9760 c3        1 XIG      0.118700
      2 O2          0.5620   -0.6160    0.7860 os        1 XIG     -0.348900
      3 C3          1.3170   -0.5140    1.9490 ca        1 XIG      0.094100
      4 C4          0.7920   -0.6180    3.2420 ca        1 XIG     -0.190000
      5 C5          1.6410   -0.5010    4.3400 ca        1 XIG     -0.089000
      6 C6          3.0160   -0.2770    4.1540 cp        1 XIG     -0.054000
      7 C7          3.5240   -0.1760    2.8520 ca        1 XIG     -0.089000
      8 C8          2.6880   -0.2930    1.7460 ca        1 XIG     -0.190000
      9 C9          3.8890   -0.1490    5.3190 cp        1 XIG     -0.050000
     10 C10         4.9510    0.7670    5.3300 ca        1 XIG     -0.116000
     11 C11         5.7070    0.9550    6.4840 ca        1 XIG     -0.132500
     12 C12         5.4270    0.2150    7.6380 ca        1 XIG     -0.122300
     13 C13         6.1800    0.4340    8.9190 c3        1 XIG      0.142300
     14 N14         6.1840    1.7900    9.4350 n         1 XIG     -0.497800
     15 C15         7.4280    2.5280    9.3160 c3        1 XIG      0.172000
     16 C16         7.2110    4.0100    8.9610 c3        1 XIG     -0.102400
     17 C17         8.5490    4.6650    8.7080 c3        1 XIG     -0.071400
     18 C18         9.3710    4.6940    9.9770 c3        1 XIG     -0.031100
     19 C19         9.3360    3.4130   10.7350 ca        1 XIG     -0.070300
     20 C20        10.2730    3.2430   11.7640 ca        1 XIG     -0.146000
     21 C21        10.2740    2.0920   12.5460 ca        1 XIG     -0.144000
     22 C22         9.3300    1.0960   12.3040 ca        1 XIG     -0.137000
     23 C23         8.3990    1.2520   11.2790 ca        1 XIG     -0.109000
     24 C24         8.3890    2.4050   10.4830 ca        1 XIG     -0.064300
     25 C25         5.0930    2.2980   10.1620 c         1 XIG      0.690700
     26 O26         5.2520    3.2560   10.9420 o         1 XIG     -0.603100
     27 C27         3.7640    1.6710    9.9100 ca        1 XIG     -0.144600
     28 C28         3.4660    0.4240   10.4520 ca        1 XIG     -0.116000
     29 C29         2.3410   -0.3110   10.0370 ca        1 XIG     -0.071600
     30 C30         2.3310   -1.7470   10.5590 c         1 XIG      0.926200
     31 O31         1.5290   -2.0870   11.4650 o         1 XIG     -0.831800
     32 O32         3.2470   -2.4980   10.1010 o         1 XIG     -0.831800
     33 C33         1.4470    0.2700    9.1320 ca        1 XIG     -0.073600
     34 C34         1.6620    1.5990    8.7260 ca        1 XIG     -0.086000
     35 C35         2.8260    2.2900    9.0660 ca        1 XIG     -0.181600
     36 C36         3.0710    3.6140    8.4720 c         1 XIG      0.665700
     37 O37         2.4400    4.6650    8.6110 o         1 XIG     -0.530000
     38 O38         4.1300    3.7520    7.6060 oh        1 XIG     -0.625100
     39 C39         0.2960   -0.4300    8.4150 c         1 XIG      0.934200
     40 O40        -0.8830   -0.2570    8.8190 o         1 XIG     -0.839800
     41 O41         0.5890   -1.0690    7.3570 o         1 XIG     -0.839800
     42 C42         4.4130   -0.7480    7.6120 ca        1 XIG     -0.132500
     43 C43         3.6340   -0.9130    6.4670 ca        1 XIG     -0.116000
     44 H11         6.5120    1.7040    6.4960 ha        1 XIG      0.164500
     45 H4         -0.2790   -0.7920    3.4150 ha        1 XIG      0.132000
     46 H5          1.2230   -0.5870    5.3720 ha        1 XIG      0.175500
     47 H7          4.6010   -0.0080    2.6990 ha        1 XIG      0.175500
     48 H8          3.0830   -0.2170    0.7260 ha        1 XIG      0.132000
     49 H10         5.1650    1.3680    4.4350 ha        1 XIG      0.154500
     50 H1         -1.0040   -1.8050    1.5120 h1        1 XIG      0.035367
     51 H1A        -1.2920    0.0060    1.5400 h1        1 XIG      0.035367
     52 H1B        -1.2340   -0.8880   -0.0650 h1        1 XIG      0.035367
     53 H15         7.9850    2.0710    8.4330 h1        1 XIG      0.046700
     54 H20        11.0100    4.0360   11.9560 ha        1 XIG      0.113000
     55 H21        11.0110    1.9730   13.3520 ha        1 XIG      0.113000
     56 H22         9.3140    0.1870   12.9220 ha        1 XIG      0.125000
     57 H23         7.6600    0.4520   11.1080 ha        1 XIG      0.150000
     58 H28         4.1520   -0.0390   11.1790 ha        1 XIG      0.130000
     59 H13         5.7430   -0.2490    9.7090 h1        1 XIG      0.057700
     60 H13A        7.2500    0.1100    8.7540 h1        1 XIG      0.057700
     61 H34         0.9110    2.0840    8.0810 ha        1 XIG      0.138000
     62 H42         4.1630   -1.3520    8.5170 ha        1 XIG      0.164500
     63 H43         2.7650   -1.6010    6.5130 ha        1 XIG      0.154500
     64 H16         6.5590    4.0860    8.0500 hc        1 XIG      0.079700
     65 H16A        6.6810    4.5340    9.8000 hc        1 XIG      0.079700
     66 H17         9.1040    4.1110    7.9050 hc        1 XIG      0.032700
     67 H17A        8.3910    5.7130    8.3410 hc        1 XIG      0.032700
     68 H18        10.4350    4.9560    9.7300 hc        1 XIG      0.039200
     69 H18A        8.9780    5.5050   10.6510 hc        1 XIG      0.039200
     70 H141        4.5420    2.8840    7.4620 ho        1 XIG      0.440000
@<TRIPOS>BOND
     1    1    2 1   
     2    1   50 1   
     3    1   51 1   
     4    1   52 1   
     5    2    3 1   
     6    3    4 ar  
     7    3    8 ar  
     8    4    5 ar  
     9    4   45 1   
    10    5    6 ar  
    11    5   46 1   
    12    6    7 ar  
    13    6    9 1   
    14    7    8 ar  
    15    7   47 1   
    16    8   48 1   
    17    9   10 ar  
    18    9   43 ar  
    19   10   11 ar  
    20   10   49 1   
    21   11   12 ar  
    22   11   44 1   
    23   12   13 1   
    24   12   42 ar  
    25   13   14 1   
    26   13   59 1   
    27   13   60 1   
    28   14   15 1   
    29   14   25 1   
    30   15   16 1   
    31   15   24 1   
    32   15   53 1   
    33   16   17 1   
    34   16   64 1   
    35   16   65 1   
    36   17   18 1   
    37   17   66 1   
    38   17   67 1   
    39   18   19 1   
    40   18   68 1   
    41   18   69 1   
    42   19   20 ar  
    43   19   24 ar  
    44   20   21 ar  
    45   20   54 1   
    46   21   22 ar  
    47   21   55 1   
    48   22   23 ar  
    49   22   56 1   
    50   23   24 ar  
    51   23   57 1   
    52   25   26 2   
    53   25   27 1   
    54   27   28 ar  
    55   27   35 ar  
    56   28   29 ar  
    57   28   58 1   
    58   29   30 1   
    59   29   33 ar  
    60   30   31 1   
    61   30   32 1   
    62   33   34 ar  
    63   33   39 1   
    64   34   35 ar  
    65   34   61 1   
    66   35   36 1   
    67   36   37 2   
    68   36   38 1   
    69   38   70 1   
    70   39   40 1   
    71   39   41 1   
    72   42   43 ar  
    73   42   62 1   
    74   43   63 1   
@<TRIPOS>SUBSTRUCTURE
     1 XIG         1 TEMP              0 ****  ****    0 ROOT
