@<TRIPOS>MOLECULE
XIG
   70    74     1     0     0
SMALL
bcc


@<TRIPOS>ATOM
      1 C1         -0.7890   -0.8740    0.9560 c3        1 XIG      0.118700
      2 O2          0.5990   -0.6420    0.7710 os        1 XIG     -0.348900
      3 C3          1.3490   -0.5350    1.9370 ca        1 XIG      0.094100
      4 C4          0.8200   -0.6420    3.2280 ca        1 XIG     -0.190000
      5 C5          1.6630   -0.5190    4.3300 ca        1 XIG     -0.089000
      6 C6          3.0380   -0.2870    4.1480 cp        1 XIG     -0.054000
      7 C7          3.5510   -0.1840    2.8490 ca        1 XIG     -0.089000
      8 C8          2.7190   -0.3070    1.7390 ca        1 XIG     -0.190000
      9 C9          3.9050   -0.1540    5.3170 cp        1 XIG     -0.050000
     10 C10         4.9620    0.7680    5.3320 ca        1 XIG     -0.116000
     11 C11         5.7130    0.9610    6.4880 ca        1 XIG     -0.132500
     12 C12         5.4330    0.2200    7.6410 ca        1 XIG     -0.122300
     13 C13         6.1790    0.4430    8.9250 c3        1 XIG      0.142300
     14 N14         6.1740    1.7990    9.4410 n         1 XIG     -0.497800
     15 C15         7.4140    2.5440    9.3260 c3        1 XIG      0.172000
     16 C16         7.1900    4.0250    8.9710 c3        1 XIG     -0.102400
     17 C17         8.5250    4.6880    8.7220 c3        1 XIG     -0.071400
     18 C18         9.3440    4.7200    9.9940 c3        1 XIG     -0.031100
     19 C19         9.3120    3.4390   10.7520 ca        1 XIG     -0.070300
     20 C20        10.2470    3.2740   11.7840 ca        1 XIG     -0.146000
     21 C21        10.2520    2.1230   12.5650 ca        1 XIG     -0.144000
     22 C22         9.3140    1.1220   12.3200 ca        1 XIG     -0.137000
     23 C23         8.3860    1.2730   11.2930 ca        1 XIG     -0.109000
     24 C24         8.3720    2.4260   10.4970 ca        1 XIG     -0.064300
     25 C25         5.0770    2.3010   10.1630 c         1 XIG      0.690700
     26 O26         5.2280    3.2600   10.9440 o         1 XIG     -0.603100
     27 C27         3.7530    1.6670    9.9070 ca        1 XIG     -0.144600
     28 C28         3.4600    0.4190   10.4480 ca        1 XIG     -0.116000
     29 C29         2.3400   -0.3230   10.0290 ca        1 XIG     -0.071600
     30 C30         2.3360   -1.7590   10.5520 c         1 XIG      0.926200
     31 O31         1.5330   -2.1030   11.4540 o         1 XIG     -0.831800
     32 O32         3.2580   -2.5050   10.0970 o         1 XIG     -0.831800
     33 C33         1.4460    0.2530    9.1200 ca        1 XIG     -0.073600
     34 C34         1.6550    1.5830    8.7140 ca        1 XIG     -0.086000
     35 C35         2.8140    2.2810    9.0590 ca        1 XIG     -0.181600
     36 C36         3.0550    3.6060    8.4660 c         1 XIG      0.665700
     37 O37         2.4180    4.6540    8.6020 o         1 XIG     -0.530000
     38 O38         4.1160    3.7490    7.6030 oh        1 XIG     -0.625100
     39 C39         0.3020   -0.4540    8.3990 c         1 XIG      0.934200
     40 O40        -0.8790   -0.2870    8.7980 o         1 XIG     -0.839800
     41 O41         0.6030   -1.0910    7.3420 o         1 XIG     -0.839800
     42 C42         4.4230   -0.7490    7.6120 ca        1 XIG     -0.132500
     43 C43         3.6500   -0.9190    6.4640 ca        1 XIG     -0.116000
     44 H11         6.5140    1.7140    6.5030 ha        1 XIG      0.164500
     45 H4         -0.2510   -0.8220    3.3960 ha        1 XIG      0.132000
     46 H5          1.2420   -0.6070    5.3590 ha        1 XIG      0.175500
     47 H7          4.6260   -0.0100    2.7000 ha        1 XIG      0.175500
     48 H8          3.1180   -0.2290    0.7200 ha        1 XIG      0.132000
     49 H10         5.1760    1.3700    4.4360 ha        1 XIG      0.154500
     50 H1         -1.1920   -0.9260   -0.0870 h1        1 XIG      0.035367
     51 H1A        -1.2610   -0.0310    1.5170 h1        1 XIG      0.035367
     52 H1B        -0.9630   -1.8390    1.4910 h1        1 XIG      0.035367
     53 H15         7.9770    2.0900    8.4450 h1        1 XIG      0.046700
     54 H20        10.9790    4.0710   11.9780 ha        1 XIG      0.113000
     55 H21        10.9870    2.0080   13.3740 ha        1 XIG      0.113000
     56 H22         9.3000    0.2130   12.9390 ha        1 XIG      0.125000
     57 H23         7.6510    0.4690   11.1190 ha        1 XIG      0.150000
     58 H28         4.1460   -0.0410   11.1770 ha        1 XIG      0.130000
     59 H13         5.7430   -0.2420    9.7140 h1        1 XIG      0.057700
     60 H13A        7.2520    0.1250    8.7640 h1        1 XIG      0.057700
     61 H34         0.9050    2.0640    8.0670 ha        1 XIG      0.138000
     62 H42         4.1740   -1.3540    8.5160 ha        1 XIG      0.164500
     63 H43         2.7850   -1.6110    6.5060 ha        1 XIG      0.154500
     64 H16         6.5410    4.0980    8.0580 hc        1 XIG      0.079700
     65 H16A        6.6540    4.5460    9.8080 hc        1 XIG      0.079700
     66 H17         9.0850    4.1370    7.9210 hc        1 XIG      0.032700
     67 H17A        8.3630    5.7350    8.3550 hc        1 XIG      0.032700
     68 H18        10.4070    4.9880    9.7500 hc        1 XIG      0.039200
     69 H18A        8.9440    5.5290   10.6670 hc        1 XIG      0.039200
     70 H141        4.5330    2.8840    7.4610 ho        1 XIG      0.440000
@<TRIPOS>BOND
     1    1    2 1   
     2    1   50 1   
     3    1   51 1   
     4    1   52 1   
     5    2    3 1   
     6    3    4 ar  
     7    3    8 ar  
     8    4    5 ar  
     9    4   45 1   
    10    5    6 ar  
    11    5   46 1   
    12    6    7 ar  
    13    6    9 1   
    14    7    8 ar  
    15    7   47 1   
    16    8   48 1   
    17    9   10 ar  
    18    9   43 ar  
    19   10   11 ar  
    20   10   49 1   
    21   11   12 ar  
    22   11   44 1   
    23   12   13 1   
    24   12   42 ar  
    25   13   14 1   
    26   13   59 1   
    27   13   60 1   
    28   14   15 1   
    29   14   25 1   
    30   15   16 1   
    31   15   24 1   
    32   15   53 1   
    33   16   17 1   
    34   16   64 1   
    35   16   65 1   
    36   17   18 1   
    37   17   66 1   
    38   17   67 1   
    39   18   19 1   
    40   18   68 1   
    41   18   69 1   
    42   19   20 ar  
    43   19   24 ar  
    44   20   21 ar  
    45   20   54 1   
    46   21   22 ar  
    47   21   55 1   
    48   22   23 ar  
    49   22   56 1   
    50   23   24 ar  
    51   23   57 1   
    52   25   26 2   
    53   25   27 1   
    54   27   28 ar  
    55   27   35 ar  
    56   28   29 ar  
    57   28   58 1   
    58   29   30 1   
    59   29   33 ar  
    60   30   31 1   
    61   30   32 1   
    62   33   34 ar  
    63   33   39 1   
    64   34   35 ar  
    65   34   61 1   
    66   35   36 1   
    67   36   37 2   
    68   36   38 1   
    69   38   70 1   
    70   39   40 1   
    71   39   41 1   
    72   42   43 ar  
    73   42   62 1   
    74   43   63 1   
@<TRIPOS>SUBSTRUCTURE
     1 XIG         1 TEMP              0 ****  ****    0 ROOT
