@<TRIPOS>MOLECULE
XIG
   69    73     1     0     0
SMALL
bcc


@<TRIPOS>ATOM
      1 C1         -9.1080   -3.0440   -0.7010 c3        1 XIG      0.120700
      2 O2         -8.5010   -2.9060    0.5750 os        1 XIG     -0.344900
      3 C3         -7.1750   -2.4860    0.5610 ca        1 XIG      0.080100
      4 C4         -6.3520   -2.5270   -0.5690 ca        1 XIG     -0.177000
      5 C5         -5.0270   -2.1100   -0.4630 ca        1 XIG     -0.103500
      6 C6         -4.5080   -1.6510    0.7570 cp        1 XIG     -0.005000
      7 C7         -5.3540   -1.6160    1.8790 ca        1 XIG     -0.103500
      8 C8         -6.6790   -2.0270    1.7910 ca        1 XIG     -0.177000
      9 C9         -3.1170   -1.2210    0.8550 cp        1 XIG     -0.095000
     10 C10        -2.3710   -1.4790    2.0130 ca        1 XIG     -0.129500
     11 C11        -1.0380   -1.0840    2.0940 ca        1 XIG     -0.122000
     12 C12        -0.4240   -0.4230    1.0240 ca        1 XIG     -0.066300
     13 C13         1.0080    0.0290    1.1460 c3        1 XIG      0.131300
     14 N14         1.9180   -0.4020    0.1160 n         1 XIG     -0.480800
     15 C15         1.8850   -1.8110   -0.2210 c3        1 XIG      0.176000
     16 C16         1.6410   -2.0860   -1.7140 c3        1 XIG     -0.113400
     17 C17         1.4560   -3.5700   -1.9260 c3        1 XIG     -0.069400
     18 C18         2.7280   -4.3200   -1.5930 c3        1 XIG     -0.026100
     19 C19         3.4010   -3.8410   -0.3530 ca        1 XIG     -0.077300
     20 C20         4.4300   -4.6330    0.1730 ca        1 XIG     -0.155000
     21 C21         5.1460   -4.2230    1.2930 ca        1 XIG     -0.163000
     22 C22         4.8420   -3.0020    1.8930 ca        1 XIG     -0.145000
     23 C23         3.8150   -2.2110    1.3840 ca        1 XIG     -0.103000
     24 C24         3.0760   -2.6200    0.2650 ca        1 XIG     -0.036300
     25 C25         2.5990    0.5330   -0.7060 c         1 XIG      0.754700
     26 O26         3.4690    0.1040   -1.4880 o         1 XIG     -0.630100
     27 C27         2.3380    1.9800   -0.4790 ca        1 XIG     -0.170600
     28 C28         2.9930    2.6210    0.5760 ca        1 XIG     -0.138000
     29 C29         2.7930    3.9810    0.8570 ca        1 XIG     -0.082600
     30 C30         3.5570    4.4780    2.0760 c         1 XIG      0.926200
     31 O31         4.6610    5.0790    1.9260 o         1 XIG     -0.863300
     32 O32         3.1200    4.1600    3.2250 o         1 XIG     -0.863300
     33 C33         1.9240    4.7140    0.0340 ca        1 XIG     -0.072600
     34 C34         1.2920    4.0610   -1.0390 ca        1 XIG     -0.111000
     35 C35         1.4670    2.7000   -1.3090 ca        1 XIG     -0.131600
     36 C36         0.7170    2.0290   -2.4290 c         1 XIG      0.908200
     37 O37         0.1450    2.7110   -3.3280 o         1 XIG     -0.871800
     38 O38         0.6490    0.7500   -2.4450 o         1 XIG     -0.871800
     39 C39         1.5680    6.1840    0.2030 c         1 XIG      0.926200
     40 O40         2.1820    7.0500   -0.4890 o         1 XIG     -0.860300
     41 O41         0.5980    6.4940    0.9590 o         1 XIG     -0.860300
     42 C42        -1.1670   -0.1530   -0.1320 ca        1 XIG     -0.122000
     43 C43        -2.5000   -0.5490   -0.2120 ca        1 XIG     -0.129500
     44 H11        -0.4660   -1.2900    3.0100 ha        1 XIG      0.182500
     45 H4         -6.7340   -2.8800   -1.5350 ha        1 XIG      0.126000
     46 H5         -4.3750   -2.1380   -1.3500 ha        1 XIG      0.145000
     47 H7         -4.9630   -1.2410    2.8370 ha        1 XIG      0.145000
     48 H8         -7.3420   -1.9940    2.6660 ha        1 XIG      0.126000
     49 H10        -2.8370   -2.0040    2.8590 ha        1 XIG      0.115000
     50 H1         -8.6870   -3.9290   -1.2380 h1        1 XIG      0.031700
     51 H1A       -10.1900   -3.2080   -0.4680 h1        1 XIG      0.031700
     52 H1B        -8.9730   -2.1200   -1.3150 h1        1 XIG      0.031700
     53 H15         1.0040   -2.2700    0.3400 h1        1 XIG      0.036700
     54 H20         4.6770   -5.5870   -0.3150 ha        1 XIG      0.099000
     55 H21         5.9530   -4.8510    1.6930 ha        1 XIG      0.098000
     56 H22         5.4150   -2.6570    2.7640 ha        1 XIG      0.116000
     57 H23         3.5960   -1.2420    1.8630 ha        1 XIG      0.163000
     58 H28         3.6800    2.0480    1.2160 ha        1 XIG      0.107000
     59 H13         1.0020    1.1630    1.1920 h1        1 XIG      0.074200
     60 H13A        1.4100   -0.3490    2.1340 h1        1 XIG      0.074200
     61 H34         0.6220    4.6360   -1.6980 ha        1 XIG      0.139000
     62 H42        -0.6770    0.3750   -0.9890 ha        1 XIG      0.182500
     63 H43        -3.0740   -0.3120   -1.1200 ha        1 XIG      0.115000
     64 H16         0.7390   -1.5050   -2.0540 hc        1 XIG      0.106200
     65 H16A        2.5060   -1.7060   -2.3200 hc        1 XIG      0.106200
     66 H17         0.6150   -3.9490   -1.2880 hc        1 XIG      0.022700
     67 H17A        1.1780   -3.7670   -2.9940 hc        1 XIG      0.022700
     68 H18         2.5070   -5.4180   -1.5000 hc        1 XIG      0.025700
     69 H18A        3.4550   -4.2010   -2.4440 hc        1 XIG      0.025700
@<TRIPOS>BOND
     1    1    2 1   
     2    1   50 1   
     3    1   51 1   
     4    1   52 1   
     5    2    3 1   
     6    3    4 ar  
     7    3    8 ar  
     8    4    5 ar  
     9    4   45 1   
    10    5    6 ar  
    11    5   46 1   
    12    6    7 ar  
    13    6    9 1   
    14    7    8 ar  
    15    7   47 1   
    16    8   48 1   
    17    9   10 ar  
    18    9   43 ar  
    19   10   11 ar  
    20   10   49 1   
    21   11   12 ar  
    22   11   44 1   
    23   12   13 1   
    24   12   42 ar  
    25   13   14 1   
    26   13   59 1   
    27   13   60 1   
    28   14   15 1   
    29   14   25 1   
    30   15   16 1   
    31   15   24 1   
    32   15   53 1   
    33   16   17 1   
    34   16   64 1   
    35   16   65 1   
    36   17   18 1   
    37   17   66 1   
    38   17   67 1   
    39   18   19 1   
    40   18   68 1   
    41   18   69 1   
    42   19   20 ar  
    43   19   24 ar  
    44   20   21 ar  
    45   20   54 1   
    46   21   22 ar  
    47   21   55 1   
    48   22   23 ar  
    49   22   56 1   
    50   23   24 ar  
    51   23   57 1   
    52   25   26 2   
    53   25   27 1   
    54   27   28 ar  
    55   27   35 ar  
    56   28   29 ar  
    57   28   58 1   
    58   29   30 1   
    59   29   33 ar  
    60   30   31 1   
    61   30   32 1   
    62   33   34 ar  
    63   33   39 1   
    64   34   35 ar  
    65   34   61 1   
    66   35   36 1   
    67   36   37 1   
    68   36   38 1   
    69   39   40 1   
    70   39   41 1   
    71   42   43 ar  
    72   42   62 1   
    73   43   63 1   
@<TRIPOS>SUBSTRUCTURE
     1 XIG         1 TEMP              0 ****  ****    0 ROOT
