@<TRIPOS>MOLECULE
XIG
   70    74     1     0     0
SMALL
bcc


@<TRIPOS>ATOM
      1 C1         -0.7950   -0.8720    0.9600 c3        1 XIG      0.118700
      2 O2          0.5940   -0.6420    0.7740 os        1 XIG     -0.348900
      3 C3          1.3440   -0.5350    1.9390 ca        1 XIG      0.094100
      4 C4          0.8160   -0.6400    3.2310 ca        1 XIG     -0.190000
      5 C5          1.6600   -0.5180    4.3320 ca        1 XIG     -0.089000
      6 C6          3.0350   -0.2880    4.1500 cp        1 XIG     -0.054000
      7 C7          3.5470   -0.1870    2.8500 ca        1 XIG     -0.089000
      8 C8          2.7150   -0.3090    1.7410 ca        1 XIG     -0.190000
      9 C9          3.9030   -0.1560    5.3180 cp        1 XIG     -0.050000
     10 C10         4.9610    0.7660    5.3320 ca        1 XIG     -0.116000
     11 C11         5.7120    0.9580    6.4880 ca        1 XIG     -0.132500
     12 C12         5.4320    0.2180    7.6410 ca        1 XIG     -0.122300
     13 C13         6.1790    0.4420    8.9250 c3        1 XIG      0.142300
     14 N14         6.1760    1.7980    9.4400 n         1 XIG     -0.497800
     15 C15         7.4170    2.5410    9.3240 c3        1 XIG      0.172000
     16 C16         7.1940    4.0220    8.9660 c3        1 XIG     -0.102400
     17 C17         8.5300    4.6830    8.7170 c3        1 XIG     -0.071400
     18 C18         9.3480    4.7180    9.9890 c3        1 XIG     -0.031100
     19 C19         9.3150    3.4370   10.7490 ca        1 XIG     -0.070300
     20 C20        10.2490    3.2720   11.7810 ca        1 XIG     -0.146000
     21 C21        10.2530    2.1230   12.5640 ca        1 XIG     -0.144000
     22 C22         9.3140    1.1220   12.3200 ca        1 XIG     -0.137000
     23 C23         8.3870    1.2720   11.2920 ca        1 XIG     -0.109000
     24 C24         8.3740    2.4240   10.4950 ca        1 XIG     -0.064300
     25 C25         5.0800    2.3020   10.1620 c         1 XIG      0.690700
     26 O26         5.2320    3.2620   10.9410 o         1 XIG     -0.603100
     27 C27         3.7550    1.6690    9.9060 ca        1 XIG     -0.144600
     28 C28         3.4610    0.4220   10.4490 ca        1 XIG     -0.116000
     29 C29         2.3400   -0.3190   10.0310 ca        1 XIG     -0.071600
     30 C30         2.3340   -1.7540   10.5550 c         1 XIG      0.926200
     31 O31         1.5310   -2.0970   11.4580 o         1 XIG     -0.831800
     32 O32         3.2560   -2.5020   10.1000 o         1 XIG     -0.831800
     33 C33         1.4460    0.2580    9.1220 ca        1 XIG     -0.073600
     34 C34         1.6570    1.5870    8.7150 ca        1 XIG     -0.086000
     35 C35         2.8170    2.2830    9.0580 ca        1 XIG     -0.181600
     36 C36         3.0580    3.6080    8.4640 c         1 XIG      0.665700
     37 O37         2.4220    4.6560    8.5990 o         1 XIG     -0.530000
     38 O38         4.1190    3.7490    7.6010 oh        1 XIG     -0.625100
     39 C39         0.3010   -0.4490    8.4020 c         1 XIG      0.934200
     40 O40        -0.8800   -0.2800    8.8020 o         1 XIG     -0.839800
     41 O41         0.6000   -1.0870    7.3460 o         1 XIG     -0.839800
     42 C42         4.4220   -0.7500    7.6130 ca        1 XIG     -0.132500
     43 C43         3.6470   -0.9200    6.4660 ca        1 XIG     -0.116000
     44 H11         6.5140    1.7110    6.5020 ha        1 XIG      0.164500
     45 H4         -0.2550   -0.8190    3.4000 ha        1 XIG      0.132000
     46 H5          1.2390   -0.6050    5.3620 ha        1 XIG      0.175500
     47 H7          4.6230   -0.0130    2.7000 ha        1 XIG      0.175500
     48 H8          3.1130   -0.2320    0.7220 ha        1 XIG      0.132000
     49 H10         5.1750    1.3660    4.4360 ha        1 XIG      0.154500
     50 H1         -1.1980   -0.9240   -0.0830 h1        1 XIG      0.035367
     51 H1A        -1.2650   -0.0280    1.5210 h1        1 XIG      0.035367
     52 H1B        -0.9690   -1.8370    1.4960 h1        1 XIG      0.035367
     53 H15         7.9790    2.0860    8.4430 h1        1 XIG      0.046700
     54 H20        10.9820    4.0690   11.9750 ha        1 XIG      0.113000
     55 H21        10.9870    2.0080   13.3730 ha        1 XIG      0.113000
     56 H22         9.3000    0.2140   12.9400 ha        1 XIG      0.125000
     57 H23         7.6520    0.4690   11.1190 ha        1 XIG      0.150000
     58 H28         4.1460   -0.0380   11.1780 ha        1 XIG      0.130000
     59 H13         5.7430   -0.2420    9.7140 h1        1 XIG      0.057700
     60 H13A        7.2510    0.1220    8.7640 h1        1 XIG      0.057700
     61 H34         0.9060    2.0670    8.0680 ha        1 XIG      0.138000
     62 H42         4.1720   -1.3540    8.5180 ha        1 XIG      0.164500
     63 H43         2.7810   -1.6110    6.5090 ha        1 XIG      0.154500
     64 H16         6.6580    4.5450    9.8020 hc        1 XIG      0.079700
     65 H16A        6.5460    4.0940    8.0530 hc        1 XIG      0.079700
     66 H17         8.3690    5.7300    8.3480 hc        1 XIG      0.032700
     67 H17A        9.0910    4.1310    7.9180 hc        1 XIG      0.032700
     68 H18        10.4110    4.9840    9.7460 hc        1 XIG      0.039200
     69 H18A        8.9480    5.5270   10.6610 hc        1 XIG      0.039200
     70 H141        4.5350    2.8830    7.4600 ho        1 XIG      0.440000
@<TRIPOS>BOND
     1    1    2 1   
     2    1   50 1   
     3    1   51 1   
     4    1   52 1   
     5    2    3 1   
     6    3    4 ar  
     7    3    8 ar  
     8    4    5 ar  
     9    4   45 1   
    10    5    6 ar  
    11    5   46 1   
    12    6    7 ar  
    13    6    9 1   
    14    7    8 ar  
    15    7   47 1   
    16    8   48 1   
    17    9   10 ar  
    18    9   43 ar  
    19   10   11 ar  
    20   10   49 1   
    21   11   12 ar  
    22   11   44 1   
    23   12   13 1   
    24   12   42 ar  
    25   13   14 1   
    26   13   59 1   
    27   13   60 1   
    28   14   15 1   
    29   14   25 1   
    30   15   16 1   
    31   15   24 1   
    32   15   53 1   
    33   16   17 1   
    34   16   64 1   
    35   16   65 1   
    36   17   18 1   
    37   17   66 1   
    38   17   67 1   
    39   18   19 1   
    40   18   68 1   
    41   18   69 1   
    42   19   20 ar  
    43   19   24 ar  
    44   20   21 ar  
    45   20   54 1   
    46   21   22 ar  
    47   21   55 1   
    48   22   23 ar  
    49   22   56 1   
    50   23   24 ar  
    51   23   57 1   
    52   25   26 2   
    53   25   27 1   
    54   27   28 ar  
    55   27   35 ar  
    56   28   29 ar  
    57   28   58 1   
    58   29   30 1   
    59   29   33 ar  
    60   30   31 1   
    61   30   32 1   
    62   33   34 ar  
    63   33   39 1   
    64   34   35 ar  
    65   34   61 1   
    66   35   36 1   
    67   36   37 2   
    68   36   38 1   
    69   38   70 1   
    70   39   40 1   
    71   39   41 1   
    72   42   43 ar  
    73   42   62 1   
    74   43   63 1   
@<TRIPOS>SUBSTRUCTURE
     1 XIG         1 TEMP              0 ****  ****    0 ROOT
