@<TRIPOS>MOLECULE
XIH
   52    55     1     0     0
SMALL
bcc


@<TRIPOS>ATOM
      1 C5          1.4020    0.8190    0.1680 cc        1 XIH     -0.357200
      2 C6          0.8910    2.1360   -0.0670 cd        1 XIH      0.496200
      3 C8         -0.8140    0.8740    0.5150 cc        1 XIH      0.635400
      4 C10        -2.5520    0.8740    2.1630 c3        1 XIH      0.167800
      5 C13        -4.4730    0.0220    0.1300 c3        1 XIH      0.161500
      6 C15        -3.0870    0.6340   -0.2130 c3        1 XIH      0.173800
      7 C20         0.7100   -3.1910   -2.4460 ca        1 XIH     -0.109000
      8 C21        -0.4040   -4.0310   -2.4410 ca        1 XIH     -0.125000
      9 C22        -1.2810   -4.0180   -1.3600 ca        1 XIH     -0.098000
     10 C24        -1.9650   -3.1810    0.8140 cg        1 XIH      0.242800
     11 C28         3.1180    2.8970   -0.5780 c         1 XIH      0.813500
     12 N           3.6220    1.5910   -0.3390 n         1 XIH     -0.483400
     13 C3          2.8120    0.4990    0.0370 c         1 XIH      0.763100
     14 O           3.3060   -0.6290    0.2270 o         1 XIH     -0.639500
     15 N7         -0.4870    2.1670    0.1530 nd        1 XIH     -0.704000
     16 N9         -2.1190    0.3810    0.8540 nh        1 XIH     -0.702300
     17 C11        -3.9260    0.3330    2.5500 c3        1 XIH     -0.078400
     18 C12        -4.9470    0.6060    1.4700 c3        1 XIH     -0.119400
     19 N16         0.3140    0.0260    0.5440 na        1 XIH     -0.129900
     20 C18         0.0600   -2.2970   -0.2870 ca        1 XIH     -0.071300
     21 C19         0.9410   -2.3330   -1.3730 ca        1 XIH     -0.112000
     22 C23        -1.0540   -3.1530   -0.2780 ca        1 XIH      0.002000
     23 N25        -2.7230   -3.2250    1.6960 n1        1 XIH     -0.372800
     24 N26         1.7350    3.1690   -0.4490 n         1 XIH     -0.419300
     25 C27         1.2180    4.4930   -0.6770 c3        1 XIH      0.090300
     26 O29         3.9040    3.8110   -0.9100 o         1 XIH     -0.636500
     27 H101       -1.7920    0.5300    2.9200 h1        1 XIH      0.046700
     28 H102       -2.5850    2.0020    2.1890 h1        1 XIH      0.046700
     29 H13        -4.3430   -1.0950    0.2640 h1        1 XIH      0.077700
     30 H151       -3.2150    1.7380   -0.4060 h1        1 XIH      0.057700
     31 H152       -2.6920    0.1550   -1.1510 h1        1 XIH      0.057700
     32 H171        1.4130   -1.6040    1.2250 h1        1 XIH      0.096700
     33 H172       -0.3610   -1.5610    1.7120 h1        1 XIH      0.096700
     34 H20         1.4090   -3.2070   -3.2960 ha        1 XIH      0.142000
     35 H21        -0.5890   -4.7080   -3.2890 ha        1 XIH      0.141000
     36 H22        -2.1560   -4.6850   -1.3500 ha        1 XIH      0.146000
     37 H1          5.3370    1.6420   -1.5570 h1        1 XIH      0.063700
     38 H2          5.5890    2.1300    0.1810 h1        1 XIH      0.063700
     39 H3          5.3270    0.3610   -0.2410 h1        1 XIH      0.063700
     40 H111       -3.8630   -0.7710    2.7410 hc        1 XIH      0.058700
     41 H112       -4.2370    0.8290    3.5060 hc        1 XIH      0.058700
     42 H121       -5.9280    0.1480    1.7590 hc        1 XIH      0.042700
     43 H122       -5.1060    1.7120    1.3680 hc        1 XIH      0.042700
     44 H141       -6.2780   -0.2090   -0.7530 hn        1 XIH      0.349300
     45 H142       -5.5220    1.1690   -1.1840 hn        1 XIH      0.349300
     46 H19         1.8330   -1.6820   -1.3630 ha        1 XIH      0.160000
     47 H271        2.0500    5.1720   -1.0060 h1        1 XIH      0.063367
     48 H272        0.4280    4.4520   -1.4730 h1        1 XIH      0.063367
     49 H273        0.7630    4.8870    0.2700 h1        1 XIH      0.063367
     50 C17         0.3620   -1.3780    0.8650 c3        1 XIH      0.078600
     51 C           5.0470    1.4170   -0.4960 c3        1 XIH      0.080300
     52 N14        -5.3920    0.1980   -0.9780 n3        1 XIH     -0.902800
@<TRIPOS>BOND
     1    1    2 2   
     2    1   13 1   
     3    1   19 1   
     4    2   15 1   
     5    2   24 1   
     6    3   15 2   
     7    3   16 1   
     8    3   19 1   
     9    4   16 1   
    10    4   17 1   
    11    4   27 1   
    12    4   28 1   
    13    5    6 1   
    14    5   18 1   
    15    5   29 1   
    16    5   52 1   
    17    6   16 1   
    18    6   30 1   
    19    6   31 1   
    20    7    8 ar  
    21    7   21 ar  
    22    7   34 1   
    23    8    9 ar  
    24    8   35 1   
    25    9   22 ar  
    26    9   36 1   
    27   10   22 1   
    28   10   23 3   
    29   11   12 1   
    30   11   24 1   
    31   11   26 2   
    32   12   13 1   
    33   12   51 1   
    34   13   14 2   
    35   17   18 1   
    36   17   40 1   
    37   17   41 1   
    38   18   42 1   
    39   18   43 1   
    40   19   50 1   
    41   20   21 ar  
    42   20   22 ar  
    43   20   50 1   
    44   21   46 1   
    45   24   25 1   
    46   25   47 1   
    47   25   48 1   
    48   25   49 1   
    49   32   50 1   
    50   33   50 1   
    51   37   51 1   
    52   38   51 1   
    53   39   51 1   
    54   44   52 1   
    55   45   52 1   
@<TRIPOS>SUBSTRUCTURE
     1 XIH         1 TEMP              0 ****  ****    0 ROOT
