@<TRIPOS>MOLECULE
XIH
   52    46     1     0     0
SMALL
bcc


@<TRIPOS>ATOM
      1 C5         -0.4120   -0.6110   -1.7170 c1        1 XIH     -0.075000
      2 C6          0.9300   -0.5320   -1.6530 c1        1 XIH     -0.075000
      3 C8          0.1580   -0.5270    0.4230 c1        1 XIH      0.078000
      4 C10         1.6590    0.8250    1.8530 c3        1 XIH     -0.064000
      5 C13         2.5450   -1.3900    3.3660 c3        1 XIH     -0.027000
      6 C15         1.8320   -1.5150    1.9860 c3        1 XIH     -0.112000
      7 C17        -2.4070   -0.6230   -0.2800 c3        1 XIH      0.010000
      8 C20        -3.7940    1.9370    2.1500 c1        1 XIH     -0.115000
      9 C21        -3.9650    3.0260    1.3280 c1        1 XIH     -0.110500
     10 C22        -3.5820    2.9520   -0.0430 c1        1 XIH     -0.110500
     11 C24        -2.6570    1.6820   -2.0280 c1        1 XIH     -0.102000
     12 C28         1.0500   -0.5810   -4.0360 c1        1 XIH      0.406000
     13 C          -0.9440   -0.7550   -5.3580 c3        1 XIH     -0.069000
     14 N          -0.3050   -0.6610   -4.1050 n2        1 XIH     -0.271000
     15 C3         -1.0470   -0.6770   -2.9590 c1        1 XIH      0.406000
     16 O          -2.2660   -0.7490   -3.0210 o         1 XIH     -0.359500
     17 N7          1.2920   -0.4800   -0.3260 n1        1 XIH     -0.178000
     18 N9          0.6980   -0.4190    1.7680 n2        1 XIH     -0.194000
     19 C11         2.3790    0.9610    3.2600 c3        1 XIH     -0.186000
     20 C12         2.3650   -0.1550    3.9130 c3        1 XIH     -0.160000
     21 N14         1.9790   -2.4320    4.3030 n3        1 XIH     -0.331000
     22 N16        -0.9010   -0.6080   -0.4210 n2        1 XIH     -0.089000
     23 C18        -2.8650    0.6820    0.2900 c2        1 XIH     -0.053000
     24 C19        -3.2450    0.7580    1.6440 c2        1 XIH     -0.112000
     25 C23        -3.0370    1.7830   -0.5460 c1        1 XIH      0.011000
     26 N25        -2.3720    1.6020   -3.1310 n1        1 XIH     -0.022000
     27 N26         1.6760   -0.5160   -2.8110 n2        1 XIH     -0.271000
     28 C27         3.1150   -0.3750   -2.7380 c3        1 XIH     -0.069000
     29 O29         1.6740   -0.5540   -4.9960 o         1 XIH     -0.359500
     30 H101        1.1350    1.6380    1.6850 h1        1 XIH      0.100000
     31 H102        2.3920    0.7370    1.1070 h1        1 XIH      0.100000
     32 H13         3.5180   -1.5540    3.2480 h1        1 XIH      0.106000
     33 H151        1.3990   -2.4660    1.9220 h1        1 XIH      0.090000
     34 H152        2.5110   -1.4200    1.2580 h1        1 XIH      0.090000
     35 H171       -2.8230   -0.7620   -1.1760 h1        1 XIH      0.132500
     36 H172       -2.6630   -1.3270    0.2990 h1        1 XIH      0.132500
     37 H20        -4.0610    1.9890    3.1080 ha        1 XIH      0.141000
     38 H21        -4.3470    3.8440    1.6820 ha        1 XIH      0.146000
     39 H22        -3.7050    3.7290   -0.6300 ha        1 XIH      0.146000
     40 H1         -0.2620   -0.8520   -6.0740 h1        1 XIH      0.102167
     41 H2         -1.5110   -1.5040   -5.3640 h1        1 XIH      0.102167
     42 H3         -1.4950    0.0930   -5.5250 h1        1 XIH      0.102167
     43 H111        3.2970    1.2320    3.1200 hc        1 XIH      0.096000
     44 H112        1.9090    1.6610    3.8030 hc        1 XIH      0.096000
     45 H121        1.4920   -0.1870    4.3710 hc        1 XIH      0.094500
     46 H122        3.0760   -0.0640    4.6380 hc        1 XIH      0.094500
     47 H141        2.3600   -3.2240    4.1300 hn        1 XIH      0.143500
     48 H142        1.0420   -2.4990    4.1700 hn        1 XIH      0.143500
     49 H19        -3.1180   -0.0600    2.2630 ha        1 XIH      0.137000
     50 H271        3.4840   -0.3820   -3.6180 h1        1 XIH      0.102167
     51 H272        3.3330    0.4520   -2.3080 h1        1 XIH      0.102167
     52 H273        3.4890   -1.1200   -2.2210 h1        1 XIH      0.102167
@<TRIPOS>BOND
     1    1    2 1   
     2    3   17 1   
     3    3   22 1   
     4    4   18 1   
     5    4   19 1   
     6    4   30 1   
     7    4   31 1   
     8    5    6 1   
     9    5   20 1   
    10    5   21 1   
    11    5   32 1   
    12    6   18 1   
    13    6   33 1   
    14    6   34 1   
    15    7   22 1   
    16    7   23 1   
    17    7   35 1   
    18    7   36 1   
    19    8   24 1   
    20    8   37 1   
    21    9   10 1   
    22    9   38 1   
    23   10   39 1   
    24   11   26 1   
    25   12   27 1   
    26   12   29 1   
    27   13   14 1   
    28   13   40 1   
    29   13   41 1   
    30   13   42 1   
    31   14   15 1   
    32   15   16 1   
    33   19   20 1   
    34   19   43 1   
    35   19   44 1   
    36   20   45 1   
    37   20   46 1   
    38   21   47 1   
    39   21   48 1   
    40   23   24 1   
    41   23   25 1   
    42   24   49 1   
    43   27   28 1   
    44   28   50 1   
    45   28   51 1   
    46   28   52 1   
@<TRIPOS>SUBSTRUCTURE
     1 XIH         1 TEMP              0 ****  ****    0 ROOT
