@<TRIPOS>MOLECULE
XIH
   53    55     1     0     0
SMALL
bcc


@<TRIPOS>ATOM
      1 C5          0.1780    0.1410   -0.3160 c2        1 XIH     -0.221000
      2 C6          1.5750   -0.1850   -0.2690 c2        1 XIH      0.096000
      3 C8          0.7780   -0.4000    1.7660 c2        1 XIH      0.031000
      4 C10         0.4640   -2.1130    3.4410 c3        1 XIH     -0.084000
      5 C13         1.6130   -0.4490    5.3900 c2        1 XIH      0.233000
      6 C15         1.6650   -0.0770    3.9800 c3        1 XIH     -0.135000
      7 C20        -2.8540    3.8530    0.9520 ca        1 XIH     -0.092000
      8 C21        -2.7730    4.3710    2.2440 ca        1 XIH     -0.114000
      9 C22        -2.3040    3.5710    3.2830 ca        1 XIH     -0.092000
     10 C24        -1.4240    1.4870    4.1310 c1        1 XIH     -0.026000
     11 C28         1.7310    0.1780   -2.6450 c2        1 XIH      0.404000
     12 N           0.3390    0.4560   -2.6970 n         1 XIH     -0.305000
     13 C3         -0.5030    0.4290   -1.5730 c2        1 XIH      0.401000
     14 O          -1.7290    0.6220   -1.6730 o         1 XIH     -0.354000
     15 N7          1.9440   -0.5280    1.0340 n2        1 XIH     -0.180000
     16 N9          0.6330   -0.6880    3.1610 nh        1 XIH     -0.190000
     17 C11         0.0280   -2.3480    4.8860 c3        1 XIH     -0.169000
     18 C12         0.8290   -1.5500    5.8960 c3        1 XIH     -0.239000
     19 N16        -0.3160    0.0260    0.9840 na        1 XIH     -0.064000
     20 C18        -1.9920    1.7190    1.7300 ca        1 XIH     -0.070000
     21 C19        -2.4690    2.5370    0.7000 ca        1 XIH     -0.109000
     22 C23        -1.9080    2.2470    3.0310 ca        1 XIH     -0.028000
     23 N25        -1.0100    0.9130    5.0560 n1        1 XIH     -0.141000
     24 N26         2.3570   -0.1420   -1.4100 n         1 XIH     -0.236000
     25 C27         3.7520   -0.4960   -1.3640 c3        1 XIH     -0.068000
     26 O29         2.4140    0.2210   -3.6870 o         1 XIH     -0.328000
     27 H101        1.4110   -2.6910    3.2310 h1        1 XIH      0.115500
     28 H102       -0.3370   -2.5080    2.7520 h1        1 XIH      0.115500
     29 H13         2.2540    0.1540    6.1150 ha        1 XIH      0.248000
     30 H151        2.7350   -0.3180    3.6380 h1        1 XIH      0.198000
     31 H152        1.5780    1.0550    3.8780 h1        1 XIH      0.198000
     32 H171       -2.3480   -0.0520    0.5680 h1        1 XIH      0.137000
     33 H172       -1.8800   -0.3550    2.3210 h1        1 XIH      0.137000
     34 H20        -3.2280    4.4810    0.1270 ha        1 XIH      0.158000
     35 H21        -3.0840    5.4080    2.4470 ha        1 XIH      0.156000
     36 H22        -2.2480    3.9750    4.3060 ha        1 XIH      0.149000
     37 H1         -0.0540   -0.1550   -4.6750 h1        1 XIH      0.111333
     38 H2          0.3290    1.6160   -4.4530 h1        1 XIH      0.111333
     39 H3         -1.3030    0.9590   -3.9190 h1        1 XIH      0.111333
     40 H111       -1.0590   -2.0820    4.9920 hc        1 XIH      0.127000
     41 H112        0.1270   -3.4450    5.1060 hc        1 XIH      0.127000
     42 H121        1.5030   -2.2270    6.5100 hc        1 XIH      0.200500
     43 H122        0.1170   -1.1000    6.6710 hc        1 XIH      0.200500
     44 H141        3.7640    0.5100    7.9450 hn        1 XIH      0.158667
     45 H142        4.0040    1.6400    6.8010 hn        1 XIH      0.158667
     46 H19        -2.5510    2.1310   -0.3250 ha        1 XIH      0.181000
     47 H271        4.2820    0.1760   -0.6380 h1        1 XIH      0.106667
     48 H272        3.8630   -1.5620   -1.0290 h1        1 XIH      0.106667
     49 H273        4.2050   -0.3760   -2.3850 h1        1 XIH      0.106667
     50 C17        -1.6700    0.2830    1.4140 c3        1 XIH      0.010000
     51 C          -0.2070    0.7350   -4.0080 c3        1 XIH     -0.080000
     52 H143        2.7250    1.7520    7.7980 hn        1 XIH      0.158667
     53 N14         3.3070    1.1150    7.2910 n9        1 XIH     -0.427000
@<TRIPOS>BOND
     1    1    2 1   
     2    1   13 1   
     3    1   19 1   
     4    2   15 1   
     5    2   24 1   
     6    3   15 1   
     7    3   16 1   
     8    3   19 1   
     9    4   16 1   
    10    4   17 1   
    11    4   27 1   
    12    4   28 1   
    13    5    6 1   
    14    5   18 1   
    15    5   29 1   
    16    6   16 1   
    17    6   30 1   
    18    6   31 1   
    19    7    8 1   
    20    7   21 1   
    21    7   34 1   
    22    8    9 1   
    23    8   35 1   
    24    9   22 1   
    25    9   36 1   
    26   10   22 1   
    27   10   23 1   
    28   11   12 1   
    29   11   24 1   
    30   11   26 1   
    31   12   13 1   
    32   12   51 1   
    33   13   14 1   
    34   17   18 1   
    35   17   40 1   
    36   17   41 1   
    37   18   42 1   
    38   18   43 1   
    39   19   50 1   
    40   20   21 1   
    41   20   22 1   
    42   20   50 1   
    43   21   46 1   
    44   24   25 1   
    45   25   47 1   
    46   25   48 1   
    47   25   49 1   
    48   32   50 1   
    49   33   50 1   
    50   37   51 1   
    51   38   51 1   
    52   39   51 1   
    53   44   53 1   
    54   45   53 1   
    55   52   53 1   
@<TRIPOS>SUBSTRUCTURE
     1 XIH         1 TEMP              0 ****  ****    0 ROOT
