@<TRIPOS>MOLECULE
XIL
   35    36     1     0     0
SMALL
bcc


@<TRIPOS>ATOM
      1 C1         -0.0530   -0.2840    0.2430 c3        1 XIL      0.338900
      2 C2          1.4750   -0.2520    0.0290 c3        1 XIL      0.128100
      3 O2          1.8350   -1.5400   -0.4380 oh        1 XIL     -0.593800
      4 C3          2.2000    0.0360    1.3540 c3        1 XIL      0.110100
      5 O3          3.5610    0.2480    1.0210 oh        1 XIL     -0.604800
      6 C4          1.5920    1.2740    2.0270 c3        1 XIL      0.069100
      7 O4          2.2440    1.4010    3.2820 oh        1 XIL     -0.601800
      8 C5          0.0880    1.0630    2.2070 c3        1 XIL      0.107400
      9 O5         -0.5430    0.8470    0.9570 os        1 XIL     -0.426600
     10 N1'        -4.3490   -1.3280   -2.5370 n         1 XIL     -0.561900
     11 C2'        -3.9010   -0.0640   -2.8320 c         1 XIL      0.662500
     12 C3'        -2.5670    0.4470   -2.2750 c3        1 XIL      0.089100
     13 O2'        -4.5600    0.6770   -3.5920 o         1 XIL     -0.656500
     14 O3'        -2.7380    1.7820   -1.8380 oh        1 XIL     -0.578800
     15 C4'        -2.0500   -0.3580   -1.0710 c3        1 XIL      0.151100
     16 O4'        -0.6400   -0.0980   -1.0280 os        1 XIL     -0.392600
     17 C5'        -2.2760   -1.8490   -1.2840 c3        1 XIL     -0.124400
     18 C6'        -3.7500   -2.1510   -1.5250 c3        1 XIL      0.101000
     19 H1         -0.3810   -1.2360    0.7410 h2        1 XIL      0.054700
     20 H2          1.7380    0.5310   -0.7350 h1        1 XIL      0.082700
     21 HO2         2.7870   -1.5080   -0.6050 ho        1 XIL      0.424000
     22 H3          2.1170   -0.8500    2.0440 h1        1 XIL      0.062700
     23 HO3         4.0070    0.5110    1.8370 ho        1 XIL      0.426000
     24 H4          1.7870    2.1850    1.3960 h1        1 XIL      0.068700
     25 HO4         1.9140    2.2120    3.6870 ho        1 XIL      0.412000
     26 H51        -0.4050    1.9870    2.6090 h1        1 XIL      0.058700
     27 H52        -0.1020    0.1980    2.8970 h1        1 XIL      0.058700
     28 H3'        -1.8110    0.4070   -3.1110 h1        1 XIL      0.081700
     29 HO'        -3.1510    2.2660   -2.5690 ho        1 XIL      0.426000
     30 H4'        -2.5430    0.0070   -0.1300 h1        1 XIL      0.083700
     31 H5'1       -1.9370   -2.4160   -0.3790 hc        1 XIL      0.068200
     32 H5'2       -1.6560   -2.1970   -2.1510 hc        1 XIL      0.068200
     33 H6'1       -4.3140   -2.0220   -0.5530 h1        1 XIL      0.042200
     34 H6'2       -3.8560   -3.2300   -1.8380 h1        1 XIL      0.042200
     35 HN'        -5.2320   -1.6110   -2.8960 hn        1 XIL      0.324500
@<TRIPOS>BOND
     1    1    2 1   
     2    1    9 1   
     3    1   16 1   
     4    1   19 1   
     5    2    3 1   
     6    2    4 1   
     7    2   20 1   
     8    3   21 1   
     9    4    5 1   
    10    4    6 1   
    11    4   22 1   
    12    5   23 1   
    13    6    7 1   
    14    6    8 1   
    15    6   24 1   
    16    7   25 1   
    17    8    9 1   
    18    8   26 1   
    19    8   27 1   
    20   10   11 1   
    21   10   18 1   
    22   10   35 1   
    23   11   12 1   
    24   11   13 2   
    25   12   14 1   
    26   12   15 1   
    27   12   28 1   
    28   14   29 1   
    29   15   16 1   
    30   15   17 1   
    31   15   30 1   
    32   17   18 1   
    33   17   31 1   
    34   17   32 1   
    35   18   33 1   
    36   18   34 1   
@<TRIPOS>SUBSTRUCTURE
     1 XIL         1 TEMP              0 ****  ****    0 ROOT
