@<TRIPOS>MOLECULE
XIL
   35    36     1     0     0
SMALL
bcc


@<TRIPOS>ATOM
      1 C1         -0.0510   -0.2890    0.2400 c3        1 XIL      0.338900
      2 C2          1.4760   -0.2500    0.0230 c3        1 XIL      0.128100
      3 O2          1.8400   -1.5320   -0.4560 oh        1 XIL     -0.593800
      4 C3          2.2040    0.0300    1.3490 c3        1 XIL      0.110100
      5 O3          3.5630    0.2490    1.0140 oh        1 XIL     -0.604800
      6 C4          1.5930    1.2600    2.0330 c3        1 XIL      0.069100
      7 O4          2.2470    1.3790    3.2870 oh        1 XIL     -0.601800
      8 C5          0.0900    1.0420    2.2140 c3        1 XIL      0.107400
      9 O5         -0.5430    0.8350    0.9640 os        1 XIL     -0.426600
     10 N1'        -4.3500   -1.3260   -2.5370 n         1 XIL     -0.561900
     11 C2'        -3.9070   -0.0580   -2.8250 c         1 XIL      0.662500
     12 C3'        -2.5740    0.4520   -2.2670 c3        1 XIL      0.089100
     13 O2'        -4.5700    0.6860   -3.5780 o         1 XIL     -0.656500
     14 O3'        -2.7480    1.7840   -1.8200 oh        1 XIL     -0.578800
     15 C4'        -2.0520   -0.3590   -1.0700 c3        1 XIL      0.151100
     16 O4'        -0.6420   -0.0950   -1.0280 os        1 XIL     -0.392600
     17 C5'        -2.2740   -1.8500   -1.2920 c3        1 XIL     -0.124400
     18 C6'        -3.7470   -2.1540   -1.5320 c3        1 XIL      0.101000
     19 H1         -0.3750   -1.2460    0.7320 h2        1 XIL      0.054700
     20 H2          1.7340    0.5410   -0.7350 h1        1 XIL      0.082700
     21 HO2         2.7910   -1.4960   -0.6250 ho        1 XIL      0.424000
     22 H3          2.1250   -0.8620    2.0310 h1        1 XIL      0.062700
     23 HO3         4.0090    0.5070    1.8310 ho        1 XIL      0.426000
     24 H4          1.7830    2.1770    1.4090 h1        1 XIL      0.068700
     25 HO4         1.9160    2.1860    3.7000 ho        1 XIL      0.412000
     26 H51        -0.0950    0.1720    2.8980 h1        1 XIL      0.058700
     27 H52        -0.4060    1.9620    2.6250 h1        1 XIL      0.058700
     28 H3'        -1.8190    0.4210   -3.1050 h1        1 XIL      0.081700
     29 HO'        -3.1630    2.2720   -2.5470 ho        1 XIL      0.426000
     30 H4'        -2.5430   -0.0020   -0.1240 h1        1 XIL      0.083700
     31 H5'1       -1.6540   -2.1890   -2.1630 hc        1 XIL      0.068200
     32 H5'2       -1.9310   -2.4210   -0.3920 hc        1 XIL      0.068200
     33 H6'1       -3.8510   -3.2310   -1.8520 h1        1 XIL      0.042200
     34 H6'2       -4.3090   -2.0330   -0.5580 h1        1 XIL      0.042200
     35 HN'        -5.2330   -1.6090   -2.8970 hn        1 XIL      0.324500
@<TRIPOS>BOND
     1    1    2 1   
     2    1    9 1   
     3    1   16 1   
     4    1   19 1   
     5    2    3 1   
     6    2    4 1   
     7    2   20 1   
     8    3   21 1   
     9    4    5 1   
    10    4    6 1   
    11    4   22 1   
    12    5   23 1   
    13    6    7 1   
    14    6    8 1   
    15    6   24 1   
    16    7   25 1   
    17    8    9 1   
    18    8   26 1   
    19    8   27 1   
    20   10   11 1   
    21   10   18 1   
    22   10   35 1   
    23   11   12 1   
    24   11   13 2   
    25   12   14 1   
    26   12   15 1   
    27   12   28 1   
    28   14   29 1   
    29   15   16 1   
    30   15   17 1   
    31   15   30 1   
    32   17   18 1   
    33   17   31 1   
    34   17   32 1   
    35   18   33 1   
    36   18   34 1   
@<TRIPOS>SUBSTRUCTURE
     1 XIL         1 TEMP              0 ****  ****    0 ROOT
