@<TRIPOS>MOLECULE
XIL
   35    36     1     0     0
SMALL
bcc


@<TRIPOS>ATOM
      1 C1         -0.2720    0.3160    0.9030 c3        1 XIL      0.300900
      2 C2         -0.9380   -0.5170    2.0230 c3        1 XIL      0.129100
      3 O2         -2.3310   -0.2650    1.9920 oh        1 XIL     -0.583800
      4 C3         -0.4310   -0.0680    3.4010 c3        1 XIL      0.153100
      5 O3         -0.8590   -1.0460    4.3320 oh        1 XIL     -0.585800
      6 C4          1.1080    0.0020    3.3950 c3        1 XIL      0.065100
      7 O4          1.4700    0.5810    4.6400 oh        1 XIL     -0.600800
      8 C5          1.6090    0.8590    2.2340 c3        1 XIL      0.106400
      9 O5          1.1460    0.3490    0.9930 os        1 XIL     -0.424600
     10 N1'        -0.4360    0.8770   -4.2890 n         1 XIL     -0.561900
     11 C2'         0.1090   -0.3440   -3.9740 c         1 XIL      0.661500
     12 C3'         0.1310   -0.8430   -2.5240 c3        1 XIL      0.089100
     13 O2'         0.5600   -1.0850   -4.8730 o         1 XIL     -0.653500
     14 O3'         1.3850   -1.4420   -2.2650 oh        1 XIL     -0.577800
     15 C4'        -0.0570    0.2750   -1.4850 c3        1 XIL      0.151100
     16 O4'        -0.5010   -0.3930   -0.2960 os        1 XIL     -0.412600
     17 C5'        -1.1280    1.2580   -1.9410 c3        1 XIL     -0.125400
     18 C6'        -0.7760    1.8570   -3.2970 c3        1 XIL      0.101000
     19 H1         -0.6870    1.3610    0.8640 h2        1 XIL      0.049700
     20 H2         -0.7200   -1.6090    1.8710 h1        1 XIL      0.084700
     21 HO2        -2.6830   -0.7750    1.2520 ho        1 XIL      0.415000
     22 H3         -0.8630    0.9360    3.6670 h1        1 XIL      0.066700
     23 HO3        -0.5680   -0.7360    5.2000 ho        1 XIL      0.418000
     24 H4          1.5260   -1.0400    3.3160 h1        1 XIL      0.067700
     25 HO4         2.4320    0.5320    4.7010 ho        1 XIL      0.410000
     26 H51         1.2800    1.9240    2.3660 h1        1 XIL      0.058700
     27 H52         2.7270    0.8130    2.1500 h1        1 XIL      0.058700
     28 H3'        -0.6920   -1.6060   -2.4150 h1        1 XIL      0.077700
     29 HO'         1.5510   -2.0720   -2.9830 ho        1 XIL      0.427000
     30 H4'         0.9240    0.7900   -1.2980 h1        1 XIL      0.090700
     31 H5'1       -2.1180    0.7330   -1.9890 hc        1 XIL      0.064700
     32 H5'2       -1.2200    2.0890   -1.1950 hc        1 XIL      0.064700
     33 H6'1       -1.6580    2.4500   -3.6750 h1        1 XIL      0.043700
     34 H6'2        0.0860    2.5760   -3.1650 h1        1 XIL      0.043700
     35 HN'        -0.4030    1.1760   -5.2370 hn        1 XIL      0.325500
@<TRIPOS>BOND
     1    1    2 1   
     2    1    9 1   
     3    1   16 1   
     4    1   19 1   
     5    2    3 1   
     6    2    4 1   
     7    2   20 1   
     8    3   21 1   
     9    4    5 1   
    10    4    6 1   
    11    4   22 1   
    12    5   23 1   
    13    6    7 1   
    14    6    8 1   
    15    6   24 1   
    16    7   25 1   
    17    8    9 1   
    18    8   26 1   
    19    8   27 1   
    20   10   11 1   
    21   10   18 1   
    22   10   35 1   
    23   11   12 1   
    24   11   13 2   
    25   12   14 1   
    26   12   15 1   
    27   12   28 1   
    28   14   29 1   
    29   15   16 1   
    30   15   17 1   
    31   15   30 1   
    32   17   18 1   
    33   17   31 1   
    34   17   32 1   
    35   18   33 1   
    36   18   34 1   
@<TRIPOS>SUBSTRUCTURE
     1 XIL         1 TEMP              0 ****  ****    0 ROOT
