@<TRIPOS>MOLECULE
XIL
   35    36     1     0     0
SMALL
bcc


@<TRIPOS>ATOM
      1 C1         -0.0530   -0.2890    0.2420 c3        1 XIL      0.338900
      2 C2          1.4750   -0.2640    0.0260 c3        1 XIL      0.128100
      3 O2          1.8290   -1.5560   -0.4350 oh        1 XIL     -0.593800
      4 C3          2.2040    0.0280    1.3480 c3        1 XIL      0.110100
      5 O3          3.5650    0.2310    1.0110 oh        1 XIL     -0.604800
      6 C4          1.6030    1.2720    2.0160 c3        1 XIL      0.069100
      7 O4          2.2570    1.4020    3.2690 oh        1 XIL     -0.601800
      8 C5          0.0980    1.0670    2.1990 c3        1 XIL      0.107400
      9 O5         -0.5360    0.8490    0.9510 os        1 XIL     -0.426600
     10 N1'        -4.3580   -1.3280   -2.5240 ns        1 XIL     -0.561900
     11 C2'        -3.9050   -0.0670   -2.8270 c         1 XIL      0.662500
     12 C3'        -2.5680    0.4400   -2.2750 c3        1 XIL      0.089100
     13 O2'        -4.5620    0.6730   -3.5900 o         1 XIL     -0.656500
     14 O3'        -2.7320    1.7780   -1.8450 oh        1 XIL     -0.578800
     15 C4'        -2.0530   -0.3600   -1.0680 c3        1 XIL      0.151100
     16 O4'        -0.6410   -0.1070   -1.0280 os        1 XIL     -0.392600
     17 C5'        -2.2860   -1.8520   -1.2720 c3        1 XIL     -0.124400
     18 C6'        -3.7620   -2.1480   -1.5090 c3        1 XIL      0.101000
     19 H1         -0.3840   -1.2370    0.7460 h2        1 XIL      0.054700
     20 H2          1.7400    0.5140   -0.7420 h1        1 XIL      0.082700
     21 HO2         2.7800   -1.5300   -0.6040 ho        1 XIL      0.424000
     22 H3          2.1180   -0.8550    2.0420 h1        1 XIL      0.062700
     23 HO3         4.0130    0.4970    1.8260 ho        1 XIL      0.426000
     24 H4          1.8000    2.1780    1.3790 h1        1 XIL      0.068700
     25 HO4         1.9310    2.2160    3.6700 ho        1 XIL      0.412000
     26 H51        -0.0950    0.2070    2.8940 h1        1 XIL      0.058700
     27 H52        -0.3910    1.9960    2.5970 h1        1 XIL      0.058700
     28 H3'        -1.8130    0.3920   -3.1120 h1        1 XIL      0.081700
     29 HO'        -3.1430    2.2610   -2.5780 ho        1 XIL      0.426000
     30 H4'        -2.5420    0.0120   -0.1270 h1        1 XIL      0.083700
     31 H5'1       -1.6690   -2.2070   -2.1380 hc        1 XIL      0.068200
     32 H5'2       -1.9480   -2.4150   -0.3640 hc        1 XIL      0.068200
     33 H6'1       -4.3230   -2.0110   -0.5360 h1        1 XIL      0.042200
     34 H6'2       -3.8730   -3.2280   -1.8160 h1        1 XIL      0.042200
     35 HN'        -5.2430   -1.6090   -2.8810 hn        1 XIL      0.324500
@<TRIPOS>BOND
     1    1    2 1   
     2    1    9 1   
     3    1   16 1   
     4    1   19 1   
     5    2    3 1   
     6    2    4 1   
     7    2   20 1   
     8    3   21 1   
     9    4    5 1   
    10    4    6 1   
    11    4   22 1   
    12    5   23 1   
    13    6    7 1   
    14    6    8 1   
    15    6   24 1   
    16    7   25 1   
    17    8    9 1   
    18    8   26 1   
    19    8   27 1   
    20   10   11 1   
    21   10   18 1   
    22   10   35 1   
    23   11   12 1   
    24   11   13 2   
    25   12   14 1   
    26   12   15 1   
    27   12   28 1   
    28   14   29 1   
    29   15   16 1   
    30   15   17 1   
    31   15   30 1   
    32   17   18 1   
    33   17   31 1   
    34   17   32 1   
    35   18   33 1   
    36   18   34 1   
@<TRIPOS>SUBSTRUCTURE
     1 XIL         1 TEMP              0 ****  ****    0 ROOT
