@<TRIPOS>MOLECULE
XIM
   22    20     1     0     0
SMALL
bcc


@<TRIPOS>ATOM
      1 C1         -0.7330   -0.1130   -1.2120 c1        1 XIM     -0.111000
      2 C2          0.8750   -0.1130   -1.2120 c2        1 XIM      0.084000
      3 C3          1.5080   -0.1130    0.0600 c3        1 XIM     -0.039000
      4 C4          0.8440    0.6500    1.1280 c3        1 XIM      0.032000
      5 C5         -0.5610    0.3560    1.3690 c3        1 XIM     -0.027000
      6 N1         -1.4320    0.0280    0.0990 n3        1 XIM     -0.145000
      7 C17        -2.7310   -0.0880   -0.1190 c1        1 XIM     -0.150000
      8 C18        -2.9290   -0.3020   -1.5310 c1        1 XIM     -0.176000
      9 N21        -1.6650   -0.3080   -2.1560 n2        1 XIM     -0.116000
     10 O2          1.3240   -1.2950   -1.9360 oh        1 XIM     -0.314000
     11 O3          2.9120    0.4580   -0.1180 oh        1 XIM     -0.335000
     12 O4          1.5950    0.3950    2.4120 oh        1 XIM     -0.324000
     13 H2          1.1770    0.6770   -1.7000 h4        1 XIM      0.143000
     14 H3          1.5910   -1.0390    0.3570 h1        1 XIM      0.099000
     15 H4          0.9210    1.5990    0.9140 h1        1 XIM      0.101000
     16 H51        -0.5910   -0.4330    1.9440 h1        1 XIM      0.114500
     17 H52        -0.9500    1.1500    1.7820 h1        1 XIM      0.114500
     18 H17        -3.4330   -0.0370    0.5580 DU        1 XIM      0.182500
     19 H18        -3.7890   -0.4210   -1.9770 DU        1 XIM      0.182500
     20 HO2         0.9320   -2.0160   -1.5980 ho        1 XIM      0.222000
     21 HO3         3.5120   -0.1760    0.0430 ho        1 XIM      0.230000
     22 HO4         1.6250    1.1420    2.8910 ho        1 XIM      0.231000
@<TRIPOS>BOND
     1    1    6 1   
     2    1    9 1   
     3    2    3 1   
     4    2   10 1   
     5    2   13 1   
     6    3    4 1   
     7    3   11 1   
     8    3   14 1   
     9    4    5 1   
    10    4   12 1   
    11    4   15 1   
    12    5    6 1   
    13    5   16 1   
    14    5   17 1   
    15    6    7 1   
    16    7    8 1   
    17    8    9 1   
    18   10   20 1   
    19   11   21 1   
    20   12   22 1   
@<TRIPOS>SUBSTRUCTURE
     1 XIM         1 TEMP              0 ****  ****    0 ROOT
