@<TRIPOS>MOLECULE
XIM
   22    23     1     0     0
SMALL
bcc


@<TRIPOS>ATOM
      1 C1          0.0590   -0.0180   -0.0140 cc        1 XIM      0.344800
      2 C2          1.5540    0.0440    0.0910 c3        1 XIM      0.101800
      3 C3          1.9930    0.0950    1.5680 c3        1 XIM      0.104100
      4 C4          1.1780    1.1420    2.3450 c3        1 XIM      0.141100
      5 C5         -0.3230    0.7800    2.3460 c3        1 XIM      0.034300
      6 N1         -0.7780    0.3670    1.0520 na        1 XIM     -0.187900
      7 C17        -2.0910    0.2240    0.6100 cc        1 XIM     -0.241600
      8 C18        -2.0060   -0.2440   -0.7170 cd        1 XIM      0.295200
      9 N21        -0.6750   -0.3880   -1.0950 nd        1 XIM     -0.664000
     10 O2          2.1900   -1.0990   -0.4530 oh        1 XIM     -0.602800
     11 O3          3.3480    0.4990    1.6640 oh        1 XIM     -0.609800
     12 O4          1.5610    1.1650    3.7090 oh        1 XIM     -0.596800
     13 H2          1.9190    0.9650   -0.4510 h1        1 XIM      0.069700
     14 H3          1.8670   -0.9220    2.0360 h1        1 XIM      0.073700
     15 H4          1.3430    2.1590    1.8910 h1        1 XIM      0.061700
     16 H51        -0.4940   -0.0510    3.0900 h1        1 XIM      0.075700
     17 H52        -0.9130    1.6790    2.6820 h1        1 XIM      0.075700
     18 H17        -2.9480    0.4560    1.2380 h4        1 XIM      0.181000
     19 H18        -2.8200   -0.4780   -1.4030 h4        1 XIM      0.045100
     20 HO2         1.8280   -1.2480   -1.3360 ho        1 XIM      0.436000
     21 HO3         3.8630   -0.1410    1.1530 ho        1 XIM      0.431000
     22 HO4         2.5230    1.2640    3.7230 ho        1 XIM      0.432000
@<TRIPOS>BOND
     1    1    2 1   
     2    1    6 1   
     3    1    9 2   
     4    2    3 1   
     5    2   10 1   
     6    2   13 1   
     7    3    4 1   
     8    3   11 1   
     9    3   14 1   
    10    4    5 1   
    11    4   12 1   
    12    4   15 1   
    13    5    6 1   
    14    5   16 1   
    15    5   17 1   
    16    6    7 1   
    17    7    8 2   
    18    7   18 1   
    19    8    9 1   
    20    8   19 1   
    21   10   20 1   
    22   11   21 1   
    23   12   22 1   
@<TRIPOS>SUBSTRUCTURE
     1 XIM         1 TEMP              0 ****  ****    0 ROOT
