@<TRIPOS>MOLECULE
XIM
   22    23     1     0     0
SMALL
bcc


@<TRIPOS>ATOM
      1 C1          0.0550   -0.0340   -0.0080 cc        1 XIM      0.344800
      2 C2          1.5510    0.0440    0.0870 c3        1 XIM      0.101800
      3 C3          1.9980    0.1140    1.5620 c3        1 XIM      0.104100
      4 C4          1.1780    1.1610    2.3330 c3        1 XIM      0.141100
      5 C5         -0.3200    0.7840    2.3460 c3        1 XIM      0.034300
      6 N1         -0.7780    0.3540    1.0590 na        1 XIM     -0.187900
      7 C17        -2.0930    0.1940    0.6270 cc        1 XIM     -0.241600
      8 C18        -2.0110   -0.2870   -0.6960 cd        1 XIM      0.295200
      9 N21        -0.6820   -0.4220   -1.0800 nd        1 XIM     -0.664000
     10 O2          2.1940   -1.0990   -0.4490 oh        1 XIM     -0.602800
     11 O3          3.3500    0.5330    1.6440 oh        1 XIM     -0.609800
     12 O4          1.5690    1.2010    3.6940 oh        1 XIM     -0.596800
     13 H2          1.9030    0.9630   -0.4660 h1        1 XIM      0.069700
     14 H3          1.8850   -0.8990    2.0400 h1        1 XIM      0.073700
     15 H4          1.3290    2.1740    1.8670 h1        1 XIM      0.061700
     16 H51        -0.9170    1.6800    2.6780 h1        1 XIM      0.075700
     17 H52        -0.4780   -0.0420    3.0990 h1        1 XIM      0.075700
     18 H17        -2.9480    0.4240    1.2590 h4        1 XIM      0.181000
     19 H18        -2.8270   -0.5360   -1.3730 h4        1 XIM      0.045100
     20 HO2         1.8290   -1.2600   -1.3280 ho        1 XIM      0.436000
     21 HO3         3.8680   -0.1070    1.1370 ho        1 XIM      0.431000
     22 HO4         2.5300    1.3100    3.7000 ho        1 XIM      0.432000
@<TRIPOS>BOND
     1    1    2 1   
     2    1    6 1   
     3    1    9 2   
     4    2    3 1   
     5    2   10 1   
     6    2   13 1   
     7    3    4 1   
     8    3   11 1   
     9    3   14 1   
    10    4    5 1   
    11    4   12 1   
    12    4   15 1   
    13    5    6 1   
    14    5   16 1   
    15    5   17 1   
    16    6    7 1   
    17    7    8 2   
    18    7   18 1   
    19    8    9 1   
    20    8   19 1   
    21   10   20 1   
    22   11   21 1   
    23   12   22 1   
@<TRIPOS>SUBSTRUCTURE
     1 XIM         1 TEMP              0 ****  ****    0 ROOT
