@<TRIPOS>MOLECULE
XIM
   22    23     1     0     0
SMALL
bcc


@<TRIPOS>ATOM
      1 C1          1.0640   -0.4450    0.1420 cc        1 XIM      0.344800
      2 C2         -0.2260   -1.1870    0.3330 c3        1 XIM      0.101800
      3 C3         -1.4140   -0.3570   -0.1950 c3        1 XIM      0.104100
      4 C4         -1.3400    1.0910    0.3170 c3        1 XIM      0.141100
      5 C5         -0.0580    1.7880   -0.1900 c3        1 XIM      0.034300
      6 N1          1.0960    0.9480   -0.0660 na        1 XIM     -0.187900
      7 C17         2.4370    1.3130   -0.1660 cc        1 XIM     -0.241600
      8 C18         3.1760    0.1230   -0.0130 cd        1 XIM      0.295200
      9 N21         2.3210   -0.9570    0.1790 nd        1 XIM     -0.664000
     10 O2         -0.2690   -2.4070   -0.3850 oh        1 XIM     -0.602800
     11 O3         -2.6360   -0.8850    0.2920 oh        1 XIM     -0.609800
     12 O4         -2.4140    1.8600   -0.1950 oh        1 XIM     -0.596800
     13 H2         -0.3640   -1.3980    1.4340 h1        1 XIM      0.069700
     14 H3         -1.4160   -0.3730   -1.3200 h1        1 XIM      0.073700
     15 H4         -1.3770    1.0950    1.4420 h1        1 XIM      0.061700
     16 H51        -0.2050    2.0720   -1.2720 h1        1 XIM      0.075700
     17 H52         0.1000    2.7330    0.4020 h1        1 XIM      0.075700
     18 H17         2.7520    2.3410   -0.3280 h4        1 XIM      0.181000
     19 H18         4.2580   -0.0050   -0.0300 h4        1 XIM      0.045100
     20 HO2         0.5400   -2.8960   -0.1870 ho        1 XIM      0.436000
     21 HO3        -2.6750   -1.8050   -0.0040 ho        1 XIM      0.431000
     22 HO4        -3.2230    1.3690    0.0050 ho        1 XIM      0.432000
@<TRIPOS>BOND
     1    1    2 1   
     2    1    6 1   
     3    1    9 2   
     4    2    3 1   
     5    2   10 1   
     6    2   13 1   
     7    3    4 1   
     8    3   11 1   
     9    3   14 1   
    10    4    5 1   
    11    4   12 1   
    12    4   15 1   
    13    5    6 1   
    14    5   16 1   
    15    5   17 1   
    16    6    7 1   
    17    7    8 2   
    18    7   18 1   
    19    8    9 1   
    20    8   19 1   
    21   10   20 1   
    22   11   21 1   
    23   12   22 1   
@<TRIPOS>SUBSTRUCTURE
     1 XIM         1 TEMP              0 ****  ****    0 ROOT
