@<TRIPOS>MOLECULE
XIN
   73    77     1     0     0
SMALL
bcc


@<TRIPOS>ATOM
      1 C1          0.2830    0.3030    0.3210 cc        1 XIN     -0.288400
      2 C2          1.7020   -0.0210    0.2290 ca        1 XIN     -0.013800
      3 C3         -0.5250    0.9820   -0.5660 cf        1 XIN      0.326800
      4 C4         -0.1840   -0.2740    1.6190 c         1 XIN      0.720700
      5 C5          2.0550   -0.7500    1.4310 ca        1 XIN      0.026600
      6 C6          2.6770    0.2190   -0.7220 ca        1 XIN     -0.125000
      7 C7          0.0460    1.4960   -1.8350 ca        1 XIN     -0.096800
      8 C11         3.3490   -1.2040    1.6470 ca        1 XIN     -0.112000
      9 C12         3.9820   -0.2410   -0.5060 ca        1 XIN     -0.090000
     10 C15        -2.7910    1.8040   -1.1510 ca        1 XIN      0.112600
     11 C16         4.3130   -0.9380    0.6570 ca        1 XIN     -0.119600
     12 C17         1.3180    3.1630   -3.0390 ca        1 XIN     -0.133500
     13 C18         0.4400    1.2370   -4.2060 ca        1 XIN     -0.133500
     14 C19        -4.0440    1.1850   -1.3580 ca        1 XIN     -0.129500
     15 C21         5.6800   -1.4220    0.8930 c         1 XIN      0.646700
     16 C23        -5.0180    1.7930   -2.1380 ca        1 XIN     -0.128500
     17 C24        -3.5210    3.6540   -2.5490 ca        1 XIN     -0.128500
     18 O25         6.5690   -1.1260   -0.1100 os        1 XIN     -0.439900
     19 O26         6.1100   -2.0480    1.8670 o         1 XIN     -0.548000
     20 C27        -4.7770    3.0420   -2.7490 ca        1 XIN      0.054600
     21 C30        -6.5320    2.9610   -4.4660 c         1 XIN      0.664100
     22 C31        -5.8640    5.1120   -3.4570 c3        1 XIN      0.079300
     23 C32        -7.5120    3.7850   -5.3120 c3        1 XIN      0.111800
     24 C35        -9.4350    3.7700   -6.7510 c3        1 XIN      0.164300
     25 C36        -7.5320    2.3740   -7.2900 c3        1 XIN      0.164300
     26 C37       -10.2970    2.9720   -7.7470 c3        1 XIN      0.168800
     27 C38        -8.3980    1.5840   -8.2880 c3        1 XIN      0.168800
     28 C40       -10.3310    1.6040   -9.7320 c3        1 XIN      0.157100
     29 O33        -6.3960    1.7320   -4.5720 o         1 XIN     -0.569100
     30 N34        -8.3130    2.9970   -6.2310 n3        1 XIN     -0.716600
     31 N39        -9.5140    2.3610   -8.8110 n3        1 XIN     -0.734600
     32 N29        -5.7750    3.6800   -3.5290 n         1 XIN     -0.399000
     33 C20        -2.5520    3.0530   -1.7550 ca        1 XIN     -0.129500
     34 N8         -1.8540    1.1870   -0.2970 nu        1 XIN     -0.624400
     35 C14        -0.1170    0.7650   -3.0170 ca        1 XIN     -0.101000
     36 C22         1.1560    2.4340   -4.2180 ca        1 XIN     -0.115000
     37 C13         0.7640    2.6980   -1.8470 ca        1 XIN     -0.101000
     38 C28         7.9100   -1.5790    0.0760 c3        1 XIN      0.128700
     39 N9          0.9200   -0.8840    2.2470 ns        1 XIN     -0.469100
     40 O10        -1.3240   -0.2620    2.1190 o         1 XIN     -0.659500
     41 H6          2.4370    0.7660   -1.6470 ha        1 XIN      0.147000
     42 H11         3.6340   -1.7570    2.5550 ha        1 XIN      0.161000
     43 H12         4.7580   -0.0500   -1.2640 ha        1 XIN      0.152000
     44 H17         1.8840    4.1060   -3.0470 ha        1 XIN      0.140000
     45 H18         0.3110    0.6620   -5.1340 ha        1 XIN      0.140000
     46 H19        -4.2660    0.2100   -0.8960 ha        1 XIN      0.146000
     47 H23        -5.9780    1.2750   -2.2990 ha        1 XIN      0.150500
     48 H24        -3.2890    4.6220   -3.0200 ha        1 XIN      0.150500
     49 H31        -6.9400    5.4300   -3.3940 h1        1 XIN      0.043700
     50 H31A       -5.3390    5.4890   -2.5390 h1        1 XIN      0.043700
     51 H31B       -5.3990    5.5910   -4.3620 h1        1 XIN      0.043700
     52 H32        -8.2250    4.2970   -4.6010 h1        1 XIN      0.054700
     53 H32A       -6.9120    4.5820   -5.8480 h1        1 XIN      0.054700
     54 H35        -9.0890    4.7210   -7.2530 h1        1 XIN      0.042950
     55 H35A      -10.0940    4.0550   -5.8830 h1        1 XIN      0.042950
     56 H36        -6.9290    3.1390   -7.8620 h1        1 XIN      0.042950
     57 H36A       -6.8180    1.6490   -6.8060 h1        1 XIN      0.042950
     58 H37       -10.8940    2.2040   -7.1730 h1        1 XIN      0.039950
     59 H37A      -11.0230    3.6900   -8.2220 h1        1 XIN      0.039950
     60 H38        -7.7430    1.2970   -9.1570 h1        1 XIN      0.039950
     61 H38A       -8.7490    0.6340   -7.7880 h1        1 XIN      0.039950
     62 H40       -10.8410    0.7220   -9.2570 h1        1 XIN      0.032700
     63 H40A       -9.6810    1.2320  -10.5670 h1        1 XIN      0.032700
     64 H40B      -11.1150    2.2820  -10.1590 h1        1 XIN      0.032700
     65 H20        -1.5860    3.5630   -1.6130 ha        1 XIN      0.146000
     66 HN8        -2.2400    0.7380    0.5150 hn        1 XIN      0.480800
     67 H14        -0.6820   -0.1790   -3.0090 ha        1 XIN      0.146500
     68 H22         1.5940    2.8040   -5.1570 ha        1 XIN      0.137000
     69 H13         0.8970    3.2690   -0.9140 ha        1 XIN      0.146500
     70 H28         8.3440   -1.1170    0.9950 h1        1 XIN      0.050033
     71 H28A        8.4350   -1.2310   -0.8470 h1        1 XIN      0.050033
     72 H28B        7.9280   -2.6920    0.1640 h1        1 XIN      0.050033
     73 HN9         0.8990   -1.3560    3.1110 hn        1 XIN      0.342500
@<TRIPOS>BOND
     1    1    2 1   
     2    1    3 2   
     3    1    4 1   
     4    2    5 ar  
     5    2    6 ar  
     6    3    7 1   
     7    3   34 1   
     8    4   39 1   
     9    4   40 2   
    10    5    8 ar  
    11    5   39 1   
    12    6    9 ar  
    13    6   41 1   
    14    7   35 ar  
    15    7   37 ar  
    16    8   11 ar  
    17    8   42 1   
    18    9   11 ar  
    19    9   43 1   
    20   10   14 ar  
    21   10   33 ar  
    22   10   34 1   
    23   11   15 1   
    24   12   36 ar  
    25   12   37 ar  
    26   12   44 1   
    27   13   35 ar  
    28   13   36 ar  
    29   13   45 1   
    30   14   16 ar  
    31   14   46 1   
    32   15   18 1   
    33   15   19 2   
    34   16   20 ar  
    35   16   47 1   
    36   17   20 ar  
    37   17   33 ar  
    38   17   48 1   
    39   18   38 1   
    40   20   32 1   
    41   21   23 1   
    42   21   29 2   
    43   21   32 1   
    44   22   32 1   
    45   22   49 1   
    46   22   50 1   
    47   22   51 1   
    48   23   30 1   
    49   23   52 1   
    50   23   53 1   
    51   24   26 1   
    52   24   30 1   
    53   24   54 1   
    54   24   55 1   
    55   25   27 1   
    56   25   30 1   
    57   25   56 1   
    58   25   57 1   
    59   26   31 1   
    60   26   58 1   
    61   26   59 1   
    62   27   31 1   
    63   27   60 1   
    64   27   61 1   
    65   28   31 1   
    66   28   62 1   
    67   28   63 1   
    68   28   64 1   
    69   33   65 1   
    70   34   66 1   
    71   35   67 1   
    72   36   68 1   
    73   37   69 1   
    74   38   70 1   
    75   38   71 1   
    76   38   72 1   
    77   39   73 1   
@<TRIPOS>SUBSTRUCTURE
     1 XIN         1 TEMP              0 ****  ****    0 ROOT
