@<TRIPOS>MOLECULE
XIN
   75    79     1     0     0
SMALL
bcc


@<TRIPOS>ATOM
      1 C1         -0.3390    0.1920   -0.1550 cc        1 XIN     -0.005400
      2 C2          1.1150    0.2730   -0.0710 ca        1 XIN     -0.135800
      3 C3         -1.1290   -0.3750   -1.0930 cf        1 XIN      0.045800
      4 C4         -0.8430    0.8750    1.1230 c         1 XIN      0.694700
      5 C5          1.4420    0.9530    1.1600 ca        1 XIN      0.049600
      6 C6          2.1310   -0.1760   -0.8980 ca        1 XIN     -0.046000
      7 C7         -0.6620   -1.0600   -2.3030 ca        1 XIN     -0.144800
      8 C11         2.7600    1.1750    1.5340 ca        1 XIN     -0.095000
      9 C12         3.4640    0.0450   -0.5210 ca        1 XIN     -0.096000
     10 C15        -3.3290    0.6310   -1.6370 ca        1 XIN      0.011600
     11 C16         3.7690    0.7080    0.6680 ca        1 XIN     -0.043600
     12 C17         0.3560   -1.0060   -4.4960 ca        1 XIN     -0.120000
     13 C18        -0.2940   -3.1210   -3.5180 ca        1 XIN     -0.120000
     14 C19        -3.8540    1.7260   -0.9290 ca        1 XIN     -0.081000
     15 C21         5.1720    0.9500    1.0750 c         1 XIN      0.627700
     16 C23        -4.5890    2.7000   -1.6030 ca        1 XIN     -0.087500
     17 C24        -4.2690    1.4950   -3.6950 ca        1 XIN     -0.087500
     18 O25         6.0970    0.4350    0.2170 os        1 XIN     -0.431900
     19 O26         5.5490    1.5520    2.0810 o         1 XIN     -0.502000
     20 C27        -4.8060    2.5870   -2.9870 ca        1 XIN      0.005600
     21 C30        -7.0340    3.6960   -3.1970 c         1 XIN      0.542100
     22 C31        -4.9490    4.9420   -3.6280 c3        1 XIN      0.092100
     23 C32        -8.1630    3.6220   -4.2250 c3        1 XIN      0.113800
     24 C35        -8.1550    2.5090   -6.3800 c3        1 XIN      0.162300
     25 C36        -7.9830    4.9410   -6.2500 c3        1 XIN      0.162300
     26 C37        -7.6880    2.5730   -7.8490 c3        1 XIN      0.171800
     27 C38        -7.5200    4.9690   -7.7210 c3        1 XIN      0.171800
     28 C40        -7.6970    3.8890   -9.8820 c3        1 XIN      0.155100
     29 O33        -7.1790    3.8380   -1.9950 o         1 XIN     -0.419100
     30 N34        -7.7170    3.6610   -5.5930 n3        1 XIN     -0.790600
     31 N39        -8.0260    3.8370   -8.4760 n3        1 XIN     -0.734600
     32 N29        -5.5890    3.6000   -3.7080 n4        1 XIN     -0.477600
     33 C20        -3.5310    0.5230   -3.0250 ca        1 XIN     -0.081000
     34 N8         -2.6010   -0.4190   -0.9130 n4        1 XIN     -0.531200
     35 C14        -0.7570   -2.4580   -2.3830 ca        1 XIN     -0.108500
     36 C22         0.2610   -2.3970   -4.5750 ca        1 XIN     -0.077000
     37 C13        -0.1040   -0.3340   -3.3640 ca        1 XIN     -0.108500
     38 C28         7.4740    0.6320    0.5720 c3        1 XIN      0.124700
     39 N9          0.2550    1.3130    1.8430 n         1 XIN     -0.425100
     40 O10        -2.0410    1.0070    1.4370 o         1 XIN     -0.657500
     41 H6          1.9040   -0.7020   -1.8390 ha        1 XIN      0.159000
     42 H11         3.0360    1.6930    2.4690 ha        1 XIN      0.194000
     43 H12         4.2840   -0.3120   -1.1690 ha        1 XIN      0.186000
     44 H17         0.8060   -0.4360   -5.3250 ha        1 XIN      0.167000
     45 H18        -0.3570   -4.2210   -3.5750 ha        1 XIN      0.167000
     46 H19        -3.6950    1.8370    0.1650 ha        1 XIN      0.200500
     47 H23        -5.0110    3.5420   -1.0210 ha        1 XIN      0.187500
     48 H24        -4.4170    1.3850   -4.7850 ha        1 XIN      0.187500
     49 H31        -4.9660    5.3040   -2.5650 hx        1 XIN      0.109700
     50 H31A       -5.5290    5.6520   -4.2810 hx        1 XIN      0.109700
     51 H31B       -3.8890    4.8780   -3.9900 hx        1 XIN      0.109700
     52 H32        -8.8470    4.4870   -3.9560 h1        1 XIN      0.123700
     53 H32A       -8.7130    2.6620   -3.9780 h1        1 XIN      0.123700
     54 H35        -9.2790    2.4110   -6.3650 h1        1 XIN      0.052950
     55 H35A       -7.7150    1.5840   -5.9130 h1        1 XIN      0.052950
     56 H36        -9.0820    5.1950   -6.2150 h1        1 XIN      0.052950
     57 H36A       -7.4200    5.7390   -5.6910 h1        1 XIN      0.052950
     58 H37        -6.5790    2.3620   -7.8870 h1        1 XIN      0.049450
     59 H37A       -8.2170    1.7510   -8.4070 h1        1 XIN      0.049450
     60 H38        -6.3920    5.0290   -7.7480 h1        1 XIN      0.049450
     61 H38A       -7.9280    5.9120   -8.1850 h1        1 XIN      0.049450
     62 H40        -8.0820    4.8550  -10.3050 h1        1 XIN      0.050700
     63 H40A       -6.5930    3.8210  -10.0800 h1        1 XIN      0.050700
     64 H40B       -8.2120    3.0390  -10.4030 h1        1 XIN      0.050700
     65 H20        -3.1060   -0.3200   -3.5990 ha        1 XIN      0.200500
     66 HN8        -2.9240   -1.3370   -1.2570 hn        1 XIN      0.482300
     67 H14        -1.1630   -3.0400   -1.5410 ha        1 XIN      0.144500
     68 H22         0.6340   -2.9250   -5.4690 ha        1 XIN      0.170000
     69 H13        -0.0100    0.7610   -3.2970 ha        1 XIN      0.144500
     70 H28         7.6810    0.1510    1.5590 h1        1 XIN      0.066700
     71 H28A        8.0260    0.1270   -0.2590 h1        1 XIN      0.066700
     72 H28B        7.6990    1.7240    0.6170 h1        1 XIN      0.066700
     73 HN9         0.2240    1.7380    2.7390 hn        1 XIN      0.380500
     74 H291       -5.6310    3.3240   -4.7050 hn        1 XIN      0.485800
     75 H82        -2.8280   -0.3340    0.1000 hn        1 XIN      0.482300
@<TRIPOS>BOND
     1    1    2 1   
     2    1    3 2   
     3    1    4 1   
     4    2    5 ar  
     5    2    6 ar  
     6    3    7 1   
     7    3   34 1   
     8    4   39 1   
     9    4   40 2   
    10    5    8 ar  
    11    5   39 1   
    12    6    9 ar  
    13    6   41 1   
    14    7   35 ar  
    15    7   37 ar  
    16    8   11 ar  
    17    8   42 1   
    18    9   11 ar  
    19    9   43 1   
    20   10   14 ar  
    21   10   33 ar  
    22   10   34 1   
    23   11   15 1   
    24   12   36 ar  
    25   12   37 ar  
    26   12   44 1   
    27   13   35 ar  
    28   13   36 ar  
    29   13   45 1   
    30   14   16 ar  
    31   14   46 1   
    32   15   18 1   
    33   15   19 2   
    34   16   20 ar  
    35   16   47 1   
    36   17   20 ar  
    37   17   33 ar  
    38   17   48 1   
    39   18   38 1   
    40   20   32 1   
    41   21   23 1   
    42   21   29 2   
    43   21   32 1   
    44   22   32 1   
    45   22   49 1   
    46   22   50 1   
    47   22   51 1   
    48   23   30 1   
    49   23   52 1   
    50   23   53 1   
    51   24   26 1   
    52   24   30 1   
    53   24   54 1   
    54   24   55 1   
    55   25   27 1   
    56   25   30 1   
    57   25   56 1   
    58   25   57 1   
    59   26   31 1   
    60   26   58 1   
    61   26   59 1   
    62   27   31 1   
    63   27   60 1   
    64   27   61 1   
    65   28   31 1   
    66   28   62 1   
    67   28   63 1   
    68   28   64 1   
    69   32   74 1   
    70   33   65 1   
    71   34   66 1   
    72   34   75 1   
    73   35   67 1   
    74   36   68 1   
    75   37   69 1   
    76   38   70 1   
    77   38   71 1   
    78   38   72 1   
    79   39   73 1   
@<TRIPOS>SUBSTRUCTURE
     1 XIN         1 TEMP              0 ****  ****    0 ROOT
