@<TRIPOS>MOLECULE
XIN
   73    77     1     0     0
SMALL
bcc


@<TRIPOS>ATOM
      1 C1         -3.4770    1.2690   -0.4150 cc        1 XIN     -0.288400
      2 C2         -4.7000    0.4740   -0.3910 ca        1 XIN     -0.013800
      3 C3         -2.2130    0.9540    0.0360 cf        1 XIN      0.326800
      4 C4         -3.8450    2.5640   -1.0660 c         1 XIN      0.720700
      5 C5         -5.7450    1.2760   -0.9950 ca        1 XIN      0.026600
      6 C6         -5.0040   -0.7980    0.0600 ca        1 XIN     -0.125000
      7 C7         -1.9620   -0.3720    0.6520 ca        1 XIN     -0.096800
      8 C11        -7.0420    0.7960   -1.1230 ca        1 XIN     -0.112000
      9 C12        -6.3110   -1.2830   -0.0700 ca        1 XIN     -0.090000
     10 C15         0.1650    1.6170    0.2820 ca        1 XIN      0.112600
     11 C16        -7.3120   -0.5020   -0.6490 ca        1 XIN     -0.119600
     12 C17        -2.0830   -1.8570    2.5560 ca        1 XIN     -0.133500
     13 C18        -1.1880   -2.6540    0.4580 ca        1 XIN     -0.133500
     14 C19         1.1890    1.9720   -0.6230 ca        1 XIN     -0.129500
     15 C21        -8.6870   -1.0020   -0.7880 c         1 XIN      0.646700
     16 C23         2.5250    1.8230   -0.2810 ca        1 XIN     -0.128500
     17 C24         1.8680    0.9400    1.8790 ca        1 XIN     -0.128500
     18 O25        -8.8800   -2.2720   -0.3040 os        1 XIN     -0.439900
     19 O26        -9.6630   -0.4250   -1.2780 o         1 XIN     -0.548000
     20 C27         2.8930    1.3040    0.9800 ca        1 XIN      0.054600
     21 C30         5.1980    0.6410    0.4500 c         1 XIN      0.664100
     22 C31         4.6080    1.4220    2.7160 c3        1 XIN      0.079300
     23 C32         6.6190    0.4580    1.0010 c3        1 XIN      0.111800
     24 C35         8.9450    0.1240    0.4990 c3        1 XIN      0.164300
     25 C36         7.2990   -1.4030   -0.4070 c3        1 XIN      0.164300
     26 C37         9.9870   -0.4130   -0.5000 c3        1 XIN      0.168800
     27 C38         8.3470   -1.9390   -1.3990 c3        1 XIN      0.168800
     28 C40        10.6900   -2.2690   -1.8680 c3        1 XIN      0.157100
     29 O33         4.8680    0.3560   -0.7120 o         1 XIN     -0.569100
     30 N34         7.5750   -0.0400    0.0280 n3        1 XIN     -0.716600
     31 N39         9.7140   -1.7790   -0.9220 n3        1 XIN     -0.734600
     32 N29         4.2560    1.1690    1.3460 n         1 XIN     -0.399000
     33 C20         0.5310    1.1050    1.5410 ca        1 XIN     -0.129500
     34 N8         -1.1800    1.8470   -0.0770 nh        1 XIN     -0.624400
     35 C14        -1.4030   -1.4000   -0.1150 ca        1 XIN     -0.101000
     36 C22        -1.5270   -2.8830    1.7910 ca        1 XIN     -0.115000
     37 C13        -2.3020   -0.6010    1.9920 ca        1 XIN     -0.101000
     38 C28       -10.2020   -2.8000   -0.4200 c3        1 XIN      0.128700
     39 N9         -5.2170    2.5170   -1.3840 n         1 XIN     -0.469100
     40 O10        -3.1260    3.5470   -1.3200 o         1 XIN     -0.659500
     41 H6         -4.2310   -1.4310    0.5200 ha        1 XIN      0.147000
     42 H11        -7.8470    1.3920   -1.5780 ha        1 XIN      0.161000
     43 H12        -6.5540   -2.2960    0.2900 ha        1 XIN      0.152000
     44 H17        -2.3530   -2.0370    3.6080 ha        1 XIN      0.140000
     45 H18        -0.7490   -3.4610   -0.1470 ha        1 XIN      0.140000
     46 H19         0.9380    2.3810   -1.6160 ha        1 XIN      0.146000
     47 H23         3.3020    2.0900   -1.0160 ha        1 XIN      0.150500
     48 H24         2.1140    0.5180    2.8660 ha        1 XIN      0.150500
     49 H31         4.7620    0.4610    3.2770 h1        1 XIN      0.043700
     50 H31A        5.5540    2.0260    2.7670 h1        1 XIN      0.043700
     51 H31B        3.7970    2.0090    3.2230 h1        1 XIN      0.043700
     52 H32         6.9840    1.4720    1.3380 h1        1 XIN      0.054700
     53 H32A        6.5490   -0.2140    1.9090 h1        1 XIN      0.054700
     54 H35         9.1060   -0.3800    1.4970 h1        1 XIN      0.042950
     55 H35A        9.1370    1.2260    0.6310 h1        1 XIN      0.042950
     56 H36         6.3010   -1.3990   -0.9310 h1        1 XIN      0.042950
     57 H36A        7.2370   -2.1110    0.4710 h1        1 XIN      0.042950
     58 H37        10.0410    0.2940   -1.3790 h1        1 XIN      0.039950
     59 H37A       10.9890   -0.4050    0.0140 h1        1 XIN      0.039950
     60 H38         8.1580   -3.0410   -1.5340 h1        1 XIN      0.039950
     61 H38A        8.1910   -1.4340   -2.3970 h1        1 XIN      0.039950
     62 H40        11.7100   -2.1950   -1.4070 h1        1 XIN      0.032700
     63 H40A       10.4700   -3.3470   -2.0870 h1        1 XIN      0.032700
     64 H40B       10.6960   -1.7020   -2.8400 h1        1 XIN      0.032700
     65 H20        -0.2450    0.8190    2.2700 ha        1 XIN      0.146000
     66 HN8        -1.3500    2.6930   -0.5930 hn        1 XIN      0.480800
     67 H14        -1.1350   -1.2200   -1.1670 ha        1 XIN      0.146500
     68 H22        -1.3560   -3.8730    2.2400 ha        1 XIN      0.137000
     69 H13        -2.7470    0.2070    2.5920 ha        1 XIN      0.146500
     70 H28       -10.1170   -3.8200    0.0280 h1        1 XIN      0.050033
     71 H28A      -10.9190   -2.1610    0.1470 h1        1 XIN      0.050033
     72 H28B      -10.5010   -2.8480   -1.4950 h1        1 XIN      0.050033
     73 HN9        -5.7260    3.2310   -1.8340 hn        1 XIN      0.342500
@<TRIPOS>BOND
     1    1    2 1   
     2    1    3 2   
     3    1    4 1   
     4    2    5 ar  
     5    2    6 ar  
     6    3    7 1   
     7    3   34 1   
     8    4   39 1   
     9    4   40 2   
    10    5    8 ar  
    11    5   39 1   
    12    6    9 ar  
    13    6   41 1   
    14    7   35 ar  
    15    7   37 ar  
    16    8   11 ar  
    17    8   42 1   
    18    9   11 ar  
    19    9   43 1   
    20   10   14 ar  
    21   10   33 ar  
    22   10   34 1   
    23   11   15 1   
    24   12   36 ar  
    25   12   37 ar  
    26   12   44 1   
    27   13   35 ar  
    28   13   36 ar  
    29   13   45 1   
    30   14   16 ar  
    31   14   46 1   
    32   15   18 1   
    33   15   19 2   
    34   16   20 ar  
    35   16   47 1   
    36   17   20 ar  
    37   17   33 ar  
    38   17   48 1   
    39   18   38 1   
    40   20   32 1   
    41   21   23 1   
    42   21   29 2   
    43   21   32 1   
    44   22   32 1   
    45   22   49 1   
    46   22   50 1   
    47   22   51 1   
    48   23   30 1   
    49   23   52 1   
    50   23   53 1   
    51   24   26 1   
    52   24   30 1   
    53   24   54 1   
    54   24   55 1   
    55   25   27 1   
    56   25   30 1   
    57   25   56 1   
    58   25   57 1   
    59   26   31 1   
    60   26   58 1   
    61   26   59 1   
    62   27   31 1   
    63   27   60 1   
    64   27   61 1   
    65   28   31 1   
    66   28   62 1   
    67   28   63 1   
    68   28   64 1   
    69   33   65 1   
    70   34   66 1   
    71   35   67 1   
    72   36   68 1   
    73   37   69 1   
    74   38   70 1   
    75   38   71 1   
    76   38   72 1   
    77   39   73 1   
@<TRIPOS>SUBSTRUCTURE
     1 XIN         1 TEMP              0 ****  ****    0 ROOT
