@<TRIPOS>MOLECULE
XIX
   12    12     1     0     0
SMALL
bcc


@<TRIPOS>ATOM
      1 N1          0.0220   -0.1530   -0.0500 nc        1 XIX     -0.591800
      2 N2          1.3620   -0.2280    0.0090 na        1 XIX     -0.175400
      3 N4          3.1530    0.1970    1.6990 nv        1 XIX     -0.890500
      4 C6         -0.3890    0.0670    1.2530 cd        1 XIX      0.738900
      5 N7          0.7150    0.1800    2.1640 nd        1 XIX     -0.749000
      6 N8         -1.7200    0.2520    1.6510 nv        1 XIX     -0.881500
      7 C2          1.8040    0.0590    1.3460 cc        1 XIX      0.620400
      8 H2          1.8750    0.0150   -0.8100 hn        1 XIX      0.310700
      9 H41N        3.7630   -0.4030    1.1840 hn        1 XIX      0.406800
     10 H42N        3.3010    0.1420    2.6870 hn        1 XIX      0.406800
     11 H81N       -1.8660    0.0900    2.6250 hn        1 XIX      0.403300
     12 H82N       -2.3760   -0.2240    1.0690 hn        1 XIX      0.403300
@<TRIPOS>BOND
     1    1    2 1   
     2    1    4 2   
     3    2    7 1   
     4    2    8 1   
     5    3    7 1   
     6    3    9 1   
     7    3   10 1   
     8    4    5 1   
     9    4    6 1   
    10    5    7 2   
    11    6   11 1   
    12    6   12 1   
@<TRIPOS>SUBSTRUCTURE
     1 XIX         1 TEMP              0 ****  ****    0 ROOT
