@<TRIPOS>MOLECULE
XIX
   14    14     1     0     0
SMALL
bcc


@<TRIPOS>ATOM
      1 N1          0.0490    0.2000   -0.0810 nc        1 XIX     -0.337800
      2 N2          1.3560    0.2060   -0.0180 na        1 XIX     -0.057400
      3 N4          3.1730    0.0010    1.7740 n4        1 XIX     -0.795300
      4 C6         -0.3830    0.0300    1.2380 cd        1 XIX      0.565900
      5 N7          0.6890   -0.0730    2.1510 nd        1 XIX     -0.537000
      6 N8         -1.7820   -0.0350    1.6410 n4        1 XIX     -0.780300
      7 C2          1.7850    0.0420    1.3330 cc        1 XIX      0.467400
      8 H2          1.9070    0.3180   -0.8620 hn        1 XIX      0.409700
      9 H41N        3.2030   -0.1260    2.8070 hn        1 XIX      0.513133
     10 H42N        3.6650   -0.7930    1.3280 hn        1 XIX      0.513133
     11 H81N       -1.9820    0.7270    2.3120 hn        1 XIX      0.508800
     12 H82N       -1.9660   -0.9480    2.0940 hn        1 XIX      0.508800
     13 H43         3.6480    0.8890    1.5360 hn        1 XIX      0.513133
     14 H83        -2.3970    0.0660    0.8140 hn        1 XIX      0.508800
@<TRIPOS>BOND
     1    1    2 1   
     2    1    4 2   
     3    2    7 1   
     4    2    8 1   
     5    3    7 1   
     6    3    9 1   
     7    3   10 1   
     8    3   13 1   
     9    4    5 1   
    10    4    6 1   
    11    5    7 2   
    12    6   11 1   
    13    6   12 1   
    14    6   14 1   
@<TRIPOS>SUBSTRUCTURE
     1 XIX         1 TEMP              0 ****  ****    0 ROOT
