@<TRIPOS>MOLECULE
XIX
   12    12     1     0     0
SMALL
bcc


@<TRIPOS>ATOM
      1 N1          0.6860   -1.2160    0.0560 nc        1 XIX     -0.582800
      2 N2         -0.6530   -1.1600    0.0490 na        1 XIX     -0.177400
      3 N4         -2.4380    0.5620   -0.2100 nh        1 XIX     -0.887500
      4 C6          1.0990    0.1070    0.0650 cd        1 XIX      0.729900
      5 N7         -0.0010    1.0230    0.0010 nd        1 XIX     -0.746000
      6 N8          2.4260    0.5290    0.2390 nh        1 XIX     -0.879500
      7 C2         -1.0910    0.1950   -0.0480 cc        1 XIX      0.616400
      8 H2         -1.1700   -1.9640   -0.2250 hn        1 XIX      0.318700
      9 H41N       -3.0600    0.0140    0.3490 hn        1 XIX      0.402800
     10 H42N       -2.5790    1.5440   -0.0760 hn        1 XIX      0.402800
     11 H81N        3.0940   -0.1320   -0.0990 hn        1 XIX      0.401300
     12 H82N        2.5870    1.4540   -0.1000 hn        1 XIX      0.401300
@<TRIPOS>BOND
     1    1    2 1   
     2    1    4 2   
     3    2    7 1   
     4    2    8 1   
     5    3    7 1   
     6    3    9 1   
     7    3   10 1   
     8    4    5 1   
     9    4    6 1   
    10    5    7 2   
    11    6   11 1   
    12    6   12 1   
@<TRIPOS>SUBSTRUCTURE
     1 XIX         1 TEMP              0 ****  ****    0 ROOT
