@<TRIPOS>MOLECULE
XIY
   19    20     1     0     0
SMALL
bcc


@<TRIPOS>ATOM
      1 NG         -0.5730    1.3930    0.0010 nc        1 XIY     -0.573100
      2 CD1        -1.4580    0.3690    0.0000 cd        1 XIY      0.406800
      3 NE1        -0.8320   -0.8950   -0.0000 na        1 XIY     -0.258300
      4 CE2         0.5430   -0.6580    0.0000 ca        1 XIY     -0.074200
      5 CZ2         1.6560   -1.5100   -0.0000 ca        1 XIY     -0.133000
      6 CH2         2.9090   -0.9190    0.0000 ca        1 XIY     -0.114000
      7 CZ3         3.0710    0.4790    0.0010 ca        1 XIY     -0.154000
      8 CE3         1.9860    1.3420    0.0010 ca        1 XIY     -0.070000
      9 CD2         0.6970    0.7880    0.0000 ca        1 XIY      0.066400
     10 C          -2.9480    0.5550    0.0000 c3        1 XIY      0.118100
     11 O          -3.5780   -0.7180    0.0000 oh        1 XIY     -0.612800
     12 HE1        -1.2950   -1.7640   -0.0000 hn        1 XIY      0.318700
     13 HC1        -3.2450    1.1320    0.9190 h1        1 XIY      0.058200
     14 HC2        -3.2450    1.1310   -0.9200 h1        1 XIY      0.058200
     15 HZ2         1.5370   -2.6010   -0.0000 ha        1 XIY      0.135000
     16 HH2         3.8060   -1.5570    0.0000 ha        1 XIY      0.131000
     17 HZ3         4.0900    0.8930    0.0010 ha        1 XIY      0.132000
     18 HE3         2.1210    2.4330    0.0010 ha        1 XIY      0.147000
     19 H          -4.5270   -0.5470    0.0010 ho        1 XIY      0.418000
@<TRIPOS>BOND
     1    1    2 2   
     2    1    9 1   
     3    2    3 1   
     4    2   10 1   
     5    3    4 1   
     6    3   12 1   
     7    4    5 ar  
     8    4    9 ar  
     9    5    6 ar  
    10    5   15 1   
    11    6    7 ar  
    12    6   16 1   
    13    7    8 ar  
    14    7   17 1   
    15    8    9 ar  
    16    8   18 1   
    17   10   11 1   
    18   10   13 1   
    19   10   14 1   
    20   11   19 1   
@<TRIPOS>SUBSTRUCTURE
     1 XIY         1 TEMP              0 ****  ****    0 ROOT
