@<TRIPOS>MOLECULE
XIZ
   17    17     1     0     0
SMALL
bcc


@<TRIPOS>ATOM
      1 C1          2.9950   -0.0470    0.0010 c         1 XIZ      0.888800
      2 O1          3.2820   -1.2770   -0.0010 o         1 XIZ     -0.827800
      3 O2          3.8480    0.8850    0.0020 o         1 XIZ     -0.827800
      4 C2          1.5350    0.3660    0.0010 ce        1 XIZ     -0.139200
      5 C3          0.5310   -0.5210    0.0000 cf        1 XIZ     -0.200200
      6 C1'        -0.8820   -0.2070    0.0010 ca        1 XIZ      0.036200
      7 C2'        -1.8300   -1.2490   -0.0010 ca        1 XIZ     -0.260300
      8 C3'        -3.1960   -0.9340   -0.0000 ca        1 XIZ      0.380700
      9 C5'        -2.7640    1.3190    0.0020 ca        1 XIZ      0.380700
     10 C6'        -1.3770    1.1090    0.0020 ca        1 XIZ     -0.260300
     11 N4         -3.6760    0.3270    0.0010 nb        1 XIZ     -0.705000
     12 HA          1.3710    1.4540    0.0020 ha        1 XIZ      0.101000
     13 H3          0.7850   -1.5990   -0.0010 ha        1 XIZ      0.148000
     14 H2'        -1.5000   -2.2960   -0.0020 ha        1 XIZ      0.142000
     15 H6'        -0.6880    1.9640    0.0030 ha        1 XIZ      0.142000
     16 H3'        -3.9570   -1.7330   -0.0010 h4        1 XIZ      0.000600
     17 H5'        -3.1740    2.3440    0.0040 h4        1 XIZ      0.000600
@<TRIPOS>BOND
     1    1    2 1   
     2    1    3 1   
     3    1    4 1   
     4    4    5 2   
     5    4   12 1   
     6    5    6 1   
     7    5   13 1   
     8    6    7 ar  
     9    6   10 ar  
    10    7    8 ar  
    11    7   14 1   
    12    8   11 ar  
    13    8   16 1   
    14    9   10 ar  
    15    9   11 ar  
    16    9   17 1   
    17   10   15 1   
@<TRIPOS>SUBSTRUCTURE
     1 XIZ         1 TEMP              0 ****  ****    0 ROOT
