@<TRIPOS>MOLECULE
XIZ
   17    13     1     0     0
SMALL
bcc


@<TRIPOS>ATOM
      1 C1          0.7750   -2.3180    0.1850 c1        1 XIZ      0.344000
      2 O1          1.8140   -2.1090   -0.4960 o         1 XIZ     -0.555000
      3 O2          0.8720   -2.6390    1.3980 os        1 XIZ     -0.572000
      4 C2         -0.5870   -2.2200   -0.4660 c2        1 XIZ     -0.110000
      5 C3         -1.1620   -1.0140   -0.6450 c1        1 XIZ     -0.210000
      6 C1'        -0.4460    0.2410   -0.1970 c1        1 XIZ      0.043000
      7 C2'        -0.6450    0.7270    1.0630 c1        1 XIZ     -0.161000
      8 C3'        -0.0540    1.9210    1.4470 c1        1 XIZ     -0.092000
      9 C5'         0.9250    2.1260   -0.6910 c1        1 XIZ     -0.099000
     10 C6'         0.3360    0.9320   -1.0770 c2        1 XIZ     -0.203000
     11 N4          0.7250    2.6090    0.5670 n1        1 XIZ     -0.178000
     12 HA         -1.0490   -3.0290   -0.7550 ha        1 XIZ      0.099000
     13 H3         -2.0410   -0.9510   -1.0650 ha        1 XIZ      0.087000
     14 H2'        -1.2030    0.2340    1.6940 ha        1 XIZ      0.211000
     15 H6'         0.4600    0.5980   -1.9860 ha        1 XIZ      0.123000
     16 H3'        -0.1960    2.2680    2.3480 ha        1 XIZ      0.143000
     17 H5'         1.4760    2.6250   -1.3240 ha        1 XIZ      0.130000
@<TRIPOS>BOND
     1    1    2 1   
     2    1    4 1   
     3    4    5 1   
     4    4   12 1   
     5    5   13 1   
     6    6    7 1   
     7    6   10 1   
     8    7   14 1   
     9    8   11 1   
    10    8   16 1   
    11    9   10 1   
    12    9   17 1   
    13   10   15 1   
@<TRIPOS>SUBSTRUCTURE
     1 XIZ         1 TEMP              0 ****  ****    0 ROOT
