@<TRIPOS>MOLECULE
XIZ
   17    17     1     0     0
SMALL
bcc


@<TRIPOS>ATOM
      1 C1         -0.7290   -0.3060   -0.5170 c         1 XIZ      0.893800
      2 O1         -0.0380   -1.2810   -0.1100 o         1 XIZ     -0.828800
      3 O2         -1.9680   -0.1710   -0.2940 o         1 XIZ     -0.828800
      4 C2         -0.0030    0.7910   -1.2600 ce        1 XIZ     -0.129200
      5 C3         -0.0030    1.0850   -2.5650 cf        1 XIZ     -0.198200
      6 C1'        -0.7440    0.4410   -3.6330 ca        1 XIZ      0.031200
      7 C2'        -0.3010    0.5850   -4.9620 ca        1 XIZ     -0.247300
      8 C3'        -1.0310   -0.0180   -5.9960 ca        1 XIZ      0.369700
      9 C5'        -2.5690   -0.8710   -4.5240 ca        1 XIZ      0.369700
     10 C6'        -1.9130   -0.3080   -3.4180 ca        1 XIZ     -0.247300
     11 N4         -2.1520   -0.7390   -5.8000 nb        1 XIZ     -0.704000
     12 HA          0.6320    1.3950   -0.5870 ha        1 XIZ      0.099000
     13 H3          0.6400    1.9110   -2.9230 ha        1 XIZ      0.087000
     14 H2'         0.6070    1.1580   -5.1870 ha        1 XIZ      0.167000
     15 H6'        -2.3020   -0.4510   -2.3910 ha        1 XIZ      0.167000
     16 H3'        -0.7010    0.0780   -7.0450 h4        1 XIZ     -0.000400
     17 H5'        -3.4860   -1.4680   -4.3800 h4        1 XIZ     -0.000400
@<TRIPOS>BOND
     1    1    2 1   
     2    1    3 1   
     3    1    4 1   
     4    4    5 2   
     5    4   12 1   
     6    5    6 1   
     7    5   13 1   
     8    6    7 ar  
     9    6   10 ar  
    10    7    8 ar  
    11    7   14 1   
    12    8   11 ar  
    13    8   16 1   
    14    9   10 ar  
    15    9   11 ar  
    16    9   17 1   
    17   10   15 1   
@<TRIPOS>SUBSTRUCTURE
     1 XIZ         1 TEMP              0 ****  ****    0 ROOT
