@<TRIPOS>MOLECULE
XIZ
   17    17     1     0     0
SMALL
bcc


@<TRIPOS>ATOM
      1 C1         -0.7860   -0.2790   -0.5090 c         1 XIZ      0.893800
      2 O1         -0.1530   -1.2840   -0.0800 o         1 XIZ     -0.828800
      3 O2         -2.0180   -0.0750   -0.3050 o         1 XIZ     -0.828800
      4 C2          0.0070    0.7680   -1.2570 ce        1 XIZ     -0.129200
      5 C3          0.0380    1.0430   -2.5660 cf        1 XIZ     -0.198200
      6 C1'        -0.7220    0.4240   -3.6350 ca        1 XIZ      0.031200
      7 C2'        -0.2550    0.5270   -4.9590 ca        1 XIZ     -0.247300
      8 C3'        -1.0030   -0.0510   -5.9950 ca        1 XIZ      0.369700
      9 C5'        -2.6030   -0.8010   -4.5330 ca        1 XIZ      0.369700
     10 C6'        -1.9320   -0.2580   -3.4250 ca        1 XIZ     -0.247300
     11 N4         -2.1640   -0.7090   -5.8050 nb        1 XIZ     -0.704000
     12 HA          0.6640    1.3460   -0.5830 ha        1 XIZ      0.099000
     13 H3          0.7300    1.8290   -2.9250 ha        1 XIZ      0.087000
     14 H2'         0.6850    1.0470   -5.1800 ha        1 XIZ      0.167000
     15 H6'        -2.3410   -0.3650   -2.4020 ha        1 XIZ      0.167000
     16 H3'        -0.6550    0.0130   -7.0400 h4        1 XIZ     -0.000400
     17 H5'        -3.5530   -1.3450   -4.3930 h4        1 XIZ     -0.000400
@<TRIPOS>BOND
     1    1    2 1   
     2    1    3 1   
     3    1    4 1   
     4    4    5 2   
     5    4   12 1   
     6    5    6 1   
     7    5   13 1   
     8    6    7 ar  
     9    6   10 ar  
    10    7    8 ar  
    11    7   14 1   
    12    8   11 ar  
    13    8   16 1   
    14    9   10 ar  
    15    9   11 ar  
    16    9   17 1   
    17   10   15 1   
@<TRIPOS>SUBSTRUCTURE
     1 XIZ         1 TEMP              0 ****  ****    0 ROOT
