@<TRIPOS>MOLECULE
XJ0
   18    18     1     0     0
SMALL
bcc


@<TRIPOS>ATOM
      1 OB         -0.1810   -0.1880    0.0240 o         1 XJ0     -0.828800
      2 C           1.0750   -0.0730    0.1120 c         1 XJ0      0.890800
      3 OA          1.7080    0.0120    1.2020 o         1 XJ0     -0.828800
      4 CA          1.8980   -0.0310   -1.1600 ce        1 XJ0     -0.153200
      5 CB          1.3490   -0.1140   -2.3800 cf        1 XJ0     -0.178200
      6 CG          2.0600   -0.0740   -3.6330 ca        1 XJ0     -0.251400
      7 CD          1.3630   -0.1220   -4.8660 ca        1 XJ0      0.428200
      8 NE          1.9600   -0.0810   -6.0660 nb        1 XJ0     -0.741500
      9 CZ          3.3460    0.0010   -6.0600 ca        1 XJ0      0.790900
     10 NH2         4.0170   -0.0700   -7.3100 nh        1 XJ0     -0.900500
     11 NH1         4.1230    0.0760   -4.9140 nb        1 XJ0     -0.741500
     12 C10         3.4670    0.0300   -3.7440 ca        1 XJ0      0.428200
     13 HB          2.9820    0.0760   -1.0000 ha        1 XJ0      0.099000
     14 HC          0.2490   -0.2210   -2.4530 ha        1 XJ0      0.148000
     15 HD          0.2600   -0.1930   -4.8810 h4        1 XJ0      0.028600
     16 H10         4.1010    0.0850   -2.8400 h4        1 XJ0      0.028600
     17 HH21        4.9240    0.3440   -7.2950 hn        1 XJ0      0.391300
     18 HH22        3.4600    0.2460   -8.0750 hn        1 XJ0      0.391300
@<TRIPOS>BOND
     1    1    2 1   
     2    2    3 1   
     3    2    4 1   
     4    4    5 2   
     5    4   13 1   
     6    5    6 1   
     7    5   14 1   
     8    6    7 ar  
     9    6   12 ar  
    10    7    8 ar  
    11    7   15 1   
    12    8    9 ar  
    13    9   10 1   
    14    9   11 ar  
    15   10   17 1   
    16   10   18 1   
    17   11   12 ar  
    18   12   16 1   
@<TRIPOS>SUBSTRUCTURE
     1 XJ0         1 TEMP              0 ****  ****    0 ROOT
