@<TRIPOS>MOLECULE
XJ0
   19    19     1     0     0
SMALL
bcc


@<TRIPOS>ATOM
      1 OB         -0.1870   -0.2720   -0.0280 o         1 XJ0     -0.777800
      2 C           1.0310    0.0030    0.1150 c         1 XJ0      0.885800
      3 OA          1.6430    0.2230    1.1900 o         1 XJ0     -0.777800
      4 CA          1.8850    0.0840   -1.1550 ce        1 XJ0     -0.036200
      5 CB          1.3500   -0.1320   -2.3810 cf        1 XJ0     -0.250200
      6 CG          2.0510   -0.0810   -3.6100 ca        1 XJ0     -0.096400
      7 CD          3.4460    0.2110   -3.7270 ca        1 XJ0      0.384700
      8 NE          4.0930    0.2550   -4.8970 nb        1 XJ0     -0.643500
      9 CZ          3.3230   -0.0020   -6.0050 ca        1 XJ0      0.549900
     10 NH2         4.0180    0.0410   -7.3180 n4        1 XJ0     -0.791300
     11 NH1         1.9770   -0.2950   -6.0390 nb        1 XJ0     -0.643500
     12 C10         1.3730   -0.3290   -4.8490 ca        1 XJ0      0.384700
     13 HB          2.9470    0.3260   -0.9930 ha        1 XJ0      0.110000
     14 HC          0.2660   -0.3700   -2.4240 ha        1 XJ0      0.181000
     15 HD          4.0610    0.4170   -2.8290 h4        1 XJ0      0.065100
     16 H10         0.2900   -0.5630   -4.8560 h4        1 XJ0      0.065100
     17 HH21        5.0090    0.2670   -7.1780 hn        1 XJ0      0.463133
     18 HH22        3.5790    0.7560   -7.9050 hn        1 XJ0      0.463133
     19 HH23        3.9320   -0.8740   -7.7710 hn        1 XJ0      0.463133
@<TRIPOS>BOND
     1    1    2 1   
     2    2    3 1   
     3    2    4 1   
     4    4    5 2   
     5    4   13 1   
     6    5    6 1   
     7    5   14 1   
     8    6    7 ar  
     9    6   12 ar  
    10    7    8 ar  
    11    7   15 1   
    12    8    9 ar  
    13    9   10 1   
    14    9   11 ar  
    15   10   17 1   
    16   10   18 1   
    17   10   19 1   
    18   11   12 ar  
    19   12   16 1   
@<TRIPOS>SUBSTRUCTURE
     1 XJ0         1 TEMP              0 ****  ****    0 ROOT
