@<TRIPOS>MOLECULE
XJ0
   18    18     1     0     0
SMALL
bcc


@<TRIPOS>ATOM
      1 OB          3.7800   -1.2140    0.0290 o         1 XJ0     -0.828800
      2 C           3.4570    0.0070    0.0340 c         1 XJ0      0.890800
      3 OA          4.2830    0.9640    0.0590 o         1 XJ0     -0.828800
      4 CA          1.9870    0.3770    0.0120 ce        1 XJ0     -0.153200
      5 CB          1.0110   -0.5410   -0.0180 cf        1 XJ0     -0.178200
      6 CG         -0.4050   -0.2710   -0.0320 ca        1 XJ0     -0.251400
      7 CD         -1.3470   -1.3300   -0.0190 ca        1 XJ0      0.428200
      8 NE         -2.6750   -1.1510   -0.0230 nb        1 XJ0     -0.741500
      9 CZ         -3.1180    0.1650   -0.0570 ca        1 XJ0      0.790900
     10 NH2        -4.5150    0.3880   -0.1780 nh        1 XJ0     -0.900500
     11 NH1        -2.2840    1.2730   -0.0510 nb        1 XJ0     -0.741500
     12 C10        -0.9650    1.0280   -0.0460 ca        1 XJ0      0.428200
     13 HB          1.7880    1.4600    0.0260 ha        1 XJ0      0.099000
     14 HC          1.2980   -1.6100   -0.0300 ha        1 XJ0      0.148000
     15 HD         -1.0050   -2.3810    0.0030 h4        1 XJ0      0.028600
     16 H10        -0.3150    1.9230   -0.0460 h4        1 XJ0      0.028600
     17 HH21       -5.0680   -0.3580    0.1850 hn        1 XJ0      0.391300
     18 HH22       -4.8030    1.2820    0.1580 hn        1 XJ0      0.391300
@<TRIPOS>BOND
     1    1    2 1   
     2    2    3 1   
     3    2    4 1   
     4    4    5 2   
     5    4   13 1   
     6    5    6 1   
     7    5   14 1   
     8    6    7 ar  
     9    6   12 ar  
    10    7    8 ar  
    11    7   15 1   
    12    8    9 ar  
    13    9   10 1   
    14    9   11 ar  
    15   10   17 1   
    16   10   18 1   
    17   11   12 ar  
    18   12   16 1   
@<TRIPOS>SUBSTRUCTURE
     1 XJ0         1 TEMP              0 ****  ****    0 ROOT
