@<TRIPOS>MOLECULE
XJ0
   18    18     1     0     0
SMALL
bcc


@<TRIPOS>ATOM
      1 OB         -0.1760   -0.2470    0.0240 o         1 XJ0     -0.828800
      2 C           1.0590    0.0050    0.1070 c         1 XJ0      0.890800
      3 OA          1.6720    0.2190    1.1920 o         1 XJ0     -0.828800
      4 CA          1.8830    0.0630   -1.1650 ce        1 XJ0     -0.153200
      5 CB          1.3550   -0.1480   -2.3780 cf        1 XJ0     -0.178200
      6 CG          2.0670   -0.1030   -3.6300 ca        1 XJ0     -0.251400
      7 CD          1.3890   -0.2980   -4.8590 ca        1 XJ0      0.428200
      8 NE          1.9870   -0.2620   -6.0590 nb        1 XJ0     -0.741500
      9 CZ          3.3560   -0.0310   -6.0560 ca        1 XJ0      0.790900
     10 NH2         4.0390   -0.1000   -7.3000 nv        1 XJ0     -0.900500
     11 NH1         4.1110    0.1940   -4.9150 nb        1 XJ0     -0.741500
     12 C10         3.4550    0.1450   -3.7460 ca        1 XJ0      0.428200
     13 HB          2.9480    0.2940   -1.0090 ha        1 XJ0      0.099000
     14 HC          0.2740   -0.3760   -2.4460 ha        1 XJ0      0.148000
     15 HD          0.3000   -0.4880   -4.8720 h4        1 XJ0      0.028600
     16 H10         4.0730    0.3210   -2.8450 h4        1 XJ0      0.028600
     17 HH21        4.8960    0.4090   -7.3080 hn        1 XJ0      0.391300
     18 HH22        3.4580    0.1090   -8.0820 hn        1 XJ0      0.391300
@<TRIPOS>BOND
     1    1    2 1   
     2    2    3 1   
     3    2    4 1   
     4    4    5 2   
     5    4   13 1   
     6    5    6 1   
     7    5   14 1   
     8    6    7 ar  
     9    6   12 ar  
    10    7    8 ar  
    11    7   15 1   
    12    8    9 ar  
    13    9   10 1   
    14    9   11 ar  
    15   10   17 1   
    16   10   18 1   
    17   11   12 ar  
    18   12   16 1   
@<TRIPOS>SUBSTRUCTURE
     1 XJ0         1 TEMP              0 ****  ****    0 ROOT
