@<TRIPOS>MOLECULE
XJ1
   47    49     1     0     0
SMALL
bcc


@<TRIPOS>ATOM
      1 C3         -0.9810    1.0330    0.4700 c3        1 XJ1     -0.092400
      2 C4         -0.6790    0.3040    1.7610 c3        1 XJ1     -0.088900
      3 C5         -1.2610    1.0720    2.9600 c3        1 XJ1      0.154500
      4 N8         -1.1680    0.3830    4.2340 n3        1 XJ1     -0.911800
      5 C6         -0.6150    2.4650    2.9950 c3        1 XJ1     -0.088900
      6 C7         -0.9270    3.2170    1.7180 c3        1 XJ1     -0.092400
      7 C2         -0.3930    2.4530    0.4980 c3        1 XJ1      0.218500
      8 N1         -0.5160    3.1950   -0.7460 nh        1 XJ1     -0.824900
      9 C9         -1.7460    3.5160   -1.3350 ca        1 XJ1      0.533900
     10 N10        -2.9350    3.3070   -0.6920 nb        1 XJ1     -0.684000
     11 C14        -1.7340    4.1570   -2.6360 ca        1 XJ1      0.231900
     12 N13        -2.8510    4.5920   -3.2270 nb        1 XJ1     -0.604000
     13 C12        -4.0130    4.4010   -2.5690 ca        1 XJ1      0.233900
     14 C11        -4.0590    3.7530   -1.3040 cp        1 XJ1      0.389500
     15 C15        -5.3590    3.5360   -0.6450 cp        1 XJ1     -0.150500
     16 C16        -5.4950    3.7020    0.7400 ca        1 XJ1     -0.066000
     17 C20        -6.4610    3.1470   -1.4160 ca        1 XJ1     -0.100000
     18 C19        -7.6950    2.9320   -0.8030 ca        1 XJ1     -0.141000
     19 C18        -7.8340    3.1020    0.5700 ca        1 XJ1     -0.101000
     20 C17        -6.7320    3.4820    1.3570 ca        1 XJ1     -0.093800
     21 C21        -6.9530    3.6660    2.7830 ce        1 XJ1     -0.032200
     22 C22        -6.1500    3.4170    3.8220 cf        1 XJ1     -0.201200
     23 C23        -4.7690    2.9280    3.8050 c         1 XJ1      0.644300
     24 O25        -3.7640    3.4100    3.2710 o         1 XJ1     -0.557000
     25 O24        -4.5730    1.8120    4.5630 oh        1 XJ1     -0.607100
     26 H31C       -0.5450    0.4590   -0.3890 hc        1 XJ1      0.062450
     27 H32C       -2.0910    1.0750    0.3240 hc        1 XJ1      0.062450
     28 H41C       -1.1250   -0.7240    1.7110 hc        1 XJ1      0.042450
     29 H42C        0.4280    0.1870    1.8870 hc        1 XJ1      0.042450
     30 H2          0.7290    2.3450    0.6450 h1        1 XJ1      0.045700
     31 H5         -2.3700    1.2190    2.7680 h1        1 XJ1      0.066700
     32 H81N       -1.4120   -0.5820    4.1220 hn        1 XJ1      0.345300
     33 H82N       -3.6270    1.5710    4.5530 ho        1 XJ1      0.461000
     34 H61C        0.4930    2.3700    3.1350 hc        1 XJ1      0.042450
     35 H62C       -1.0270    3.0480    3.8600 hc        1 XJ1      0.042450
     36 H71C       -2.0380    3.3630    1.6520 hc        1 XJ1      0.062450
     37 H72C       -0.4520    4.2310    1.7620 hc        1 XJ1      0.062450
     38 H1          0.1590    2.9160   -1.4280 hn        1 XJ1      0.405800
     39 H14        -0.7910    4.3190   -3.1830 h4        1 XJ1      0.031100
     40 H12        -4.9270    4.7780   -3.0550 h4        1 XJ1      0.034100
     41 H16        -4.6220    4.0080    1.3440 ha        1 XJ1      0.180000
     42 H20        -6.3540    3.0060   -2.5020 ha        1 XJ1      0.139000
     43 H19        -8.5600    2.6250   -1.4090 ha        1 XJ1      0.137000
     44 H18        -8.8110    2.9320    1.0470 ha        1 XJ1      0.133000
     45 H21        -7.9730    4.0400    3.0170 ha        1 XJ1      0.132000
     46 H22        -6.5220    3.5750    4.8520 ha        1 XJ1      0.156000
     47 H83        -0.2390    0.4390    4.6030 hn        1 XJ1      0.345300
@<TRIPOS>BOND
     1    1    2 1   
     2    1    7 1   
     3    1   26 1   
     4    1   27 1   
     5    2    3 1   
     6    2   28 1   
     7    2   29 1   
     8    3    4 1   
     9    3    5 1   
    10    3   31 1   
    11    4   32 1   
    12    4   47 1   
    13    5    6 1   
    14    5   34 1   
    15    5   35 1   
    16    6    7 1   
    17    6   36 1   
    18    6   37 1   
    19    7    8 1   
    20    7   30 1   
    21    8    9 1   
    22    8   38 1   
    23    9   10 ar  
    24    9   11 ar  
    25   10   14 ar  
    26   11   12 ar  
    27   11   39 1   
    28   12   13 ar  
    29   13   14 ar  
    30   13   40 1   
    31   14   15 1   
    32   15   16 ar  
    33   15   17 ar  
    34   16   20 ar  
    35   16   41 1   
    36   17   18 ar  
    37   17   42 1   
    38   18   19 ar  
    39   18   43 1   
    40   19   20 ar  
    41   19   44 1   
    42   20   21 1   
    43   21   22 2   
    44   21   45 1   
    45   22   23 1   
    46   22   46 1   
    47   23   24 2   
    48   23   25 1   
    49   25   33 1   
@<TRIPOS>SUBSTRUCTURE
     1 XJ1         1 TEMP              0 ****  ****    0 ROOT
