@<TRIPOS>MOLECULE
XJ1
   46    48     1     0     0
SMALL
bcc


@<TRIPOS>ATOM
      1 C3         -5.6440   -0.4620    1.5060 c3        1 XJ1     -0.094400
      2 C4         -6.9210   -0.0130    0.8310 c3        1 XJ1     -0.073400
      3 C5         -6.9680   -0.5010   -0.6250 c3        1 XJ1      0.168500
      4 N8         -8.2120   -0.1170   -1.2770 n3        1 XJ1     -0.912800
      5 C6         -5.7420    0.0460   -1.3730 c3        1 XJ1     -0.073400
      6 C7         -4.4650   -0.3990   -0.6970 c3        1 XJ1     -0.094400
      7 C2         -4.4170    0.0900    0.7610 c3        1 XJ1      0.182500
      8 N1         -3.1880   -0.2510    1.4730 nh        1 XJ1     -0.799900
      9 C9         -2.0200    0.4310    1.0310 ca        1 XJ1      0.484900
     10 N10        -0.9370   -0.2860    0.5940 nb        1 XJ1     -0.686000
     11 C14        -1.9520    1.8610    1.1390 ca        1 XJ1      0.254900
     12 N13        -0.8390    2.5450    0.8280 nb        1 XJ1     -0.622000
     13 C12         0.2230    1.8340    0.4130 ca        1 XJ1      0.259900
     14 C11         0.1860    0.4090    0.2950 cp        1 XJ1      0.403500
     15 C15         1.3860   -0.2990   -0.1760 cp        1 XJ1     -0.165500
     16 C16         2.6500    0.1490    0.2200 ca        1 XJ1     -0.122000
     17 C20         1.2740   -1.4060   -1.0280 ca        1 XJ1     -0.122000
     18 C19         2.4270   -2.0430   -1.4810 ca        1 XJ1     -0.141000
     19 C18         3.6850   -1.5920   -1.0930 ca        1 XJ1     -0.125000
     20 C17         3.8180   -0.4870   -0.2370 ca        1 XJ1     -0.001800
     21 C21         5.1100    0.0130    0.1920 ce        1 XJ1     -0.194200
     22 C22         6.2970   -0.3380   -0.3210 cf        1 XJ1     -0.150200
     23 C23         7.6090    0.2320    0.1810 c         1 XJ1      0.889800
     24 O25         7.5870    1.1260    1.0730 o         1 XJ1     -0.829800
     25 O24         8.6650   -0.2320   -0.3370 o         1 XJ1     -0.829800
     26 H31C       -5.6380   -0.0980    2.5670 hc        1 XJ1      0.050200
     27 H32C       -5.5990   -1.5830    1.5310 hc        1 XJ1      0.050200
     28 H41C       -7.7970   -0.4220    1.3990 hc        1 XJ1      0.047950
     29 H42C       -6.9930    1.1050    0.8550 hc        1 XJ1      0.047950
     30 H2         -4.4970    1.2190    0.7500 h1        1 XJ1      0.064700
     31 H5         -6.8610   -1.6330   -0.5990 h1        1 XJ1      0.006700
     32 H81N       -8.2080   -0.4190   -2.2300 hn        1 XJ1      0.347300
     33 H82N       -8.9890   -0.5280   -0.8010 hn        1 XJ1      0.347300
     34 H61C       -5.7450   -0.3230   -2.4320 hc        1 XJ1      0.047950
     35 H62C       -5.7880    1.1660   -1.4040 hc        1 XJ1      0.047950
     36 H71C       -4.3900   -1.5170   -0.7220 hc        1 XJ1      0.050200
     37 H72C       -3.5860    0.0110   -1.2600 hc        1 XJ1      0.050200
     38 H1         -3.0590   -1.2470    1.5010 hn        1 XJ1      0.390800
     39 H14        -2.8120    2.4530    1.4920 h4        1 XJ1      0.029100
     40 H12         1.1370    2.3980    0.1590 h4        1 XJ1      0.046100
     41 H16         2.7440    1.0050    0.9070 ha        1 XJ1      0.137000
     42 H20         0.2850   -1.7720   -1.3370 ha        1 XJ1      0.129000
     43 H19         2.3400   -2.9120   -2.1500 ha        1 XJ1      0.119000
     44 H18         4.5880   -2.1070   -1.4560 ha        1 XJ1      0.141000
     45 H21         5.0930    0.7600    1.0080 ha        1 XJ1      0.147000
     46 H22         6.4020   -1.0640   -1.1420 ha        1 XJ1      0.099000
@<TRIPOS>BOND
     1    1    2 1   
     2    1    7 1   
     3    1   26 1   
     4    1   27 1   
     5    2    3 1   
     6    2   28 1   
     7    2   29 1   
     8    3    4 1   
     9    3    5 1   
    10    3   31 1   
    11    4   32 1   
    12    4   33 1   
    13    5    6 1   
    14    5   34 1   
    15    5   35 1   
    16    6    7 1   
    17    6   36 1   
    18    6   37 1   
    19    7    8 1   
    20    7   30 1   
    21    8    9 1   
    22    8   38 1   
    23    9   10 ar  
    24    9   11 ar  
    25   10   14 ar  
    26   11   12 ar  
    27   11   39 1   
    28   12   13 ar  
    29   13   14 ar  
    30   13   40 1   
    31   14   15 1   
    32   15   16 ar  
    33   15   17 ar  
    34   16   20 ar  
    35   16   41 1   
    36   17   18 ar  
    37   17   42 1   
    38   18   19 ar  
    39   18   43 1   
    40   19   20 ar  
    41   19   44 1   
    42   20   21 1   
    43   21   22 2   
    44   21   45 1   
    45   22   23 1   
    46   22   46 1   
    47   23   24 1   
    48   23   25 1   
@<TRIPOS>SUBSTRUCTURE
     1 XJ1         1 TEMP              0 ****  ****    0 ROOT
