@<TRIPOS>MOLECULE
XJ1
   47    49     1     0     0
SMALL
bcc


@<TRIPOS>ATOM
      1 C3         -0.1100    0.0700    0.7220 c3        1 XJ1     -0.091900
      2 C4          1.2940    0.1860    1.2700 c3        1 XJ1     -0.093900
      3 C5          1.3000    0.8710    2.6490 c3        1 XJ1      0.161500
      4 N8          2.6020    0.9400    3.2850 n8        1 XJ1     -0.901800
      5 C6          0.6570    2.2590    2.5090 c3        1 XJ1     -0.093900
      6 C7         -0.7470    2.1460    1.9610 c3        1 XJ1     -0.091900
      7 C2         -0.7440    1.4660    0.5820 c3        1 XJ1      0.186500
      8 N1         -2.0590    1.3680   -0.0440 nu        1 XJ1     -0.804900
      9 C9         -2.6510    2.5760   -0.4770 ca        1 XJ1      0.510900
     10 N10        -3.9530    2.8450   -0.1460 nb        1 XJ1     -0.680000
     11 C14        -1.9280    3.4650   -1.3530 ca        1 XJ1      0.259900
     12 N13        -2.4900    4.5660   -1.8720 nb        1 XJ1     -0.612000
     13 C12        -3.7720    4.8150   -1.5470 ca        1 XJ1      0.249900
     14 C11        -4.5110    3.9550   -0.6860 cp        1 XJ1      0.381500
     15 C15        -5.9090    4.2890   -0.3680 cp        1 XJ1     -0.146500
     16 C16        -6.3990    4.1400    0.9350 ca        1 XJ1     -0.074000
     17 C20        -6.7510    4.7670   -1.3800 ca        1 XJ1     -0.101000
     18 C19        -8.0700    5.1050   -1.0850 ca        1 XJ1     -0.137000
     19 C18        -8.5550    4.9730    0.2130 ca        1 XJ1     -0.100000
     20 C17        -7.7240    4.4810    1.2330 ca        1 XJ1     -0.089800
     21 C21        -8.2670    4.3730    2.5790 ce        1 XJ1     -0.040200
     22 C22        -8.0150    3.4350    3.4960 cf        1 XJ1     -0.195200
     23 C23        -7.1060    2.2920    3.3540 c         1 XJ1      0.644300
     24 O25        -5.8890    2.2300    3.5560 o         1 XJ1     -0.548000
     25 O24        -7.7250    1.1250    3.0110 oh        1 XJ1     -0.598100
     26 H31C       -0.0810   -0.4370   -0.2770 hc        1 XJ1      0.052450
     27 H32C       -0.7330   -0.5620    1.4080 hc        1 XJ1      0.052450
     28 H41C        1.7350   -0.8420    1.3560 hc        1 XJ1      0.046450
     29 H42C        1.9330    0.7690    0.5560 hc        1 XJ1      0.046450
     30 H2         -0.0850    2.0750   -0.1060 h1        1 XJ1      0.061700
     31 H5          0.6460    0.2550    3.3380 h1        1 XJ1      0.061700
     32 H81N       -7.0640    0.4150    2.9490 ho        1 XJ1      0.444000
     33 H82N        3.2050    1.5700    2.7940 hn        1 XJ1      0.346300
     34 H61C        0.6230    2.7600    3.5110 hc        1 XJ1      0.046450
     35 H62C        1.2800    2.8990    1.8300 hc        1 XJ1      0.046450
     36 H71C       -1.3860    1.5580    2.6710 hc        1 XJ1      0.052450
     37 H72C       -1.1940    3.1710    1.8750 hc        1 XJ1      0.052450
     38 H1         -2.6810    0.8000    0.5040 hn        1 XJ1      0.402800
     39 H14        -0.8830    3.2660   -1.6420 h4        1 XJ1      0.036100
     40 H12        -4.2260    5.7250   -1.9730 h4        1 XJ1      0.035100
     41 H16        -5.7390    3.7580    1.7330 ha        1 XJ1      0.168000
     42 H20        -6.3730    4.8690   -2.4090 ha        1 XJ1      0.140000
     43 H19        -8.7300    5.4780   -1.8820 ha        1 XJ1      0.138000
     44 H18        -9.5970    5.2460    0.4410 ha        1 XJ1      0.135000
     45 H21        -8.9870    5.1750    2.8380 ha        1 XJ1      0.137000
     46 H22        -8.5090    3.4610    4.4840 ha        1 XJ1      0.158000
     47 H83         3.0260    0.0320    3.3010 hn        1 XJ1      0.346300
@<TRIPOS>BOND
     1    1    2 1   
     2    1    7 1   
     3    1   26 1   
     4    1   27 1   
     5    2    3 1   
     6    2   28 1   
     7    2   29 1   
     8    3    4 1   
     9    3    5 1   
    10    3   31 1   
    11    4   33 1   
    12    4   47 1   
    13    5    6 1   
    14    5   34 1   
    15    5   35 1   
    16    6    7 1   
    17    6   36 1   
    18    6   37 1   
    19    7    8 1   
    20    7   30 1   
    21    8    9 1   
    22    8   38 1   
    23    9   10 ar  
    24    9   11 ar  
    25   10   14 ar  
    26   11   12 ar  
    27   11   39 1   
    28   12   13 ar  
    29   13   14 ar  
    30   13   40 1   
    31   14   15 1   
    32   15   16 ar  
    33   15   17 ar  
    34   16   20 ar  
    35   16   41 1   
    36   17   18 ar  
    37   17   42 1   
    38   18   19 ar  
    39   18   43 1   
    40   19   20 ar  
    41   19   44 1   
    42   20   21 1   
    43   21   22 2   
    44   21   45 1   
    45   22   23 1   
    46   22   46 1   
    47   23   24 2   
    48   23   25 1   
    49   25   32 1   
@<TRIPOS>SUBSTRUCTURE
     1 XJ1         1 TEMP              0 ****  ****    0 ROOT
