@<TRIPOS>MOLECULE
XJ1
   48    50     1     0     0
SMALL
bcc


@<TRIPOS>ATOM
      1 C3          0.2630    2.3830    1.1480 c3        1 XJ1     -0.092400
      2 C4          0.0680    2.2250    2.6450 c3        1 XJ1     -0.083400
      3 C5         -0.4780    0.8290    2.9950 c3        1 XJ1      0.171500
      4 N8         -0.7170    0.7090    4.4250 n3        1 XJ1     -0.922800
      5 C6         -1.7760    0.5630    2.2120 c3        1 XJ1     -0.083400
      6 C7         -1.5710    0.7470    0.7220 c3        1 XJ1     -0.092400
      7 C2         -1.1000    2.1820    0.4760 c3        1 XJ1      0.114500
      8 N1         -1.0340    2.5100   -1.0030 n4        1 XJ1     -0.736700
      9 C9         -2.3380    2.7740   -1.6470 ca        1 XJ1      0.341900
     10 N10        -3.4040    3.0220   -0.8410 nb        1 XJ1     -0.620000
     11 C14        -2.4480    2.7850   -3.0660 ca        1 XJ1      0.314900
     12 N13        -3.6300    3.0680   -3.6550 nb        1 XJ1     -0.589000
     13 C12        -4.6810    3.3300   -2.8660 ca        1 XJ1      0.338900
     14 C11        -4.5870    3.3040   -1.4310 cp        1 XJ1      0.419500
     15 C15        -5.7390    3.5580   -0.5590 cp        1 XJ1     -0.196500
     16 C16        -5.5180    4.0540    0.7360 ca        1 XJ1     -0.056000
     17 C20        -7.0410    3.2500   -0.9740 ca        1 XJ1     -0.081000
     18 C19        -8.1040    3.4250   -0.0900 ca        1 XJ1     -0.132000
     19 C18        -7.8810    3.8850    1.2070 ca        1 XJ1     -0.067000
     20 C17        -6.5790    4.1900    1.6360 ca        1 XJ1     -0.091800
     21 C21        -6.3690    4.6630    2.9960 ce        1 XJ1     -0.029200
     22 C22        -5.3640    4.4070    3.8420 cf        1 XJ1     -0.197200
     23 C23        -4.1720    3.5780    3.6380 c         1 XJ1      0.660300
     24 O25        -3.9060    2.7570    4.6900 oh        1 XJ1     -0.589100
     25 O24        -3.3500    3.5480    2.7090 o         1 XJ1     -0.607000
     26 H31C        1.0040    1.6310    0.7730 hc        1 XJ1      0.061200
     27 H32C        0.6670    3.4090    0.9410 hc        1 XJ1      0.061200
     28 H41C       -0.6460    3.0100    3.0150 hc        1 XJ1      0.075450
     29 H42C        1.0540    2.3870    3.1530 hc        1 XJ1      0.075450
     30 H2         -1.8380    2.9010    0.9630 hx        1 XJ1      0.167700
     31 H5          0.2890    0.0730    2.6360 h1        1 XJ1      0.017700
     32 H81N       -3.0700    2.2770    4.5390 ho        1 XJ1      0.461000
     33 H82N       -0.9990   -0.2230    4.6540 hn        1 XJ1      0.367300
     34 H61C       -2.5810    1.2650    2.5650 hc        1 XJ1      0.075450
     35 H62C       -2.1260   -0.4850    2.4000 hc        1 XJ1      0.075450
     36 H71C       -2.5400    0.5490    0.1940 hc        1 XJ1      0.061200
     37 H72C       -0.8090    0.0160    0.3430 hc        1 XJ1      0.061200
     38 H1         -0.5930    1.7280   -1.5000 hn        1 XJ1      0.452300
     39 H14        -1.6030    2.5720   -3.7440 h4        1 XJ1      0.056100
     40 H12        -5.6350    3.5780   -3.3710 h4        1 XJ1      0.072100
     41 H16        -4.5020    4.3390    1.0640 ha        1 XJ1      0.176000
     42 H20        -7.2310    2.8580   -1.9850 ha        1 XJ1      0.141000
     43 H19        -9.1290    3.1890   -0.4170 ha        1 XJ1      0.156000
     44 H18        -8.7290    4.0030    1.9010 ha        1 XJ1      0.153000
     45 H21        -7.1930    5.3080    3.3690 ha        1 XJ1      0.150000
     46 H22        -5.4000    4.8290    4.8660 ha        1 XJ1      0.171000
     47 H83         0.1060    0.9500    4.9400 hn        1 XJ1      0.367300
     48 H121       -0.4570    3.3520   -1.1210 hn        1 XJ1      0.452300
@<TRIPOS>BOND
     1    1    2 1   
     2    1    7 1   
     3    1   26 1   
     4    1   27 1   
     5    2    3 1   
     6    2   28 1   
     7    2   29 1   
     8    3    4 1   
     9    3    5 1   
    10    3   31 1   
    11    4   33 1   
    12    4   47 1   
    13    5    6 1   
    14    5   34 1   
    15    5   35 1   
    16    6    7 1   
    17    6   36 1   
    18    6   37 1   
    19    7    8 1   
    20    7   30 1   
    21    8    9 1   
    22    8   38 1   
    23    8   48 1   
    24    9   10 ar  
    25    9   11 ar  
    26   10   14 ar  
    27   11   12 ar  
    28   11   39 1   
    29   12   13 ar  
    30   13   14 ar  
    31   13   40 1   
    32   14   15 1   
    33   15   16 ar  
    34   15   17 ar  
    35   16   20 ar  
    36   16   41 1   
    37   17   18 ar  
    38   17   42 1   
    39   18   19 ar  
    40   18   43 1   
    41   19   20 ar  
    42   19   44 1   
    43   20   21 1   
    44   21   22 2   
    45   21   45 1   
    46   22   23 1   
    47   22   46 1   
    48   23   24 1   
    49   23   25 2   
    50   24   32 1   
@<TRIPOS>SUBSTRUCTURE
     1 XJ1         1 TEMP              0 ****  ****    0 ROOT
