@<TRIPOS>MOLECULE
XJ8
   65    69     1     0     0
SMALL
bcc


@<TRIPOS>ATOM
      1 C25        -0.5760   -0.2070   -0.5290 c         1 XJ8      0.610700
      2 O26        -0.4190    0.5610   -1.4840 o         1 XJ8     -0.565100
      3 C27        -0.6240    0.0620    0.8720 ca        1 XJ8     -0.299600
      4 C28        -0.8850   -0.9080    1.8770 ca        1 XJ8     -0.029000
      5 C29        -0.9200   -0.5660    3.2010 ca        1 XJ8     -0.187000
      6 C30        -0.6910    0.7920    3.6230 ca        1 XJ8      0.214600
      7 C31        -0.4290    1.7710    2.6000 ca        1 XJ8     -0.168800
      8 C32        -0.4010    1.4050    1.2660 ca        1 XJ8      0.082000
      9 C33        -0.2000    3.1460    3.0310 cc        1 XJ8      0.223900
     10 C34        -0.2310    3.4890    4.3460 cd        1 XJ8     -0.316200
     11 C35        -0.4960    2.4920    5.3780 c         1 XJ8      0.711700
     12 O36        -0.5470    2.6900    6.5930 o         1 XJ8     -0.516500
     13 N37        -0.7210    1.1440    4.9310 n         1 XJ8     -0.413100
     14 O38         0.0410    4.0200    2.0090 oh        1 XJ8     -0.490100
     15 N24        -0.7500   -1.6660   -0.9750 n4        1 XJ8     -0.683800
     16 C21        -0.3490   -1.8820   -2.4030 c3        1 XJ8      0.059500
     17 C22        -1.3270   -1.1530   -3.3370 c         1 XJ8      0.519100
     18 O23        -2.5370   -1.3280   -3.3060 o         1 XJ8     -0.385100
     19 C20        -0.3470   -3.3820   -2.7730 c3        1 XJ8     -0.042100
     20 C17         0.4600   -4.1620   -1.8000 ca        1 XJ8     -0.186300
     21 C16        -0.1740   -4.8260   -0.7400 ca        1 XJ8     -0.129000
     22 C18         1.8430   -4.2960   -1.9730 ca        1 XJ8     -0.129000
     23 C15         0.5710   -5.6110    0.1380 ca        1 XJ8     -0.108500
     24 C19         2.5850   -5.0800   -1.0900 ca        1 XJ8     -0.108500
     25 C14         1.9510   -5.7380   -0.0350 ca        1 XJ8     -0.080000
     26 C1          0.4160    1.7180   -8.1630 ca        1 XJ8      0.458600
     27 C2          0.2180    3.1260   -7.9410 ca        1 XJ8     -0.106300
     28 C3         -0.5790    3.5630   -6.9130 ca        1 XJ8     -0.132000
     29 C4         -1.2080    2.6460   -6.0450 ca        1 XJ8     -0.072000
     30 C5         -1.0430    1.2850   -6.2290 ca        1 XJ8     -0.182300
     31 C6         -0.2400    0.7890   -7.2940 ca        1 XJ8     -0.194300
     32 N7          1.2150    1.3350   -9.2060 nb        1 XJ8     -0.724000
     33 C8          1.3860    0.0110   -9.4410 ca        1 XJ8      0.694200
     34 C9          0.7140   -0.9970   -8.6270 ca        1 XJ8     -0.239300
     35 N10         2.2510   -0.4000  -10.4300 nh        1 XJ8     -0.939500
     36 C11        -0.0670   -0.5950   -7.5830 ca        1 XJ8     -0.111000
     37 C12        -1.7420    0.3480   -5.3150 c3        1 XJ8      0.193100
     38 N13        -0.7430   -0.1920   -4.3030 n4        1 XJ8     -0.667800
     39 H28        -1.0760   -1.9610    1.6150 ha        1 XJ8      0.128000
     40 H32        -0.2000    2.1770    0.4980 ha        1 XJ8      0.188000
     41 H29        -1.1290   -1.3350    3.9650 ha        1 XJ8      0.178000
     42 H37        -0.9060    0.4520    5.6330 hn        1 XJ8      0.360500
     43 H34        -0.0630    4.5150    4.7100 ha        1 XJ8      0.201000
     44 H38         0.1820    4.9090    2.3810 ho        1 XJ8      0.462000
     45 H24        -0.1640   -2.2880   -0.3910 hn        1 XJ8      0.480800
     46 H21         0.7030   -1.4750   -2.5060 hx        1 XJ8      0.135700
     47 H201        0.0910   -3.4730   -3.8040 hc        1 XJ8      0.099200
     48 H202       -1.4030   -3.7660   -2.8140 hc        1 XJ8      0.099200
     49 H16        -1.2680   -4.7760   -0.6290 ha        1 XJ8      0.135000
     50 H18         2.3460   -3.8040   -2.8190 ha        1 XJ8      0.135000
     51 H15         0.0670   -6.1510    0.9560 ha        1 XJ8      0.167000
     52 H19         3.6720   -5.1930   -1.2380 ha        1 XJ8      0.167000
     53 H14         2.5370   -6.3730    0.6520 ha        1 XJ8      0.172000
     54 H4         -1.8450    3.0350   -5.2350 ha        1 XJ8      0.141000
     55 H121       -2.1820   -0.5350   -5.8610 hx        1 XJ8      0.116700
     56 H122       -2.5640    0.8570   -4.7340 hx        1 XJ8      0.116700
     57 H11        -0.5990   -1.3510   -6.9860 ha        1 XJ8      0.103000
     58 H9          0.8370   -2.0620   -8.8730 ha        1 XJ8      0.159000
     59 H101        2.1800   -1.3360  -10.7480 hn        1 XJ8      0.449300
     60 H102        2.6400    0.2720  -11.0520 hn        1 XJ8      0.449300
     61 H13        -0.3540    0.6050   -3.7690 hn        1 XJ8      0.479800
     62 H2          0.7120    3.8470   -8.6180 ha        1 XJ8      0.183000
     63 H242       -1.7320   -1.9410   -0.8460 hn        1 XJ8      0.480800
     64 H132        0.0300   -0.6340   -4.8220 hn        1 XJ8      0.479800
     65 H3         -0.7420    4.6430   -6.7560 ha        1 XJ8      0.168000
@<TRIPOS>BOND
     1    1    2 2   
     2    1    3 1   
     3    1   15 1   
     4    3    4 ar  
     5    3    8 ar  
     6    4    5 ar  
     7    4   39 1   
     8    5    6 ar  
     9    5   41 1   
    10    6    7 ar  
    11    6   13 1   
    12    7    8 ar  
    13    7    9 1   
    14    8   40 1   
    15    9   10 2   
    16    9   14 1   
    17   10   11 1   
    18   10   43 1   
    19   11   12 2   
    20   11   13 1   
    21   13   42 1   
    22   14   44 1   
    23   15   16 1   
    24   15   45 1   
    25   15   63 1   
    26   16   17 1   
    27   16   19 1   
    28   16   46 1   
    29   17   18 2   
    30   17   38 1   
    31   19   20 1   
    32   19   47 1   
    33   19   48 1   
    34   20   21 ar  
    35   20   22 ar  
    36   21   23 ar  
    37   21   49 1   
    38   22   24 ar  
    39   22   50 1   
    40   23   25 ar  
    41   23   51 1   
    42   24   25 ar  
    43   24   52 1   
    44   25   53 1   
    45   26   27 ar  
    46   26   31 ar  
    47   26   32 ar  
    48   27   28 ar  
    49   27   62 1   
    50   28   29 ar  
    51   28   65 1   
    52   29   30 ar  
    53   29   54 1   
    54   30   31 ar  
    55   30   37 1   
    56   31   36 ar  
    57   32   33 ar  
    58   33   34 ar  
    59   33   35 1   
    60   34   36 ar  
    61   34   58 1   
    62   35   59 1   
    63   35   60 1   
    64   36   57 1   
    65   37   38 1   
    66   37   55 1   
    67   37   56 1   
    68   38   61 1   
    69   38   64 1   
@<TRIPOS>SUBSTRUCTURE
     1 XJ8         1 TEMP              0 ****  ****    0 ROOT
