@<TRIPOS>MOLECULE
XJ8
   65    69     1     0     0
SMALL
bcc


@<TRIPOS>ATOM
      1 C25        -0.5820   -0.2250   -0.5300 c         1 XJ8      0.610700
      2 O26        -0.4080    0.5520   -1.4750 o         1 XJ8     -0.565100
      3 C27        -0.6320    0.0290    0.8740 ca        1 XJ8     -0.299600
      4 C28        -0.9130   -0.9490    1.8670 ca        1 XJ8     -0.029000
      5 C29        -0.9490   -0.6210    3.1940 ca        1 XJ8     -0.187000
      6 C30        -0.7020    0.7280    3.6330 ca        1 XJ8      0.214600
      7 C31        -0.4200    1.7150    2.6230 ca        1 XJ8     -0.168800
      8 C32        -0.3910    1.3630    1.2850 ca        1 XJ8      0.082000
      9 C33        -0.1720    3.0810    3.0710 cc        1 XJ8      0.223900
     10 C34        -0.2040    3.4090    4.3890 cd        1 XJ8     -0.316200
     11 C35        -0.4900    2.4040    5.4080 c         1 XJ8      0.711700
     12 O36        -0.5440    2.5880    6.6260 o         1 XJ8     -0.516500
     13 N37        -0.7320    1.0650    4.9450 ns        1 XJ8     -0.413100
     14 O38         0.0880    3.9630    2.0610 oh        1 XJ8     -0.490100
     15 N24        -0.7760   -1.6750   -0.9940 ny        1 XJ8     -0.683800
     16 C21        -0.3720   -1.8810   -2.4220 c3        1 XJ8      0.059500
     17 C22        -1.3340   -1.1260   -3.3520 c         1 XJ8      0.519100
     18 O23        -2.5470   -1.2820   -3.3290 o         1 XJ8     -0.385100
     19 C20        -0.3920   -3.3760   -2.8100 c3        1 XJ8     -0.042100
     20 C17         0.3980   -4.1800   -1.8430 ca        1 XJ8     -0.186300
     21 C16        -0.2520   -4.8460   -0.7930 ca        1 XJ8     -0.129000
     22 C18         1.7790   -4.3340   -2.0110 ca        1 XJ8     -0.129000
     23 C15         0.4760   -5.6530    0.0790 ca        1 XJ8     -0.108500
     24 C19         2.5040   -5.1410   -1.1340 ca        1 XJ8     -0.108500
     25 C14         1.8550   -5.8010   -0.0900 ca        1 XJ8     -0.080000
     26 C1          0.4770    1.7740   -8.1370 ca        1 XJ8      0.458600
     27 C2          0.3010    3.1830   -7.8980 ca        1 XJ8     -0.106300
     28 C3         -0.4920    3.6200   -6.8680 ca        1 XJ8     -0.132000
     29 C4         -1.1400    2.7030   -6.0140 ca        1 XJ8     -0.072000
     30 C5         -0.9980    1.3420   -6.2130 ca        1 XJ8     -0.182300
     31 C6         -0.1990    0.8460   -7.2810 ca        1 XJ8     -0.194300
     32 N7          1.2740    1.3900   -9.1800 nb        1 XJ8     -0.724000
     33 C8          1.4240    0.0670   -9.4310 ca        1 XJ8      0.694200
     34 C9          0.7310   -0.9400   -8.6320 ca        1 XJ8     -0.239300
     35 N10         2.2860   -0.3470  -10.4210 nv        1 XJ8     -0.939500
     36 C11        -0.0470   -0.5370   -7.5860 ca        1 XJ8     -0.111000
     37 C12        -1.7160    0.4060   -5.3140 c3        1 XJ8      0.193100
     38 N13        -0.7300   -0.1620   -4.3050 ny        1 XJ8     -0.667800
     39 H28        -1.1190   -1.9960    1.5910 ha        1 XJ8      0.128000
     40 H32        -0.1730    2.1420    0.5270 ha        1 XJ8      0.188000
     41 H29        -1.1730   -1.3970    3.9480 ha        1 XJ8      0.178000
     42 H37        -0.9320    0.3680    5.6380 hn        1 XJ8      0.360500
     43 H34        -0.0220    4.4280    4.7660 ha        1 XJ8      0.201000
     44 H38         0.2410    4.8450    2.4440 ho        1 XJ8      0.462000
     45 H24        -1.7630   -1.9360   -0.8730 hn        1 XJ8      0.480800
     46 H21         0.6870   -1.4890   -2.5160 hx        1 XJ8      0.135700
     47 H201        0.0500   -3.4620   -3.8400 hc        1 XJ8      0.099200
     48 H202       -1.4540   -3.7420   -2.8600 hc        1 XJ8      0.099200
     49 H16        -1.3460   -4.7790   -0.6870 ha        1 XJ8      0.135000
     50 H18         2.2940   -3.8410   -2.8490 ha        1 XJ8      0.135000
     51 H15        -0.0410   -6.1940    0.8890 ha        1 XJ8      0.167000
     52 H19         3.5900   -5.2700   -1.2780 ha        1 XJ8      0.167000
     53 H14         2.4270   -6.4520    0.5930 ha        1 XJ8      0.172000
     54 H4         -1.7750    3.0930   -5.2020 ha        1 XJ8      0.141000
     55 H121       -2.1680   -0.4630   -5.8720 hx        1 XJ8      0.116700
     56 H122       -2.5320    0.9220   -4.7300 hx        1 XJ8      0.116700
     57 H11        -0.5940   -1.2920   -7.0000 ha        1 XJ8      0.103000
     58 H9          0.8380   -2.0040   -8.8900 ha        1 XJ8      0.159000
     59 H101        2.2010   -1.2780  -10.7510 hn        1 XJ8      0.449300
     60 H102        2.6890    0.3260  -11.0330 hn        1 XJ8      0.449300
     61 H13        -0.3300    0.6220   -3.7590 hn        1 XJ8      0.480300
     62 H2          0.8100    3.9020   -8.5640 ha        1 XJ8      0.183000
     63 H242       -0.2030   -2.3130   -0.4150 hn        1 XJ8      0.480800
     64 H132        0.0380   -0.6110   -4.8250 hn        1 XJ8      0.480300
     65 H3         -0.6380    4.7010   -6.6980 ha        1 XJ8      0.168000
@<TRIPOS>BOND
     1    1    2 2   
     2    1    3 1   
     3    1   15 1   
     4    3    4 ar  
     5    3    8 ar  
     6    4    5 ar  
     7    4   39 1   
     8    5    6 ar  
     9    5   41 1   
    10    6    7 ar  
    11    6   13 1   
    12    7    8 ar  
    13    7    9 1   
    14    8   40 1   
    15    9   10 2   
    16    9   14 1   
    17   10   11 1   
    18   10   43 1   
    19   11   12 2   
    20   11   13 1   
    21   13   42 1   
    22   14   44 1   
    23   15   16 1   
    24   15   45 1   
    25   15   63 1   
    26   16   17 1   
    27   16   19 1   
    28   16   46 1   
    29   17   18 2   
    30   17   38 1   
    31   19   20 1   
    32   19   47 1   
    33   19   48 1   
    34   20   21 ar  
    35   20   22 ar  
    36   21   23 ar  
    37   21   49 1   
    38   22   24 ar  
    39   22   50 1   
    40   23   25 ar  
    41   23   51 1   
    42   24   25 ar  
    43   24   52 1   
    44   25   53 1   
    45   26   27 ar  
    46   26   31 ar  
    47   26   32 ar  
    48   27   28 ar  
    49   27   62 1   
    50   28   29 ar  
    51   28   65 1   
    52   29   30 ar  
    53   29   54 1   
    54   30   31 ar  
    55   30   37 1   
    56   31   36 ar  
    57   32   33 ar  
    58   33   34 ar  
    59   33   35 1   
    60   34   36 ar  
    61   34   58 1   
    62   35   59 1   
    63   35   60 1   
    64   36   57 1   
    65   37   38 1   
    66   37   55 1   
    67   37   56 1   
    68   38   61 1   
    69   38   64 1   
@<TRIPOS>SUBSTRUCTURE
     1 XJ8         1 TEMP              0 ****  ****    0 ROOT
