@<TRIPOS>MOLECULE
XJG
   44    46     1     0     0
SMALL
bcc


@<TRIPOS>ATOM
      1 C1         -1.8220    3.3420   -0.1740 c3        1 XJG     -0.087600
      2 C2         -2.8020    2.3250   -0.7290 c3        1 XJG     -0.014400
      3 C3         -2.8810    2.4350   -2.2410 c3        1 XJG     -0.087600
      4 C4         -2.4290    0.9380   -0.3120 ca        1 XJG     -0.142300
      5 C5         -1.2070    0.3890   -0.6870 ca        1 XJG     -0.034000
      6 C6         -0.8240   -0.9070   -0.3140 ca        1 XJG     -0.263600
      7 C7          0.4850   -1.4680   -0.7300 c         1 XJG      0.676700
      8 O8          0.5900   -2.6670   -1.0780 o         1 XJG     -0.628100
      9 N9          1.6010   -0.6350   -0.7960 n         1 XJG     -0.441800
     10 C10         2.9240   -1.2420   -1.0170 c3        1 XJG      0.120800
     11 C11         3.8820   -0.4500   -0.1700 ca        1 XJG     -0.107800
     12 C12         5.2390   -0.6160    0.0290 ca        1 XJG     -0.105500
     13 C13         5.9010    0.2790    0.8840 ca        1 XJG     -0.126500
     14 C14         5.2090    1.3060    1.5180 ca        1 XJG     -0.126500
     15 C15         3.8300    1.4770    1.3180 ca        1 XJG     -0.105500
     16 C16         3.1780    0.5980    0.4760 ca        1 XJG     -0.107800
     17 C17         1.7280    0.5430    0.0700 c3        1 XJG      0.120800
     18 C18        -1.7320   -1.6930    0.4210 ca        1 XJG      0.223100
     19 O19        -1.5010   -2.9800    0.8220 oh        1 XJG     -0.503100
     20 C20        -2.9680   -1.1600    0.8320 ca        1 XJG     -0.258000
     21 C21        -3.3060    0.1440    0.4700 ca        1 XJG      0.185100
     22 O22        -4.4940    0.7420    0.8310 os        1 XJG     -0.323900
     23 C19        -5.4000   -0.0500    1.5930 c3        1 XJG      0.111700
     24 H11C       -2.1290    4.3720   -0.4780 hc        1 XJG      0.035033
     25 H12C       -1.7980    3.2900    0.9410 hc        1 XJG      0.035033
     26 H13C       -0.7910    3.1520   -0.5600 hc        1 XJG      0.035033
     27 H2         -3.8230    2.5660   -0.3110 hc        1 XJG      0.072700
     28 H31C       -1.8870    2.2310   -2.7070 hc        1 XJG      0.035033
     29 H32C       -3.6200    1.7030   -2.6450 hc        1 XJG      0.035033
     30 H33C       -3.2030    3.4650   -2.5300 hc        1 XJG      0.035033
     31 H5         -0.5290    0.9940   -1.3120 ha        1 XJG      0.147000
     32 H101        2.9230   -2.3330   -0.7410 h1        1 XJG      0.071200
     33 H102        3.1760   -1.1500   -2.1090 h1        1 XJG      0.071200
     34 H171        1.4540    1.4600   -0.5230 h1        1 XJG      0.071200
     35 H172        1.0480    0.4780    0.9630 h1        1 XJG      0.071200
     36 H12         5.7930   -1.4260   -0.4670 ha        1 XJG      0.139000
     37 H13         6.9810    0.1610    1.0530 ha        1 XJG      0.134000
     38 H14         5.7450    1.9970    2.1860 ha        1 XJG      0.134000
     39 H15         3.2910    2.2910    1.8220 ha        1 XJG      0.139000
     40 H19        -0.7310   -3.3360    0.3460 ho        1 XJG      0.458000
     41 H20        -3.6400   -1.7970    1.4220 ha        1 XJG      0.160000
     42 H191       -6.2700    0.6370    1.7510 h1        1 XJG      0.049367
     43 H192       -5.7110   -0.9560    1.0180 h1        1 XJG      0.049367
     44 H193       -4.9430   -0.3410    2.5700 h1        1 XJG      0.049367
@<TRIPOS>BOND
     1    1    2 1   
     2    1   24 1   
     3    1   25 1   
     4    1   26 1   
     5    2    3 1   
     6    2    4 1   
     7    2   27 1   
     8    3   28 1   
     9    3   29 1   
    10    3   30 1   
    11    4    5 ar  
    12    4   21 ar  
    13    5    6 ar  
    14    5   31 1   
    15    6    7 1   
    16    6   18 ar  
    17    7    8 2   
    18    7    9 1   
    19    9   10 1   
    20    9   17 1   
    21   10   11 1   
    22   10   32 1   
    23   10   33 1   
    24   11   12 ar  
    25   11   16 ar  
    26   12   13 ar  
    27   12   36 1   
    28   13   14 ar  
    29   13   37 1   
    30   14   15 ar  
    31   14   38 1   
    32   15   16 ar  
    33   15   39 1   
    34   16   17 1   
    35   17   34 1   
    36   17   35 1   
    37   18   19 1   
    38   18   20 ar  
    39   19   40 1   
    40   20   21 ar  
    41   20   41 1   
    42   21   22 1   
    43   22   23 1   
    44   23   42 1   
    45   23   43 1   
    46   23   44 1   
@<TRIPOS>SUBSTRUCTURE
     1 XJG         1 TEMP              0 ****  ****    0 ROOT
