@<TRIPOS>MOLECULE
XJG
   44    46     1     0     0
SMALL
bcc


@<TRIPOS>ATOM
      1 C1          0.2580    0.2640    0.2120 c3        1 XJG     -0.087600
      2 C2          1.7570    0.1350    0.0130 c3        1 XJG     -0.014400
      3 C3          2.4780    0.2310    1.3450 c3        1 XJG     -0.087600
      4 C4          2.0960   -1.1420   -0.6890 ca        1 XJG     -0.142300
      5 C5          1.7770   -2.3710   -0.1210 ca        1 XJG     -0.034000
      6 C6          2.0780   -3.5860   -0.7510 ca        1 XJG     -0.263600
      7 C7          1.7280   -4.8830   -0.1200 c         1 XJG      0.676700
      8 O8          2.5090   -5.8610   -0.1840 o         1 XJG     -0.628100
      9 N9          0.5450   -4.9960    0.6070 n         1 XJG     -0.441800
     10 C10         0.1170   -6.3310    1.0570 c3        1 XJG      0.120800
     11 C11        -1.3810   -6.3480    0.9160 ca        1 XJG     -0.107800
     12 C12        -2.2850   -7.3640    1.1600 ca        1 XJG     -0.105500
     13 C13        -3.6480   -7.1070    0.9440 ca        1 XJG     -0.126500
     14 C14        -4.0790   -5.8620    0.4950 ca        1 XJG     -0.126500
     15 C15        -3.1630   -4.8280    0.2470 ca        1 XJG     -0.105500
     16 C16        -1.8210   -5.0800    0.4600 ca        1 XJG     -0.107800
     17 C17        -0.6290   -4.1740    0.2910 c3        1 XJG      0.120800
     18 C18         2.7730   -3.5570   -1.9750 ca        1 XJG      0.223100
     19 O19         3.1580   -4.6640   -2.6790 oh        1 XJG     -0.503100
     20 C20         3.0940   -2.3290   -2.5850 ca        1 XJG     -0.258000
     21 C21         2.7520   -1.1380   -1.9460 ca        1 XJG      0.185100
     22 O22         3.0270    0.1050   -2.4740 os        1 XJG     -0.323900
     23 C19         3.7120    0.1300   -3.7230 c3        1 XJG      0.111700
     24 H11C       -0.1320   -0.5690    0.8450 hc        1 XJG      0.035033
     25 H12C       -0.2680    0.2390   -0.7720 hc        1 XJG      0.035033
     26 H13C        0.0240    1.2320    0.7170 hc        1 XJG      0.035033
     27 H2          2.0970    1.0010   -0.6270 hc        1 XJG      0.072700
     28 H31C        3.5820    0.1590    1.1940 hc        1 XJG      0.035033
     29 H32C        2.2470    1.2080    1.8330 hc        1 XJG      0.035033
     30 H33C        2.1600   -0.5920    2.0290 hc        1 XJG      0.035033
     31 H5          1.2840   -2.3810    0.8660 ha        1 XJG      0.147000
     32 H101        0.4260   -6.4570    2.1310 h1        1 XJG      0.071200
     33 H102        0.6040   -7.1430    0.4470 h1        1 XJG      0.071200
     34 H171       -0.6810   -3.3200    1.0230 h1        1 XJG      0.071200
     35 H172       -0.5720   -3.7500   -0.7490 h1        1 XJG      0.071200
     36 H12        -1.9530   -8.3500    1.5140 ha        1 XJG      0.139000
     37 H13        -4.3820   -7.9040    1.1340 ha        1 XJG      0.134000
     38 H14        -5.1520   -5.6810    0.3310 ha        1 XJG      0.134000
     39 H15        -3.5110   -3.8490   -0.1070 ha        1 XJG      0.139000
     40 H19         3.0790   -5.4530   -2.1140 ho        1 XJG      0.458000
     41 H20         3.6180   -2.3480   -3.5500 ha        1 XJG      0.160000
     42 H191        4.7130   -0.3600   -3.6340 h1        1 XJG      0.049367
     43 H192        3.8240    1.2240   -3.9330 h1        1 XJG      0.049367
     44 H193        3.1010   -0.3650   -4.5170 h1        1 XJG      0.049367
@<TRIPOS>BOND
     1    1    2 1   
     2    1   24 1   
     3    1   25 1   
     4    1   26 1   
     5    2    3 1   
     6    2    4 1   
     7    2   27 1   
     8    3   28 1   
     9    3   29 1   
    10    3   30 1   
    11    4    5 ar  
    12    4   21 ar  
    13    5    6 ar  
    14    5   31 1   
    15    6    7 1   
    16    6   18 ar  
    17    7    8 2   
    18    7    9 1   
    19    9   10 1   
    20    9   17 1   
    21   10   11 1   
    22   10   32 1   
    23   10   33 1   
    24   11   12 ar  
    25   11   16 ar  
    26   12   13 ar  
    27   12   36 1   
    28   13   14 ar  
    29   13   37 1   
    30   14   15 ar  
    31   14   38 1   
    32   15   16 ar  
    33   15   39 1   
    34   16   17 1   
    35   17   34 1   
    36   17   35 1   
    37   18   19 1   
    38   18   20 ar  
    39   19   40 1   
    40   20   21 ar  
    41   20   41 1   
    42   21   22 1   
    43   22   23 1   
    44   23   42 1   
    45   23   43 1   
    46   23   44 1   
@<TRIPOS>SUBSTRUCTURE
     1 XJG         1 TEMP              0 ****  ****    0 ROOT
