@<TRIPOS>MOLECULE
XJG
   44    46     1     0     0
SMALL
bcc


@<TRIPOS>ATOM
      1 C1          0.2510    0.2640    0.2070 c3        1 XJG     -0.087600
      2 C2          1.7500    0.1360    0.0140 c3        1 XJG     -0.014400
      3 C3          2.4670    0.2340    1.3480 c3        1 XJG     -0.087600
      4 C4          2.0940   -1.1400   -0.6860 ca        1 XJG     -0.142300
      5 C5          1.7750   -2.3690   -0.1180 ca        1 XJG     -0.034000
      6 C6          2.0800   -3.5850   -0.7460 ca        1 XJG     -0.263600
      7 C7          1.7310   -4.8810   -0.1150 c         1 XJG      0.676700
      8 O8          2.5140   -5.8580   -0.1760 o         1 XJG     -0.628100
      9 N9          0.5460   -4.9960    0.6090 n         1 XJG     -0.441800
     10 C10         0.1190   -6.3320    1.0590 c3        1 XJG      0.120800
     11 C11        -1.3790   -6.3510    0.9140 ca        1 XJG     -0.107800
     12 C12        -2.2820   -7.3680    1.1570 ca        1 XJG     -0.105500
     13 C13        -3.6440   -7.1140    0.9370 ca        1 XJG     -0.126500
     14 C14        -4.0760   -5.8700    0.4860 ca        1 XJG     -0.126500
     15 C15        -3.1610   -4.8350    0.2390 ca        1 XJG     -0.105500
     16 C16        -1.8190   -5.0840    0.4560 ca        1 XJG     -0.107800
     17 C17        -0.6290   -4.1760    0.2890 c3        1 XJG      0.120800
     18 C18         2.7790   -3.5550   -1.9680 ca        1 XJG      0.223100
     19 O19         3.1670   -4.6620   -2.6700 oh        1 XJG     -0.503100
     20 C20         3.0990   -2.3270   -2.5780 ca        1 XJG     -0.258000
     21 C21         2.7530   -1.1360   -1.9420 ca        1 XJG      0.185100
     22 O22         3.0280    0.1070   -2.4700 os        1 XJG     -0.323900
     23 C19         3.7160    0.1310   -3.7170 c3        1 XJG      0.111700
     24 H11C       -0.1410   -0.5700    0.8390 hc        1 XJG      0.035033
     25 H12C       -0.2720    0.2370   -0.7780 hc        1 XJG      0.035033
     26 H13C        0.0130    1.2310    0.7120 hc        1 XJG      0.035033
     27 H2          2.0910    1.0020   -0.6260 hc        1 XJG      0.072700
     28 H31C        2.1470   -0.5880    2.0320 hc        1 XJG      0.035033
     29 H32C        3.5710    0.1640    1.2020 hc        1 XJG      0.035033
     30 H33C        2.2320    1.2110    1.8350 hc        1 XJG      0.035033
     31 H5          1.2800   -2.3790    0.8680 ha        1 XJG      0.147000
     32 H101        0.6090   -7.1430    0.4510 h1        1 XJG      0.071200
     33 H102        0.4250   -6.4560    2.1340 h1        1 XJG      0.071200
     34 H171       -0.5700   -3.7530   -0.7510 h1        1 XJG      0.071200
     35 H172       -0.6840   -3.3220    1.0210 h1        1 XJG      0.071200
     36 H12        -1.9490   -8.3530    1.5120 ha        1 XJG      0.139000
     37 H13        -4.3770   -7.9120    1.1250 ha        1 XJG      0.134000
     38 H14        -5.1490   -5.6910    0.3190 ha        1 XJG      0.134000
     39 H15        -3.5100   -3.8560   -0.1170 ha        1 XJG      0.139000
     40 H19         3.0880   -5.4510   -2.1050 ho        1 XJG      0.458000
     41 H20         3.6260   -2.3460   -3.5420 ha        1 XJG      0.160000
     42 H191        3.1080   -0.3640   -4.5120 h1        1 XJG      0.049367
     43 H192        4.7170   -0.3560   -3.6240 h1        1 XJG      0.049367
     44 H193        3.8270    1.2260   -3.9270 h1        1 XJG      0.049367
@<TRIPOS>BOND
     1    1    2 1   
     2    1   24 1   
     3    1   25 1   
     4    1   26 1   
     5    2    3 1   
     6    2    4 1   
     7    2   27 1   
     8    3   28 1   
     9    3   29 1   
    10    3   30 1   
    11    4    5 ar  
    12    4   21 ar  
    13    5    6 ar  
    14    5   31 1   
    15    6    7 1   
    16    6   18 ar  
    17    7    8 2   
    18    7    9 1   
    19    9   10 1   
    20    9   17 1   
    21   10   11 1   
    22   10   32 1   
    23   10   33 1   
    24   11   12 ar  
    25   11   16 ar  
    26   12   13 ar  
    27   12   36 1   
    28   13   14 ar  
    29   13   37 1   
    30   14   15 ar  
    31   14   38 1   
    32   15   16 ar  
    33   15   39 1   
    34   16   17 1   
    35   17   34 1   
    36   17   35 1   
    37   18   19 1   
    38   18   20 ar  
    39   19   40 1   
    40   20   21 ar  
    41   20   41 1   
    42   21   22 1   
    43   22   23 1   
    44   23   42 1   
    45   23   43 1   
    46   23   44 1   
@<TRIPOS>SUBSTRUCTURE
     1 XJG         1 TEMP              0 ****  ****    0 ROOT
