@<TRIPOS>MOLECULE
XJG
   44    46     1     0     0
SMALL
bcc


@<TRIPOS>ATOM
      1 C1          0.2470    0.2640    0.2050 c3        1 XJG     -0.087600
      2 C2          1.7470    0.1380    0.0110 c3        1 XJG     -0.014400
      3 C3          2.4650    0.2380    1.3450 c3        1 XJG     -0.087600
      4 C4          2.0920   -1.1390   -0.6880 ca        1 XJG     -0.142300
      5 C5          1.7740   -2.3680   -0.1180 ca        1 XJG     -0.034000
      6 C6          2.0810   -3.5840   -0.7440 ca        1 XJG     -0.263600
      7 C7          1.7330   -4.8800   -0.1120 c         1 XJG      0.676700
      8 O8          2.5170   -5.8560   -0.1710 o         1 XJG     -0.628100
      9 N9          0.5470   -4.9950    0.6120 n         1 XJG     -0.441800
     10 C10         0.1220   -6.3310    1.0630 c3        1 XJG      0.120800
     11 C11        -1.3760   -6.3520    0.9170 ca        1 XJG     -0.107800
     12 C12        -2.2780   -7.3700    1.1600 ca        1 XJG     -0.105500
     13 C13        -3.6410   -7.1170    0.9390 ca        1 XJG     -0.126500
     14 C14        -4.0740   -5.8750    0.4870 ca        1 XJG     -0.126500
     15 C15        -3.1590   -4.8390    0.2390 ca        1 XJG     -0.105500
     16 C16        -1.8180   -5.0860    0.4570 ca        1 XJG     -0.107800
     17 C17        -0.6280   -4.1770    0.2900 c3        1 XJG      0.120800
     18 C18         2.7800   -3.5550   -1.9660 ca        1 XJG      0.223100
     19 O19         3.1690   -4.6630   -2.6670 oh        1 XJG     -0.503100
     20 C20         3.0990   -2.3280   -2.5780 ca        1 XJG     -0.258000
     21 C21         2.7520   -1.1360   -1.9430 ca        1 XJG      0.185100
     22 O22         3.0250    0.1070   -2.4720 os        1 XJG     -0.323900
     23 C19         3.7130    0.1300   -3.7200 c3        1 XJG      0.111700
     24 H11C       -0.2760    0.2350   -0.7800 hc        1 XJG      0.035033
     25 H12C       -0.1420   -0.5700    0.8390 hc        1 XJG      0.035033
     26 H13C        0.0090    1.2320    0.7080 hc        1 XJG      0.035033
     27 H2          2.0870    1.0030   -0.6290 hc        1 XJG      0.072700
     28 H31C        2.1460   -0.5840    2.0300 hc        1 XJG      0.035033
     29 H32C        2.2290    1.2160    1.8310 hc        1 XJG      0.035033
     30 H33C        3.5690    0.1690    1.1980 hc        1 XJG      0.035033
     31 H5          1.2790   -2.3770    0.8680 ha        1 XJG      0.147000
     32 H101        0.6130   -7.1420    0.4560 h1        1 XJG      0.071200
     33 H102        0.4270   -6.4540    2.1380 h1        1 XJG      0.071200
     34 H171       -0.5690   -3.7550   -0.7500 h1        1 XJG      0.071200
     35 H172       -0.6850   -3.3220    1.0210 h1        1 XJG      0.071200
     36 H12        -1.9440   -8.3540    1.5170 ha        1 XJG      0.139000
     37 H13        -4.3730   -7.9170    1.1270 ha        1 XJG      0.134000
     38 H14        -5.1460   -5.6960    0.3190 ha        1 XJG      0.134000
     39 H15        -3.5100   -3.8600   -0.1180 ha        1 XJG      0.139000
     40 H19         3.0910   -5.4500   -2.1010 ho        1 XJG      0.458000
     41 H20         3.6260   -2.3470   -3.5420 ha        1 XJG      0.160000
     42 H191        3.1060   -0.3670   -4.5140 h1        1 XJG      0.049367
     43 H192        4.7150   -0.3560   -3.6260 h1        1 XJG      0.049367
     44 H193        3.8220    1.2240   -3.9310 h1        1 XJG      0.049367
@<TRIPOS>BOND
     1    1    2 1   
     2    1   24 1   
     3    1   25 1   
     4    1   26 1   
     5    2    3 1   
     6    2    4 1   
     7    2   27 1   
     8    3   28 1   
     9    3   29 1   
    10    3   30 1   
    11    4    5 ar  
    12    4   21 ar  
    13    5    6 ar  
    14    5   31 1   
    15    6    7 1   
    16    6   18 ar  
    17    7    8 2   
    18    7    9 1   
    19    9   10 1   
    20    9   17 1   
    21   10   11 1   
    22   10   32 1   
    23   10   33 1   
    24   11   12 ar  
    25   11   16 ar  
    26   12   13 ar  
    27   12   36 1   
    28   13   14 ar  
    29   13   37 1   
    30   14   15 ar  
    31   14   38 1   
    32   15   16 ar  
    33   15   39 1   
    34   16   17 1   
    35   17   34 1   
    36   17   35 1   
    37   18   19 1   
    38   18   20 ar  
    39   19   40 1   
    40   20   21 ar  
    41   20   41 1   
    42   21   22 1   
    43   22   23 1   
    44   23   42 1   
    45   23   43 1   
    46   23   44 1   
@<TRIPOS>SUBSTRUCTURE
     1 XJG         1 TEMP              0 ****  ****    0 ROOT
