@<TRIPOS>MOLECULE
XJH
   50    53     1     0     0
SMALL
bcc


@<TRIPOS>ATOM
      1 N01        -4.5640    1.3620   -0.7700 nb        1 XJH     -0.728000
      2 C02        -5.7880    1.9790   -0.7350 ca        1 XJH      0.631200
      3 N02        -6.3610    2.4210   -1.9380 nh        1 XJH     -0.924500
      4 C03        -6.5290    2.1180    0.4800 ca        1 XJH     -0.300300
      5 C04        -5.9990    1.5850    1.6470 ca        1 XJH     -0.059000
      6 C05        -4.7640    0.9370    1.6130 ca        1 XJH     -0.293300
      7 C06        -4.0800    0.8490    0.3820 ca        1 XJH      0.448600
      8 C07        -2.7350    0.1730    0.3550 c3        1 XJH     -0.119700
      9 N1'        -2.8190   -3.3470    0.6680 n3        1 XJH     -0.788200
     10 O10        -0.4490   -1.0660    0.2590 os        1 XJH     -0.329900
     11 C11         0.8920   -1.2310   -0.0350 ca        1 XJH      0.146100
     12 C12         1.4110   -2.2550   -0.8390 ca        1 XJH     -0.224000
     13 C13         2.7890   -2.3320   -1.0380 ca        1 XJH     -0.072000
     14 C14         3.6520   -1.4150   -0.4460 ca        1 XJH     -0.208000
     15 C15         3.1150   -0.4010    0.3590 ca        1 XJH      0.138100
     16 C16         1.7360   -0.2850    0.5720 ca        1 XJH     -0.174000
     17 C2'        -3.6420   -2.2050    0.2800 c3        1 XJH      0.139800
     18 O20         3.8980    0.5020    1.0710 os        1 XJH     -0.249200
     19 C21         5.1050    0.8820    0.4880 ca        1 XJH      0.102100
     20 C22         5.2380    1.1440   -0.8810 ca        1 XJH     -0.154000
     21 C23         6.4550    1.6270   -1.3590 ca        1 XJH     -0.109500
     22 C24         7.5190    1.8490   -0.4850 ca        1 XJH     -0.147000
     23 C25         7.3720    1.5860    0.8780 ca        1 XJH     -0.109500
     24 C26         6.1680    1.0960    1.3780 ca        1 XJH     -0.154000
     25 C3'        -2.7680   -1.1330   -0.4130 c3        1 XJH     -0.080700
     26 C4'        -1.3760   -1.7890   -0.5600 c3        1 XJH      0.111100
     27 C5'        -1.5490   -3.2380   -0.0360 c3        1 XJH      0.117800
     28 HN02       -5.7440    2.4770   -2.7190 hn        1 XJH      0.401800
     29 HN0A       -6.9470    3.2180   -1.8300 hn        1 XJH      0.401800
     30 H03        -7.5020    2.6250    0.4860 ha        1 XJH      0.142000
     31 H04        -6.5520    1.6730    2.5940 ha        1 XJH      0.136000
     32 H05        -4.3270    0.5060    2.5220 ha        1 XJH      0.143000
     33 H07        -1.9780    0.8550   -0.1190 hc        1 XJH      0.068200
     34 H07A       -2.3960   -0.0160    1.4080 hc        1 XJH      0.068200
     35 HN1'       -2.6640   -3.3390    1.6600 hn        1 XJH      0.351800
     36 H12         0.7490   -2.9980   -1.3030 ha        1 XJH      0.142000
     37 H13         3.2000   -3.1350   -1.6690 ha        1 XJH      0.136000
     38 H14         4.7380   -1.4790   -0.6000 ha        1 XJH      0.150000
     39 H16         1.3250    0.5120    1.2050 ha        1 XJH      0.165000
     40 H2'        -4.4150   -2.5820   -0.4460 h1        1 XJH      0.056700
     41 H2'A       -4.1820   -1.7670    1.1620 h1        1 XJH      0.056700
     42 H22         4.3930    0.9660   -1.5610 ha        1 XJH      0.149500
     43 H23         6.5710    1.8380   -2.4330 ha        1 XJH      0.135500
     44 H24         8.4740    2.2330   -0.8700 ha        1 XJH      0.134000
     45 H25         8.2130    1.7640    1.5650 ha        1 XJH      0.135500
     46 H26         6.0350    0.8880    2.4490 ha        1 XJH      0.149500
     47 H3'        -3.1690   -0.9400   -1.4440 hc        1 XJH      0.080700
     48 H4'        -1.0370   -1.7720   -1.6270 h1        1 XJH      0.064700
     49 H5'        -0.6830   -3.5240    0.6180 h1        1 XJH      0.060700
     50 H5'A       -1.5830   -3.9420   -0.9120 h1        1 XJH      0.060700
@<TRIPOS>BOND
     1    1    2 ar  
     2    1    7 ar  
     3    2    3 1   
     4    2    4 ar  
     5    3   28 1   
     6    3   29 1   
     7    4    5 ar  
     8    4   30 1   
     9    5    6 ar  
    10    5   31 1   
    11    6    7 ar  
    12    6   32 1   
    13    7    8 1   
    14    8   25 1   
    15    8   33 1   
    16    8   34 1   
    17    9   17 1   
    18    9   27 1   
    19    9   35 1   
    20   10   11 1   
    21   10   26 1   
    22   11   12 ar  
    23   11   16 ar  
    24   12   13 ar  
    25   12   36 1   
    26   13   14 ar  
    27   13   37 1   
    28   14   15 ar  
    29   14   38 1   
    30   15   16 ar  
    31   15   18 1   
    32   16   39 1   
    33   17   25 1   
    34   17   40 1   
    35   17   41 1   
    36   18   19 1   
    37   19   20 ar  
    38   19   24 ar  
    39   20   21 ar  
    40   20   42 1   
    41   21   22 ar  
    42   21   43 1   
    43   22   23 ar  
    44   22   44 1   
    45   23   24 ar  
    46   23   45 1   
    47   24   46 1   
    48   25   26 1   
    49   25   47 1   
    50   26   27 1   
    51   26   48 1   
    52   27   49 1   
    53   27   50 1   
@<TRIPOS>SUBSTRUCTURE
     1 XJH         1 TEMP              0 ****  ****    0 ROOT
