@<TRIPOS>MOLECULE
XJH
   51    54     1     0     0
SMALL
bcc


@<TRIPOS>ATOM
      1 N01        -0.3000   -0.4900    0.0870 nb        1 XJH     -0.663000
      2 C02         1.0440   -0.6950    0.1880 ca        1 XJH      0.437200
      3 N02         1.6920   -1.3000   -0.9990 n4        1 XJH     -0.817300
      4 C03         1.8240   -0.3820    1.3150 ca        1 XJH     -0.204300
      5 C04         1.1520    0.1810    2.4110 ca        1 XJH     -0.069000
      6 C05        -0.2170    0.3970    2.3410 ca        1 XJH     -0.184300
      7 C06        -0.9240    0.0470    1.1550 ca        1 XJH      0.470600
      8 C07        -2.4110    0.2630    1.1050 c3        1 XJH     -0.131700
      9 N1'        -3.3320    3.6950    1.0630 n3        1 XJH     -0.792200
     10 O10        -4.9630    0.5710    0.9010 os        1 XJH     -0.338900
     11 C11        -6.1810    0.1390    0.3900 ca        1 XJH      0.125100
     12 C12        -7.1160    0.9990   -0.1990 ca        1 XJH     -0.211000
     13 C13        -8.3420    0.4820   -0.6170 ca        1 XJH     -0.069000
     14 C14        -8.6420   -0.8680   -0.4530 ca        1 XJH     -0.198000
     15 C15        -7.6950   -1.7100    0.1450 ca        1 XJH      0.146100
     16 C16        -6.4510   -1.2240    0.5730 ca        1 XJH     -0.175000
     17 C2'        -2.2410    2.7770    0.7630 c3        1 XJH      0.148800
     18 O20        -7.8620   -3.0800    0.2930 os        1 XJH     -0.251200
     19 C21        -9.1760   -3.5530    0.3160 ca        1 XJH      0.084100
     20 C22        -9.4420   -4.6810   -0.4710 ca        1 XJH     -0.145500
     21 C23       -10.7000   -5.2750   -0.3870 ca        1 XJH     -0.111000
     22 C24       -11.6760   -4.7450    0.4590 ca        1 XJH     -0.134000
     23 C25       -11.3980   -3.6180    1.2330 ca        1 XJH     -0.111000
     24 C26       -10.1450   -3.0120    1.1690 ca        1 XJH     -0.145500
     25 C3'        -2.8010    1.4380    0.2290 c3        1 XJH     -0.087700
     26 C4'        -4.3360    1.6380    0.1870 c3        1 XJH      0.121100
     27 C5'        -4.5940    2.9850    0.9110 c3        1 XJH      0.121800
     28 HN02        1.2850   -2.2260   -1.1820 hn        1 XJH      0.469800
     29 HN0A        1.5400   -0.7040   -1.8230 hn        1 XJH      0.469800
     30 H03         2.9080   -0.5610    1.3610 ha        1 XJH      0.167000
     31 H04         1.7210    0.4450    3.3200 ha        1 XJH      0.182000
     32 H05        -0.7680    0.8380    3.1890 ha        1 XJH      0.190000
     33 H07        -2.9200   -0.6640    0.7180 hc        1 XJH      0.095700
     34 H07A       -2.7900    0.4340    2.1490 hc        1 XJH      0.095700
     35 HN1'       -3.2990    4.4950    0.4580 hn        1 XJH      0.363800
     36 H12        -6.8950    2.0680   -0.3170 ha        1 XJH      0.139000
     37 H13        -9.0830    1.1510   -1.0810 ha        1 XJH      0.144000
     38 H14        -9.6110   -1.2720   -0.7820 ha        1 XJH      0.159000
     39 H16        -5.7180   -1.8900    1.0450 ha        1 XJH      0.158000
     40 H2'        -1.5210    3.2170    0.0210 h1        1 XJH      0.042200
     41 H2'A       -1.6780    2.6030    1.7220 h1        1 XJH      0.042200
     42 H22        -8.6620   -5.0890   -1.1290 ha        1 XJH      0.148000
     43 H23       -10.9230   -6.1650   -0.9940 ha        1 XJH      0.141000
     44 H24       -12.6670   -5.2190    0.5170 ha        1 XJH      0.141000
     45 H25       -12.1690   -3.2050    1.9010 ha        1 XJH      0.141000
     46 H26        -9.9130   -2.1240    1.7750 ha        1 XJH      0.148000
     47 H3'        -2.4320    1.2610   -0.8150 hc        1 XJH      0.063700
     48 H4'        -4.6940    1.6700   -0.8750 h1        1 XJH      0.068700
     49 H5'        -5.3510    3.5950    0.3510 h1        1 XJH      0.070700
     50 H5'A       -5.0010    2.7770    1.9400 h1        1 XJH      0.070700
     51 H023        2.6970   -1.3930   -0.8230 hn        1 XJH      0.469800
@<TRIPOS>BOND
     1    1    2 ar  
     2    1    7 ar  
     3    2    3 1   
     4    2    4 ar  
     5    3   28 1   
     6    3   29 1   
     7    3   51 1   
     8    4    5 ar  
     9    4   30 1   
    10    5    6 ar  
    11    5   31 1   
    12    6    7 ar  
    13    6   32 1   
    14    7    8 1   
    15    8   25 1   
    16    8   33 1   
    17    8   34 1   
    18    9   17 1   
    19    9   27 1   
    20    9   35 1   
    21   10   11 1   
    22   10   26 1   
    23   11   12 ar  
    24   11   16 ar  
    25   12   13 ar  
    26   12   36 1   
    27   13   14 ar  
    28   13   37 1   
    29   14   15 ar  
    30   14   38 1   
    31   15   16 ar  
    32   15   18 1   
    33   16   39 1   
    34   17   25 1   
    35   17   40 1   
    36   17   41 1   
    37   18   19 1   
    38   19   20 ar  
    39   19   24 ar  
    40   20   21 ar  
    41   20   42 1   
    42   21   22 ar  
    43   21   43 1   
    44   22   23 ar  
    45   22   44 1   
    46   23   24 ar  
    47   23   45 1   
    48   24   46 1   
    49   25   26 1   
    50   25   47 1   
    51   26   27 1   
    52   26   48 1   
    53   27   49 1   
    54   27   50 1   
@<TRIPOS>SUBSTRUCTURE
     1 XJH         1 TEMP              0 ****  ****    0 ROOT
