@<TRIPOS>MOLECULE
XJH
   50    53     1     0     0
SMALL
bcc


@<TRIPOS>ATOM
      1 N01        -0.1600   -0.4690    0.0500 nb        1 XJH     -0.729000
      2 C02         1.1900   -0.6630    0.1970 ca        1 XJH      0.632200
      3 N02         1.9250   -1.1650   -0.8880 nh        1 XJH     -0.925500
      4 C03         1.8530   -0.4410    1.4430 ca        1 XJH     -0.300300
      5 C04         1.0970   -0.0420    2.5370 ca        1 XJH     -0.059000
      6 C05        -0.2790    0.1380    2.3980 ca        1 XJH     -0.293300
      7 C06        -0.8670   -0.0890    1.1360 ca        1 XJH      0.449600
      8 C07        -2.3550    0.0930    0.9960 c3        1 XJH     -0.119700
      9 N1'        -3.4500    3.4620    0.9450 n3        1 XJH     -0.789200
     10 O10        -4.9130    0.5000    0.7320 os        1 XJH     -0.328900
     11 C11        -6.2150    0.1810    0.3940 ca        1 XJH      0.146100
     12 C12        -6.9950    0.8900   -0.5300 ca        1 XJH     -0.224000
     13 C13        -8.3080    0.4860   -0.7660 ca        1 XJH     -0.072000
     14 C14        -8.8550   -0.6020   -0.0930 ca        1 XJH     -0.208000
     15 C15        -8.0620   -1.2960    0.8320 ca        1 XJH      0.138100
     16 C16        -6.7360   -0.9270    1.0840 ca        1 XJH     -0.174000
     17 C2'        -2.2790    2.6230    0.7120 c3        1 XJH      0.140800
     18 O20        -8.5460   -2.3320    1.6230 os        1 XJH     -0.248200
     19 C21        -9.5260   -3.1470    1.0610 ca        1 XJH      0.102100
     20 C22        -9.4860   -3.5740   -0.2720 ca        1 XJH     -0.153500
     21 C23       -10.4480   -4.4780   -0.7190 ca        1 XJH     -0.109500
     22 C24       -11.4300   -4.9520    0.1510 ca        1 XJH     -0.147000
     23 C25       -11.4570   -4.5200    1.4780 ca        1 XJH     -0.109500
     24 C26       -10.5110   -3.6110    1.9460 ca        1 XJH     -0.153500
     25 C3'        -2.7090    1.2660    0.1050 c3        1 XJH     -0.079700
     26 C4'        -4.2290    1.4050   -0.1430 c3        1 XJH      0.111100
     27 C5'        -4.5700    2.8730    0.2220 c3        1 XJH      0.117800
     28 HN02        2.8710   -0.8560   -0.9060 hn        1 XJH      0.402300
     29 HN0A        1.4720   -1.1340   -1.7750 hn        1 XJH      0.402300
     30 H03         2.9360   -0.5950    1.5350 ha        1 XJH      0.142000
     31 H04         1.5830    0.1290    3.5100 ha        1 XJH      0.136000
     32 H05        -0.8960    0.4490    3.2510 ha        1 XJH      0.143000
     33 H07        -2.8090   -0.8420    0.5660 hc        1 XJH      0.069700
     34 H07A       -2.8050    0.2410    2.0140 hc        1 XJH      0.069700
     35 HN1'       -3.6580    3.5000    1.9270 hn        1 XJH      0.352800
     36 H12        -6.5870    1.7620   -1.0610 ha        1 XJH      0.141000
     37 H13        -8.9230    1.0410   -1.4910 ha        1 XJH      0.136000
     38 H14        -9.8920   -0.9180   -0.2760 ha        1 XJH      0.150000
     39 H16        -6.1230   -1.4760    1.8110 ha        1 XJH      0.166000
     40 H2'        -1.6900    2.4650    1.6550 h1        1 XJH      0.054700
     41 H2'A       -1.6190    3.1660   -0.0200 h1        1 XJH      0.054700
     42 H22        -8.7070   -3.1950   -0.9490 ha        1 XJH      0.150000
     43 H23       -10.4260   -4.8220   -1.7640 ha        1 XJH      0.135500
     44 H24       -12.1830   -5.6670   -0.2080 ha        1 XJH      0.134000
     45 H25       -12.2320   -4.8970    2.1630 ha        1 XJH      0.135500
     46 H26       -10.5160   -3.2650    2.9890 ha        1 XJH      0.150000
     47 H3'        -2.2100    1.1330   -0.8920 hc        1 XJH      0.078700
     48 H4'        -4.4830    1.1730   -1.2090 h1        1 XJH      0.064700
     49 H5'        -4.7110    3.4620   -0.7250 h1        1 XJH      0.060700
     50 H5'A       -5.5210    2.9190    0.8150 h1        1 XJH      0.060700
@<TRIPOS>BOND
     1    1    2 ar  
     2    1    7 ar  
     3    2    3 1   
     4    2    4 ar  
     5    3   28 1   
     6    3   29 1   
     7    4    5 ar  
     8    4   30 1   
     9    5    6 ar  
    10    5   31 1   
    11    6    7 ar  
    12    6   32 1   
    13    7    8 1   
    14    8   25 1   
    15    8   33 1   
    16    8   34 1   
    17    9   17 1   
    18    9   27 1   
    19    9   35 1   
    20   10   11 1   
    21   10   26 1   
    22   11   12 ar  
    23   11   16 ar  
    24   12   13 ar  
    25   12   36 1   
    26   13   14 ar  
    27   13   37 1   
    28   14   15 ar  
    29   14   38 1   
    30   15   16 ar  
    31   15   18 1   
    32   16   39 1   
    33   17   25 1   
    34   17   40 1   
    35   17   41 1   
    36   18   19 1   
    37   19   20 ar  
    38   19   24 ar  
    39   20   21 ar  
    40   20   42 1   
    41   21   22 ar  
    42   21   43 1   
    43   22   23 ar  
    44   22   44 1   
    45   23   24 ar  
    46   23   45 1   
    47   24   46 1   
    48   25   26 1   
    49   25   47 1   
    50   26   27 1   
    51   26   48 1   
    52   27   49 1   
    53   27   50 1   
@<TRIPOS>SUBSTRUCTURE
     1 XJH         1 TEMP              0 ****  ****    0 ROOT
