@<TRIPOS>MOLECULE
XJH
   50    53     1     0     0
SMALL
bcc


@<TRIPOS>ATOM
      1 N01        -0.1580   -0.4660    0.0460 nb        1 XJH     -0.729000
      2 C02         1.1920   -0.6600    0.1930 ca        1 XJH      0.632200
      3 N02         1.9280   -1.1570   -0.8940 nv        1 XJH     -0.925500
      4 C03         1.8550   -0.4420    1.4400 ca        1 XJH     -0.300300
      5 C04         1.0990   -0.0480    2.5350 ca        1 XJH     -0.059000
      6 C05        -0.2780    0.1320    2.3970 ca        1 XJH     -0.293300
      7 C06        -0.8650   -0.0910    1.1340 ca        1 XJH      0.449600
      8 C07        -2.3530    0.0900    0.9940 c3        1 XJH     -0.119700
      9 N1'        -3.4500    3.4590    0.9520 n7        1 XJH     -0.789200
     10 O10        -4.9120    0.4980    0.7320 os        1 XJH     -0.328900
     11 C11        -6.2140    0.1800    0.3940 ca        1 XJH      0.146100
     12 C12        -6.9940    0.8900   -0.5280 ca        1 XJH     -0.224000
     13 C13        -8.3080    0.4870   -0.7640 ca        1 XJH     -0.072000
     14 C14        -8.8550   -0.6020   -0.0920 ca        1 XJH     -0.208000
     15 C15        -8.0620   -1.2970    0.8320 ca        1 XJH      0.138100
     16 C16        -6.7350   -0.9280    1.0830 ca        1 XJH     -0.174000
     17 C2'        -2.2780    2.6210    0.7160 c3        1 XJH      0.140800
     18 O20        -8.5460   -2.3340    1.6220 os        1 XJH     -0.248200
     19 C21        -9.5270   -3.1470    1.0600 ca        1 XJH      0.102100
     20 C22        -9.4900   -3.5720   -0.2740 ca        1 XJH     -0.153500
     21 C23       -10.4530   -4.4750   -0.7210 ca        1 XJH     -0.109500
     22 C24       -11.4350   -4.9470    0.1500 ca        1 XJH     -0.147000
     23 C25       -11.4600   -4.5180    1.4780 ca        1 XJH     -0.109500
     24 C26       -10.5120   -3.6110    1.9450 ca        1 XJH     -0.153500
     25 C3'        -2.7090    1.2650    0.1060 c3        1 XJH     -0.079700
     26 C4'        -4.2280    1.4050   -0.1410 c3        1 XJH      0.111100
     27 C5'        -4.5690    2.8730    0.2270 c3        1 XJH      0.117800
     28 HN02        1.4760   -1.1230   -1.7810 hn        1 XJH      0.402300
     29 HN0A        2.8740   -0.8480   -0.9100 hn        1 XJH      0.402300
     30 H03         2.9380   -0.5960    1.5310 ha        1 XJH      0.142000
     31 H04         1.5840    0.1200    3.5080 ha        1 XJH      0.136000
     32 H05        -0.8950    0.4390    3.2500 ha        1 XJH      0.143000
     33 H07        -2.8070   -0.8430    0.5610 hc        1 XJH      0.069700
     34 H07A       -2.8040    0.2350    2.0120 hc        1 XJH      0.069700
     35 HN1'       -3.6580    3.4950    1.9330 hn        1 XJH      0.352800
     36 H12        -6.5870    1.7630   -1.0580 ha        1 XJH      0.141000
     37 H13        -8.9230    1.0440   -1.4880 ha        1 XJH      0.136000
     38 H14        -9.8920   -0.9160   -0.2750 ha        1 XJH      0.150000
     39 H16        -6.1220   -1.4790    1.8090 ha        1 XJH      0.166000
     40 H2'        -1.6190    3.1660   -0.0130 h1        1 XJH      0.054700
     41 H2'A       -1.6900    2.4610    1.6600 h1        1 XJH      0.054700
     42 H22        -8.7110   -3.1930   -0.9510 ha        1 XJH      0.150000
     43 H23       -10.4330   -4.8170   -1.7660 ha        1 XJH      0.135500
     44 H24       -12.1900   -5.6610   -0.2090 ha        1 XJH      0.134000
     45 H25       -12.2350   -4.8940    2.1630 ha        1 XJH      0.135500
     46 H26       -10.5150   -3.2660    2.9890 ha        1 XJH      0.150000
     47 H3'        -2.2100    1.1350   -0.8910 hc        1 XJH      0.078700
     48 H4'        -4.4830    1.1750   -1.2070 h1        1 XJH      0.064700
     49 H5'        -4.7110    3.4630   -0.7190 h1        1 XJH      0.060700
     50 H5'A       -5.5210    2.9170    0.8210 h1        1 XJH      0.060700
@<TRIPOS>BOND
     1    1    2 ar  
     2    1    7 ar  
     3    2    3 1   
     4    2    4 ar  
     5    3   28 1   
     6    3   29 1   
     7    4    5 ar  
     8    4   30 1   
     9    5    6 ar  
    10    5   31 1   
    11    6    7 ar  
    12    6   32 1   
    13    7    8 1   
    14    8   25 1   
    15    8   33 1   
    16    8   34 1   
    17    9   17 1   
    18    9   27 1   
    19    9   35 1   
    20   10   11 1   
    21   10   26 1   
    22   11   12 ar  
    23   11   16 ar  
    24   12   13 ar  
    25   12   36 1   
    26   13   14 ar  
    27   13   37 1   
    28   14   15 ar  
    29   14   38 1   
    30   15   16 ar  
    31   15   18 1   
    32   16   39 1   
    33   17   25 1   
    34   17   40 1   
    35   17   41 1   
    36   18   19 1   
    37   19   20 ar  
    38   19   24 ar  
    39   20   21 ar  
    40   20   42 1   
    41   21   22 ar  
    42   21   43 1   
    43   22   23 ar  
    44   22   44 1   
    45   23   24 ar  
    46   23   45 1   
    47   24   46 1   
    48   25   26 1   
    49   25   47 1   
    50   26   27 1   
    51   26   48 1   
    52   27   49 1   
    53   27   50 1   
@<TRIPOS>SUBSTRUCTURE
     1 XJH         1 TEMP              0 ****  ****    0 ROOT
