@<TRIPOS>MOLECULE
XJO
   73    74     1     0     0
SMALL
bcc


@<TRIPOS>ATOM
      1 O4         -0.3100    0.5110    0.6350 o         1 XJO     -0.642100
      2 C26         0.7360   -0.1550    0.5210 c         1 XJO      0.634300
      3 C           1.1220   -1.1390    1.5440 ce        1 XJO     -0.273200
      4 C24         1.4950   -0.2090   -0.7880 c3        1 XJO     -0.154700
      5 C25         2.8420   -0.8810   -0.6490 c3        1 XJO     -0.096100
      6 C23         1.5310    1.0810   -1.5990 c3        1 XJO     -0.064400
      7 C21         2.2990    2.3170   -1.1340 c3        1 XJO     -0.057700
      8 C22         3.7360    2.0340   -0.7720 c3        1 XJO     -0.101100
      9 C10         1.5080    3.0310   -0.0280 c3        1 XJO      0.153100
     10 C8          2.2920    3.9040    0.9640 c3        1 XJO     -0.118700
     11 C9          1.9480    5.3740    0.8970 c3        1 XJO     -0.090100
     12 C7          1.9800    3.3500    2.3410 c         1 XJO      0.634100
     13 O1          1.2910    3.8410    3.2310 o         1 XJO     -0.511000
     14 O           2.5330    2.1060    2.5100 os        1 XJO     -0.456900
     15 C4          2.0830    1.2910    3.6110 c3        1 XJO      0.167100
     16 C5          2.5660    1.8660    4.9440 c3        1 XJO     -0.112400
     17 C6          1.7450    1.3580    6.1010 c3        1 XJO     -0.092100
     18 C2          2.6670   -0.1140    3.3970 c3        1 XJO     -0.044500
     19 C3          4.0730   -0.0740    2.8260 c3        1 XJO     -0.084100
     20 C1          1.8420   -1.1120    2.6640 c2        1 XJO     -0.077200
     21 O2          0.5190    3.8090   -0.7580 os        1 XJO     -0.417900
     22 C11        -0.7240    3.8870   -0.2060 c         1 XJO      0.642700
     23 O3         -0.8520    3.6270    0.9990 o         1 XJO     -0.567000
     24 C12        -1.8030    4.2270   -1.1510 ca        1 XJO     -0.121600
     25 C17        -3.1340    3.8590   -0.8670 ca        1 XJO     -0.112300
     26 C18        -3.5200    3.2290    0.4350 c3        1 XJO      0.159100
     27 N          -2.9690    1.8420    0.6260 nx        1 XJO     -0.673400
     28 C20        -2.9230    1.4950    2.0710 c3        1 XJO      0.089600
     29 C19        -3.7420    0.8390   -0.1430 c3        1 XJO      0.089600
     30 C16        -4.1390    4.1660   -1.7880 ca        1 XJO     -0.114000
     31 C15        -3.8330    4.8470   -2.9690 ca        1 XJO     -0.089000
     32 C14        -2.5190    5.2170   -3.2430 ca        1 XJO     -0.106000
     33 C13        -1.5030    4.9020   -2.3370 ca        1 XJO     -0.061000
     34 H           0.6720   -2.1190    1.2650 ha        1 XJO      0.145000
     35 H24         0.8530   -0.9130   -1.4130 hc        1 XJO      0.071700
     36 H1          1.9060   -2.0970    3.1850 ha        1 XJO      0.126000
     37 H251        2.7050   -1.9550   -0.3680 hc        1 XJO      0.052033
     38 H252        3.4650   -0.3970    0.1400 hc        1 XJO      0.052033
     39 H253        3.3930   -0.8400   -1.6200 hc        1 XJO      0.052033
     40 H231        1.9530    0.8030   -2.6060 hc        1 XJO      0.049200
     41 H232        0.4640    1.4000   -1.7580 hc        1 XJO      0.049200
     42 H21         2.3110    3.0170   -2.0260 hc        1 XJO      0.072700
     43 H221        4.1550    1.2540   -1.4540 hc        1 XJO      0.051700
     44 H222        4.3570    2.9570   -0.8900 hc        1 XJO      0.051700
     45 H223        3.8270    1.6800    0.2840 hc        1 XJO      0.051700
     46 H10         0.9520    2.2520    0.5710 h1        1 XJO      0.079700
     47 H8          3.3990    3.7880    0.7920 hc        1 XJO      0.101700
     48 H91C        2.5920    5.9490    1.6050 hc        1 XJO      0.056700
     49 H92C        0.8790    5.5360    1.1830 hc        1 XJO      0.056700
     50 H93C        2.1100    5.7540   -0.1400 hc        1 XJO      0.056700
     51 H4          0.9590    1.2650    3.5860 h1        1 XJO      0.056700
     52 H51C        2.4970    2.9860    4.9100 hc        1 XJO      0.066700
     53 H52C        3.6470    1.6070    5.0930 hc        1 XJO      0.066700
     54 HA          2.7570   -0.5360    4.4490 hc        1 XJO      0.072700
     55 H61C        2.1210    1.8030    7.0550 hc        1 XJO      0.039033
     56 H62C        1.8050    0.2460    6.1880 hc        1 XJO      0.039033
     57 H63C        0.6720    1.6450    5.9800 hc        1 XJO      0.039033
     58 H31C        4.7520    0.4570    3.5370 hc        1 XJO      0.048367
     59 H32C        4.4570   -1.1110    2.6700 hc        1 XJO      0.048367
     60 H33C        4.0980    0.4710    1.8540 hc        1 XJO      0.048367
     61 H13        -0.4570    5.1850   -2.5510 ha        1 XJO      0.172000
     62 H181       -4.6410    3.1660    0.5310 hx        1 XJO      0.116200
     63 H182       -3.1170    3.8720    1.2780 hx        1 XJO      0.116200
     64 H16        -5.1840    3.8880   -1.5790 ha        1 XJO      0.148000
     65 H201       -2.4820    0.4670    2.1760 hx        1 XJO      0.100533
     66 H202       -2.2530    2.2340    2.5940 hx        1 XJO      0.100533
     67 H203       -3.9550    1.5270    2.5030 hx        1 XJO      0.100533
     68 H191       -3.8220    1.1750   -1.2110 hx        1 XJO      0.100533
     69 H192       -3.2080   -0.1480   -0.0950 hx        1 XJO      0.100533
     70 H193       -4.7690    0.7320    0.2950 hx        1 XJO      0.100533
     71 H15        -4.6380    5.0930   -3.6810 ha        1 XJO      0.162000
     72 H14        -2.2760    5.7590   -4.1710 ha        1 XJO      0.165000
     73 HN1        -1.9880    1.8320    0.2850 hn        1 XJO      0.483800
@<TRIPOS>BOND
     1    1    2 2   
     2    2    3 1   
     3    2    4 1   
     4    3   20 2   
     5    3   34 1   
     6    4    5 1   
     7    4    6 1   
     8    4   35 1   
     9    5   37 1   
    10    5   38 1   
    11    5   39 1   
    12    6    7 1   
    13    6   40 1   
    14    6   41 1   
    15    7    8 1   
    16    7    9 1   
    17    7   42 1   
    18    8   43 1   
    19    8   44 1   
    20    8   45 1   
    21    9   10 1   
    22    9   21 1   
    23    9   46 1   
    24   10   11 1   
    25   10   12 1   
    26   10   47 1   
    27   11   48 1   
    28   11   49 1   
    29   11   50 1   
    30   12   13 2   
    31   12   14 1   
    32   14   15 1   
    33   15   16 1   
    34   15   18 1   
    35   15   51 1   
    36   16   17 1   
    37   16   52 1   
    38   16   53 1   
    39   17   55 1   
    40   17   56 1   
    41   17   57 1   
    42   18   19 1   
    43   18   20 1   
    44   18   54 1   
    45   19   58 1   
    46   19   59 1   
    47   19   60 1   
    48   20   36 1   
    49   21   22 1   
    50   22   23 2   
    51   22   24 1   
    52   24   25 ar  
    53   24   33 ar  
    54   25   26 1   
    55   25   30 ar  
    56   26   27 1   
    57   26   62 1   
    58   26   63 1   
    59   27   28 1   
    60   27   29 1   
    61   27   73 1   
    62   28   65 1   
    63   28   66 1   
    64   28   67 1   
    65   29   68 1   
    66   29   69 1   
    67   29   70 1   
    68   30   31 ar  
    69   30   64 1   
    70   31   32 ar  
    71   31   71 1   
    72   32   33 ar  
    73   32   72 1   
    74   33   61 1   
@<TRIPOS>SUBSTRUCTURE
     1 XJO         1 TEMP              0 ****  ****    0 ROOT
