@<TRIPOS>MOLECULE
XJO
   73    74     1     0     0
SMALL
bcc


@<TRIPOS>ATOM
      1 O4         -0.4920   -0.1620   -0.0190 o         1 XJO     -0.649100
      2 C26         0.7530   -0.2340   -0.0290 c         1 XJO      0.613300
      3 C           1.5320   -0.3730    1.2090 ce        1 XJO     -0.277200
      4 C24         1.4840   -0.1560   -1.3530 c3        1 XJO     -0.155700
      5 C25         2.7630   -0.9600   -1.3830 c3        1 XJO     -0.098100
      6 C23         1.6340    1.2710   -1.8770 c3        1 XJO     -0.066400
      7 C21         2.4310    2.3430   -1.1370 c3        1 XJO     -0.063700
      8 C22         3.8340    1.9010   -0.7890 c3        1 XJO     -0.099100
      9 C10         1.6650    2.8630    0.0870 c3        1 XJO      0.147100
     10 C8          2.4470    3.8230    1.0000 c3        1 XJO     -0.122700
     11 C9          2.2490    5.2810    0.6600 c3        1 XJO     -0.087100
     12 C7          2.0250    3.5350    2.4250 c         1 XJO      0.633100
     13 O1          1.2410    4.1520    3.1430 o         1 XJO     -0.517000
     14 O           2.6270    2.4000    2.8970 os        1 XJO     -0.450900
     15 C4          2.0450    1.7250    4.0320 c3        1 XJO      0.155100
     16 C5          2.9510    1.9160    5.2410 c3        1 XJO     -0.092400
     17 C6          2.6870    3.2310    5.9280 c3        1 XJO     -0.099100
     18 C2          1.9080    0.2390    3.6260 c3        1 XJO     -0.054500
     19 C3          3.2520   -0.4470    3.5300 c3        1 XJO     -0.096100
     20 C1          1.1160    0.1640    2.3660 c2        1 XJO     -0.059200
     21 O2          0.5130    3.5620   -0.4550 os        1 XJO     -0.415900
     22 C11        -0.7110    3.2960    0.0730 c         1 XJO      0.657700
     23 O3         -0.7900    2.5450    1.0570 o         1 XJO     -0.593000
     24 C12        -1.8320    3.9300   -0.6480 ca        1 XJO     -0.121600
     25 C17        -3.1630    3.5320   -0.4110 ca        1 XJO     -0.107300
     26 C18        -3.5170    2.5220    0.6360 c3        1 XJO      0.159100
     27 N          -3.0900    1.1250    0.2850 n4        1 XJO     -0.673400
     28 C20        -3.0490    0.2710    1.5000 c3        1 XJO      0.092600
     29 C19        -3.9590    0.5310   -0.7570 c3        1 XJO      0.092600
     30 C16        -4.1990    4.1480   -1.1180 ca        1 XJO     -0.116000
     31 C15        -3.9250    5.1610   -2.0400 ca        1 XJO     -0.085000
     32 C14        -2.6100    5.5600   -2.2670 ca        1 XJO     -0.107000
     33 C13        -1.5650    4.9440   -1.5740 ca        1 XJO     -0.059000
     34 H           2.4990   -0.8920    1.1210 ha        1 XJO      0.161000
     35 H24         0.7860   -0.6540   -2.1010 hc        1 XJO      0.072700
     36 H1          0.1320    0.6710    2.4140 ha        1 XJO      0.131000
     37 H251        3.2160   -0.9060   -2.4040 hc        1 XJO      0.051033
     38 H252        2.5450   -2.0320   -1.1510 hc        1 XJO      0.051033
     39 H253        3.5180   -0.5920   -0.6490 hc        1 XJO      0.051033
     40 H231        2.0990    1.1770   -2.8980 hc        1 XJO      0.051700
     41 H232        0.5940    1.6770   -2.0190 hc        1 XJO      0.051700
     42 H21         2.5130    3.2110   -1.8590 hc        1 XJO      0.071700
     43 H221        3.8540    1.3370    0.1760 hc        1 XJO      0.050700
     44 H222        4.5150    2.7830   -0.7000 hc        1 XJO      0.050700
     45 H223        4.2380    1.2470   -1.6010 hc        1 XJO      0.050700
     46 H10         1.3210    1.9820    0.7010 h1        1 XJO      0.085700
     47 H8          3.5450    3.5740    0.9270 hc        1 XJO      0.105700
     48 H91C        2.9560    5.9130    1.2500 hc        1 XJO      0.055367
     49 H92C        1.2060    5.6030    0.9000 hc        1 XJO      0.055367
     50 H93C        2.4340    5.4410   -0.4290 hc        1 XJO      0.055367
     51 H4          1.0230    2.1500    4.2410 h1        1 XJO      0.074700
     52 H51C        2.7770    1.0710    5.9580 hc        1 XJO      0.058700
     53 H52C        4.0210    1.8660    4.9060 hc        1 XJO      0.058700
     54 HA          1.3070   -0.2600    4.4420 hc        1 XJO      0.076700
     55 H61C        1.6820    3.2290    6.4160 hc        1 XJO      0.044700
     56 H62C        2.7120    4.0690    5.1890 hc        1 XJO      0.044700
     57 H63C        3.4600    3.4170    6.7120 hc        1 XJO      0.044700
     58 H31C        3.1280   -1.5050    3.1960 hc        1 XJO      0.048700
     59 H32C        3.7560   -0.4540    4.5270 hc        1 XJO      0.048700
     60 H33C        3.9120    0.0900    2.8050 hc        1 XJO      0.048700
     61 H13        -0.5220    5.2580   -1.7520 ha        1 XJO      0.173000
     62 H181       -4.6310    2.5040    0.8130 hx        1 XJO      0.114700
     63 H182       -2.9990    2.8030    1.6040 hx        1 XJO      0.114700
     64 H16        -5.2440    3.8500   -0.9380 ha        1 XJO      0.148000
     65 H201       -2.7130   -0.7590    1.2020 hx        1 XJO      0.099533
     66 H202       -2.2940    0.7040    2.2130 hx        1 XJO      0.099533
     67 H203       -4.0630    0.2330    1.9750 hx        1 XJO      0.099533
     68 H191       -3.5080   -0.4380   -1.1000 hx        1 XJO      0.099533
     69 H192       -4.9820    0.3430   -0.3370 hx        1 XJO      0.099533
     70 H193       -4.0340    1.2430   -1.6230 hx        1 XJO      0.099533
     71 H15        -4.7530    5.6460   -2.5820 ha        1 XJO      0.163000
     72 H14        -2.3900    6.3630   -2.9890 ha        1 XJO      0.165000
     73 HN1        -2.1180    1.1720   -0.0810 hn        1 XJO      0.486800
@<TRIPOS>BOND
     1    1    2 2   
     2    2    3 1   
     3    2    4 1   
     4    3   20 2   
     5    3   34 1   
     6    4    5 1   
     7    4    6 1   
     8    4   35 1   
     9    5   37 1   
    10    5   38 1   
    11    5   39 1   
    12    6    7 1   
    13    6   40 1   
    14    6   41 1   
    15    7    8 1   
    16    7    9 1   
    17    7   42 1   
    18    8   43 1   
    19    8   44 1   
    20    8   45 1   
    21    9   10 1   
    22    9   21 1   
    23    9   46 1   
    24   10   11 1   
    25   10   12 1   
    26   10   47 1   
    27   11   48 1   
    28   11   49 1   
    29   11   50 1   
    30   12   13 2   
    31   12   14 1   
    32   14   15 1   
    33   15   16 1   
    34   15   18 1   
    35   15   51 1   
    36   16   17 1   
    37   16   52 1   
    38   16   53 1   
    39   17   55 1   
    40   17   56 1   
    41   17   57 1   
    42   18   19 1   
    43   18   20 1   
    44   18   54 1   
    45   19   58 1   
    46   19   59 1   
    47   19   60 1   
    48   20   36 1   
    49   21   22 1   
    50   22   23 2   
    51   22   24 1   
    52   24   25 ar  
    53   24   33 ar  
    54   25   26 1   
    55   25   30 ar  
    56   26   27 1   
    57   26   62 1   
    58   26   63 1   
    59   27   28 1   
    60   27   29 1   
    61   27   73 1   
    62   28   65 1   
    63   28   66 1   
    64   28   67 1   
    65   29   68 1   
    66   29   69 1   
    67   29   70 1   
    68   30   31 ar  
    69   30   64 1   
    70   31   32 ar  
    71   31   71 1   
    72   32   33 ar  
    73   32   72 1   
    74   33   61 1   
@<TRIPOS>SUBSTRUCTURE
     1 XJO         1 TEMP              0 ****  ****    0 ROOT
