@<TRIPOS>MOLECULE
XJX
   61    64     1     0     0
SMALL
bcc


@<TRIPOS>ATOM
      1 C1          2.1280    0.4350    1.7620 c3        1 XJX     -0.088600
      2 C2          3.2090   -0.0610    0.8200 c3        1 XJX     -0.015400
      3 C3          4.3710   -0.6410    1.6050 c3        1 XJX     -0.088600
      4 C4          2.6620   -1.0650   -0.1440 ca        1 XJX     -0.133300
      5 C5          2.1130   -2.2650    0.3070 ca        1 XJX     -0.025000
      6 C6          1.5850   -3.2190   -0.5710 ca        1 XJX     -0.195600
      7 C7          1.0680   -4.4860    0.0150 c         1 XJX      0.690700
      8 O8          1.7760   -5.1770    0.7770 o         1 XJX     -0.604100
      9 N9         -0.2090   -4.9060   -0.3100 n         1 XJX     -0.457800
     10 C10        -1.2230   -4.0360   -0.9020 c3        1 XJX      0.137300
     11 C11        -2.5450   -4.6370   -0.5000 ca        1 XJX     -0.106300
     12 C12        -3.8310   -4.2150   -0.7720 ca        1 XJX     -0.111000
     13 C13        -4.9020   -4.9730   -0.2740 ca        1 XJX     -0.128000
     14 C14        -4.6790   -6.1250    0.4820 ca        1 XJX     -0.082300
     15 C15        -5.8480   -6.8770    1.0490 c3        1 XJX      0.213100
     16 N16        -5.8040   -8.3140    0.8050 n3        1 XJX     -0.729600
     17 C18        -6.8260   -9.0190    1.5680 c3        1 XJX      0.166300
     18 C19        -6.8220  -10.5370    1.3080 c3        1 XJX      0.168300
     19 N20        -6.8640  -10.8730   -0.1070 n3        1 XJX     -0.733600
     20 C22        -6.8320  -12.3000   -0.3370 c3        1 XJX      0.157100
     21 C23        -5.8480  -10.1640   -0.8720 c3        1 XJX      0.168300
     22 C24        -5.8540   -8.6460   -0.6120 c3        1 XJX      0.166300
     23 C25        -3.3660   -6.5530    0.7590 ca        1 XJX     -0.086000
     24 C26        -2.3140   -5.8080    0.2650 ca        1 XJX     -0.106300
     25 C27        -0.8300   -6.0300    0.3980 c3        1 XJX      0.135300
     26 C28         1.6350   -2.9670   -1.9530 ca        1 XJX      0.191100
     27 O29         1.1220   -3.9170   -2.8020 oh        1 XJX     -0.485100
     28 C30         2.1900   -1.7760   -2.4420 ca        1 XJX     -0.312000
     29 C31         2.6930   -0.8340   -1.5360 ca        1 XJX      0.181100
     30 O32         3.2380    0.3520   -1.9680 oh        1 XJX     -0.490100
     31 H11C        2.5480    1.2090    2.4490 hc        1 XJX      0.036533
     32 H12C        1.2870    0.8880    1.1850 hc        1 XJX      0.036533
     33 H13C        1.7240   -0.4040    2.3780 hc        1 XJX      0.036533
     34 H2          3.5930    0.8260    0.2350 hc        1 XJX      0.070700
     35 H31C        4.0410   -1.5160    2.2140 hc        1 XJX      0.036533
     36 H32C        4.7880    0.1330    2.2940 hc        1 XJX      0.036533
     37 H33C        5.1800   -0.9760    0.9130 hc        1 XJX      0.036533
     38 H5          2.1010   -2.4820    1.3900 ha        1 XJX      0.157000
     39 H10A       -1.0980   -4.0360   -2.0220 h1        1 XJX      0.062700
     40 H27A       -0.5020   -6.0560    1.4740 h1        1 XJX      0.071200
     41 H10B       -1.1240   -2.9790   -0.5310 h1        1 XJX      0.062700
     42 H27B       -0.5150   -6.9910   -0.0930 h1        1 XJX      0.071200
     43 H12        -4.0230   -3.3090   -1.3640 ha        1 XJX      0.135000
     44 H13        -5.9310   -4.6470   -0.4860 ha        1 XJX      0.132000
     45 H151       -5.8400   -6.7270    2.1680 h1        1 XJX      0.040700
     46 H152       -6.8060   -6.4220    0.6550 h1        1 XJX      0.040700
     47 H25        -3.1960   -7.4640    1.3520 ha        1 XJX      0.154000
     48 H181       -6.6140   -8.8580    2.6610 h1        1 XJX      0.039200
     49 H182       -7.8590   -8.6180    1.3520 h1        1 XJX      0.039200
     50 H241       -4.9380   -8.2060   -1.0970 h1        1 XJX      0.039200
     51 H242       -6.7620   -8.1980   -1.1130 h1        1 XJX      0.039200
     52 H191       -7.7420  -10.9700    1.7910 h1        1 XJX      0.036950
     53 H192       -5.9200  -10.9880    1.8170 h1        1 XJX      0.036950
     54 H221       -7.6890  -12.7720    0.2100 h1        1 XJX      0.032033
     55 H222       -6.9540  -12.4910   -1.4350 h1        1 XJX      0.032033
     56 H223       -5.8780  -12.7870    0.0060 h1        1 XJX      0.032033
     57 H231       -4.8130  -10.5630   -0.6620 h1        1 XJX      0.036950
     58 H232       -6.0660  -10.3260   -1.9640 h1        1 XJX      0.036950
     59 H29         1.3350   -3.6560   -3.7110 ho        1 XJX      0.423000
     60 H30         2.2330   -1.5870   -3.5230 ha        1 XJX      0.138000
     61 H32         3.2120    0.3620   -2.9360 ho        1 XJX      0.422000
@<TRIPOS>BOND
     1    1    2 1   
     2    1   31 1   
     3    1   32 1   
     4    1   33 1   
     5    2    3 1   
     6    2    4 1   
     7    2   34 1   
     8    3   35 1   
     9    3   36 1   
    10    3   37 1   
    11    4    5 ar  
    12    4   29 ar  
    13    5    6 ar  
    14    5   38 1   
    15    6    7 1   
    16    6   26 ar  
    17    7    8 2   
    18    7    9 1   
    19    9   10 1   
    20    9   25 1   
    21   10   11 1   
    22   10   39 1   
    23   10   41 1   
    24   11   12 ar  
    25   11   24 ar  
    26   12   13 ar  
    27   12   43 1   
    28   13   14 ar  
    29   13   44 1   
    30   14   15 1   
    31   14   23 ar  
    32   15   16 1   
    33   15   45 1   
    34   15   46 1   
    35   16   17 1   
    36   16   22 1   
    37   17   18 1   
    38   17   48 1   
    39   17   49 1   
    40   18   19 1   
    41   18   52 1   
    42   18   53 1   
    43   19   20 1   
    44   19   21 1   
    45   20   54 1   
    46   20   55 1   
    47   20   56 1   
    48   21   22 1   
    49   21   57 1   
    50   21   58 1   
    51   22   50 1   
    52   22   51 1   
    53   23   24 ar  
    54   23   47 1   
    55   24   25 1   
    56   25   40 1   
    57   25   42 1   
    58   26   27 1   
    59   26   28 ar  
    60   27   59 1   
    61   28   29 ar  
    62   28   60 1   
    63   29   30 1   
    64   30   61 1   
@<TRIPOS>SUBSTRUCTURE
     1 XJX         1 TEMP              0 ****  ****    0 ROOT
