@<TRIPOS>MOLECULE
XJX
   59    62     1     0     0
SMALL
bcc


@<TRIPOS>ATOM
      1 C1         -7.3440    2.3610    0.8600 c3        1 XJX     -0.094100
      2 C2         -6.1950    2.4000   -0.1320 c3        1 XJX     -0.017400
      3 C3         -5.3390    3.6270    0.1170 c3        1 XJX     -0.094100
      4 C4         -5.4180    1.1220   -0.0910 ca        1 XJX     -0.188300
      5 C5         -4.2030    1.0310    0.5800 ca        1 XJX     -0.009000
      6 C6         -3.4540   -0.1560    0.6030 ca        1 XJX     -0.270600
      7 C7         -2.1840   -0.1230    1.3680 c         1 XJX      0.693700
      8 O8         -2.1290    0.2140    2.5590 o         1 XJX     -0.527100
      9 N9         -0.9840   -0.4540    0.6960 n         1 XJX     -0.225200
     10 C10        -0.8520   -0.7800   -0.6640 cc        1 XJX     -0.142400
     11 C11         0.5050   -0.9960   -0.9300 ca        1 XJX     -0.076000
     12 C12         1.2250   -1.3520   -2.1000 ca        1 XJX     -0.100000
     13 C13         2.5810   -1.4890   -2.0260 ca        1 XJX     -0.122000
     14 C14         3.2990   -1.2860   -0.7980 ca        1 XJX     -0.099300
     15 C15         4.7830   -1.5140   -0.8150 c3        1 XJX      0.216100
     16 N16         5.5540   -0.4900   -0.1190 n3        1 XJX     -0.729600
     17 C18         6.9470   -0.8840    0.0410 c3        1 XJX      0.165800
     18 C19         7.7930    0.1920    0.7500 c3        1 XJX      0.168300
     19 N20         7.6610    1.5100    0.1460 n3        1 XJX     -0.733600
     20 C22         8.4350    2.5140    0.8400 c3        1 XJX      0.158100
     21 C23         6.2690    1.9010   -0.0260 c3        1 XJX      0.168300
     22 C24         5.4260    0.8240   -0.7350 c3        1 XJX      0.165800
     23 C25         2.6410   -0.9460    0.3550 ca        1 XJX     -0.065000
     24 C26         1.2310   -0.7890    0.3230 ca        1 XJX     -0.099000
     25 C27         0.2840   -0.4540    1.2980 cc        1 XJX     -0.096400
     26 C28        -3.9590   -1.2970   -0.0420 ca        1 XJX      0.200100
     27 O29        -3.3450   -2.5220   -0.0680 oh        1 XJX     -0.485100
     28 C30        -5.1900   -1.2430   -0.7150 ca        1 XJX     -0.203000
     29 C31        -5.9050   -0.0400   -0.7360 ca        1 XJX      0.188100
     30 O32        -7.0910   -0.0920   -1.4240 oh        1 XJX     -0.491100
     31 H11C       -7.9590    3.2890    0.7680 hc        1 XJX      0.041700
     32 H12C       -7.9990    1.4760    0.6740 hc        1 XJX      0.041700
     33 H13C       -6.9550    2.2950    1.9050 hc        1 XJX      0.041700
     34 H2         -6.6230    2.5110   -1.1730 hc        1 XJX      0.043700
     35 H31C       -5.9260    4.5470   -0.1220 hc        1 XJX      0.041700
     36 H32C       -5.0230    3.6860    1.1870 hc        1 XJX      0.041700
     37 H33C       -4.4280    3.6080   -0.5280 hc        1 XJX      0.041700
     38 H5         -3.8020    1.9070    1.1190 ha        1 XJX      0.155000
     39 H10        -1.7180   -0.8270   -1.3250 h4        1 XJX      0.183000
     40 H27         0.3990   -0.2170    2.3570 h4        1 XJX      0.191000
     41 H12         0.6790   -1.5100   -3.0410 ha        1 XJX      0.133000
     42 H13         3.1590   -1.7630   -2.9230 ha        1 XJX      0.129000
     43 H151        4.9840   -2.4970   -0.2940 h1        1 XJX      0.038700
     44 H152        5.1280   -1.6270   -1.8870 h1        1 XJX      0.038700
     45 H25         3.1800   -0.7880    1.3010 ha        1 XJX      0.148000
     46 H181        6.9730   -1.8130    0.6760 h1        1 XJX      0.039200
     47 H182        7.4300   -1.1280   -0.9510 h1        1 XJX      0.039200
     48 H241        5.7150    0.8020   -1.8260 h1        1 XJX      0.039200
     49 H242        4.3440    1.1270   -0.6670 h1        1 XJX      0.039200
     50 H191        7.5160    0.2040    1.8440 h1        1 XJX      0.036200
     51 H192        8.8740   -0.1150    0.6710 h1        1 XJX      0.036200
     52 H221        9.5080    2.1910    0.8610 h1        1 XJX      0.031700
     53 H222        8.3580    3.4800    0.2770 h1        1 XJX      0.031700
     54 H223        8.0940    2.6890    1.8980 h1        1 XJX      0.031700
     55 H231        5.7810    2.1510    0.9620 h1        1 XJX      0.036200
     56 H232        6.2500    2.8280   -0.6640 h1        1 XJX      0.036200
     57 H29        -2.5350   -2.4890    0.4610 ho        1 XJX      0.435000
     58 H30        -5.5860   -2.1380   -1.2160 ha        1 XJX      0.176000
     59 H32        -7.5560    0.7510   -1.3170 ho        1 XJX      0.431000
@<TRIPOS>BOND
     1    1    2 1   
     2    1   31 1   
     3    1   32 1   
     4    1   33 1   
     5    2    3 1   
     6    2    4 1   
     7    2   34 1   
     8    3   35 1   
     9    3   36 1   
    10    3   37 1   
    11    4    5 ar  
    12    4   29 ar  
    13    5    6 ar  
    14    5   38 1   
    15    6    7 1   
    16    6   26 ar  
    17    7    8 2   
    18    7    9 1   
    19    9   10 1   
    20    9   25 1   
    21   10   11 2   
    22   10   39 1   
    23   11   12 ar  
    24   11   24 ar  
    25   12   13 ar  
    26   12   41 1   
    27   13   14 ar  
    28   13   42 1   
    29   14   15 1   
    30   14   23 ar  
    31   15   16 1   
    32   15   43 1   
    33   15   44 1   
    34   16   17 1   
    35   16   22 1   
    36   17   18 1   
    37   17   46 1   
    38   17   47 1   
    39   18   19 1   
    40   18   50 1   
    41   18   51 1   
    42   19   20 1   
    43   19   21 1   
    44   20   52 1   
    45   20   53 1   
    46   20   54 1   
    47   21   22 1   
    48   21   55 1   
    49   21   56 1   
    50   22   48 1   
    51   22   49 1   
    52   23   24 ar  
    53   23   45 1   
    54   24   25 2   
    55   25   40 1   
    56   26   27 1   
    57   26   28 ar  
    58   27   57 1   
    59   28   29 ar  
    60   28   58 1   
    61   29   30 1   
    62   30   59 1   
@<TRIPOS>SUBSTRUCTURE
     1 XJX         1 TEMP              0 ****  ****    0 ROOT
