@<TRIPOS>MOLECULE
XJX
   61    64     1     0     0
SMALL
bcc


@<TRIPOS>ATOM
      1 C1          2.1160    0.4460    1.7520 c3        1 XJX     -0.088600
      2 C2          3.2020   -0.0530    0.8180 c3        1 XJX     -0.015400
      3 C3          4.3600   -0.6290    1.6110 c3        1 XJX     -0.088600
      4 C4          2.6590   -1.0620   -0.1440 ca        1 XJX     -0.133300
      5 C5          2.1090   -2.2600    0.3100 ca        1 XJX     -0.025000
      6 C6          1.5860   -3.2180   -0.5670 ca        1 XJX     -0.195600
      7 C7          1.0660   -4.4840    0.0230 c         1 XJX      0.690700
      8 O8          1.7720   -5.1700    0.7920 o         1 XJX     -0.604100
      9 N9         -0.2080   -4.9060   -0.3060 n         1 XJX     -0.457800
     10 C10        -1.2210   -4.0390   -0.9070 c3        1 XJX      0.137300
     11 C11        -2.5440   -4.6390   -0.5090 ca        1 XJX     -0.106300
     12 C12        -3.8290   -4.2200   -0.7880 ca        1 XJX     -0.111000
     13 C13        -4.9010   -4.9760   -0.2910 ca        1 XJX     -0.128000
     14 C14        -4.6810   -6.1240    0.4710 ca        1 XJX     -0.082300
     15 C15        -5.8520   -6.8750    1.0360 c3        1 XJX      0.213100
     16 N16        -5.8050   -8.3130    0.8020 n3        1 XJX     -0.729600
     17 C18        -6.8300   -9.0140    1.5630 c3        1 XJX      0.166300
     18 C19        -6.8230  -10.5340    1.3140 c3        1 XJX      0.168300
     19 N20        -6.8570  -10.8790   -0.1000 n3        1 XJX     -0.733600
     20 C22        -6.8220  -12.3070   -0.3200 c3        1 XJX      0.157100
     21 C23        -5.8380  -10.1740   -0.8630 c3        1 XJX      0.168300
     22 C24        -5.8470   -8.6540   -0.6130 c3        1 XJX      0.166300
     23 C25        -3.3690   -6.5500    0.7570 ca        1 XJX     -0.086000
     24 C26        -2.3150   -5.8070    0.2640 ca        1 XJX     -0.106300
     25 C27        -0.8320   -6.0270    0.4050 c3        1 XJX      0.135300
     26 C28         1.6420   -2.9730   -1.9490 ca        1 XJX      0.191100
     27 O29         1.1330   -3.9270   -2.7970 oh        1 XJX     -0.485100
     28 C30         2.1980   -1.7830   -2.4400 ca        1 XJX     -0.312000
     29 C31         2.6960   -0.8370   -1.5370 ca        1 XJX      0.181100
     30 O32         3.2420    0.3470   -1.9720 oh        1 XJX     -0.490100
     31 H11C        1.2770    0.8970    1.1700 hc        1 XJX      0.036533
     32 H12C        2.5320    1.2230    2.4380 hc        1 XJX      0.036533
     33 H13C        1.7100   -0.3900    2.3710 hc        1 XJX      0.036533
     34 H2          3.5880    0.8310    0.2300 hc        1 XJX      0.070700
     35 H31C        5.1720   -0.9670    0.9240 hc        1 XJX      0.036533
     36 H32C        4.7740    0.1480    2.2980 hc        1 XJX      0.036533
     37 H33C        4.0270   -1.5020    2.2220 hc        1 XJX      0.036533
     38 H5          2.0930   -2.4730    1.3930 ha        1 XJX      0.157000
     39 H10A       -1.1240   -2.9810   -0.5400 h1        1 XJX      0.063200
     40 H27A       -0.5090   -6.0470    1.4820 h1        1 XJX      0.071200
     41 H10B       -1.0900   -4.0440   -2.0260 h1        1 XJX      0.063200
     42 H27B       -0.5140   -6.9900   -0.0800 h1        1 XJX      0.071200
     43 H12        -4.0190   -3.3170   -1.3860 ha        1 XJX      0.135000
     44 H13        -5.9300   -4.6520   -0.5100 ha        1 XJX      0.132000
     45 H151       -5.8510   -6.7170    2.1550 h1        1 XJX      0.040700
     46 H152       -6.8090   -6.4230    0.6340 h1        1 XJX      0.040700
     47 H25        -3.2010   -7.4580    1.3550 ha        1 XJX      0.154000
     48 H181       -7.8630   -8.6160    1.3390 h1        1 XJX      0.039200
     49 H182       -6.6250   -8.8450    2.6570 h1        1 XJX      0.039200
     50 H241       -6.7520   -8.2110   -1.1220 h1        1 XJX      0.039200
     51 H242       -4.9280   -8.2160   -1.0950 h1        1 XJX      0.039200
     52 H191       -7.7460  -10.9650    1.7950 h1        1 XJX      0.036950
     53 H192       -5.9240  -10.9800    1.8310 h1        1 XJX      0.036950
     54 H221       -7.6820  -12.7770    0.2250 h1        1 XJX      0.032033
     55 H222       -6.9380  -12.5050   -1.4170 h1        1 XJX      0.032033
     56 H223       -5.8690  -12.7910    0.0320 h1        1 XJX      0.032033
     57 H231       -6.0490  -10.3440   -1.9560 h1        1 XJX      0.036950
     58 H232       -4.8030  -10.5710   -0.6440 h1        1 XJX      0.036950
     59 H29         1.3490   -3.6690   -3.7050 ho        1 XJX      0.423000
     60 H30         2.2450   -1.5990   -3.5220 ha        1 XJX      0.138000
     61 H32         3.2200    0.3530   -2.9400 ho        1 XJX      0.422000
@<TRIPOS>BOND
     1    1    2 1   
     2    1   31 1   
     3    1   32 1   
     4    1   33 1   
     5    2    3 1   
     6    2    4 1   
     7    2   34 1   
     8    3   35 1   
     9    3   36 1   
    10    3   37 1   
    11    4    5 ar  
    12    4   29 ar  
    13    5    6 ar  
    14    5   38 1   
    15    6    7 1   
    16    6   26 ar  
    17    7    8 2   
    18    7    9 1   
    19    9   10 1   
    20    9   25 1   
    21   10   11 1   
    22   10   39 1   
    23   10   41 1   
    24   11   12 ar  
    25   11   24 ar  
    26   12   13 ar  
    27   12   43 1   
    28   13   14 ar  
    29   13   44 1   
    30   14   15 1   
    31   14   23 ar  
    32   15   16 1   
    33   15   45 1   
    34   15   46 1   
    35   16   17 1   
    36   16   22 1   
    37   17   18 1   
    38   17   48 1   
    39   17   49 1   
    40   18   19 1   
    41   18   52 1   
    42   18   53 1   
    43   19   20 1   
    44   19   21 1   
    45   20   54 1   
    46   20   55 1   
    47   20   56 1   
    48   21   22 1   
    49   21   57 1   
    50   21   58 1   
    51   22   50 1   
    52   22   51 1   
    53   23   24 ar  
    54   23   47 1   
    55   24   25 1   
    56   25   40 1   
    57   25   42 1   
    58   26   27 1   
    59   26   28 ar  
    60   27   59 1   
    61   28   29 ar  
    62   28   60 1   
    63   29   30 1   
    64   30   61 1   
@<TRIPOS>SUBSTRUCTURE
     1 XJX         1 TEMP              0 ****  ****    0 ROOT
