@<TRIPOS>MOLECULE
XJX
   59    62     1     0     0
SMALL
bcc


@<TRIPOS>ATOM
      1 C1         -0.0740    0.2880   -0.1390 c3        1 XJX     -0.089100
      2 C2          1.4310    0.2360   -0.3230 c3        1 XJX     -0.016400
      3 C3          2.1370    0.5440    0.9850 c3        1 XJX     -0.089100
      4 C4          1.8590   -1.0930   -0.8610 ca        1 XJX     -0.131300
      5 C5          1.6310   -2.2640   -0.1390 ca        1 XJX     -0.018000
      6 C6          2.0300   -3.5160   -0.6190 ca        1 XJX     -0.215600
      7 C7          1.7080   -4.7170    0.1920 c         1 XJX      0.714700
      8 O8          0.5470   -5.0210    0.4980 o         1 XJX     -0.533100
      9 N9          2.7780   -5.5140    0.6590 n         1 XJX     -0.203200
     10 C10         4.1460   -5.2700    0.4730 cc        1 XJX     -0.115400
     11 C11         4.8640   -6.2750    1.1330 ca        1 XJX     -0.088000
     12 C12         6.2480   -6.5440    1.2920 ca        1 XJX     -0.098000
     13 C13         6.6330   -7.6340    2.0180 ca        1 XJX     -0.127000
     14 C14         5.6750   -8.5170    2.6240 ca        1 XJX     -0.104300
     15 C15         6.2010   -9.7170    3.3570 c3        1 XJX      0.218100
     16 N16         5.5790   -9.9450    4.6570 n3        1 XJX     -0.729600
     17 C18         5.9650  -11.2330    5.2170 c3        1 XJX      0.166300
     18 C19         5.3410  -11.4910    6.6020 c3        1 XJX      0.168300
     19 N20         5.5600  -10.3980    7.5380 n3        1 XJX     -0.733600
     20 C22         4.9400  -10.6400    8.8210 c3        1 XJX      0.158100
     21 C23         5.1880   -9.1070    6.9760 c3        1 XJX      0.168300
     22 C24         5.8120   -8.8530    5.5910 c3        1 XJX      0.166300
     23 C25         4.3300   -8.2950    2.4930 ca        1 XJX     -0.062000
     24 C26         3.8850   -7.1710    1.7500 ca        1 XJX     -0.100000
     25 C27         2.6150   -6.6700    1.4380 cc        1 XJX     -0.099400
     26 C28         2.6580   -3.6000   -1.8740 ca        1 XJX      0.199100
     27 O29         3.0180   -4.8450   -2.3200 oh        1 XJX     -0.483100
     28 C30         2.8940   -2.4430   -2.6280 ca        1 XJX     -0.312000
     29 C31         2.4980   -1.2010   -2.1160 ca        1 XJX      0.192100
     30 O32         2.7140   -0.0390   -2.8150 oh        1 XJX     -0.486100
     31 H11C       -0.3760    1.2990    0.2270 hc        1 XJX      0.037700
     32 H12C       -0.5920    0.0900   -1.1080 hc        1 XJX      0.037700
     33 H13C       -0.4100   -0.4730    0.6050 hc        1 XJX      0.037700
     34 H2          1.7190    1.0340   -1.0680 hc        1 XJX      0.072700
     35 H31C        3.2440    0.5330    0.8440 hc        1 XJX      0.037700
     36 H32C        1.8710   -0.2080    1.7660 hc        1 XJX      0.037700
     37 H33C        1.8330    1.5550    1.3500 hc        1 XJX      0.037700
     38 H5          1.1160   -2.2060    0.8360 ha        1 XJX      0.158000
     39 H10         4.4930   -4.4270   -0.1230 h4        1 XJX      0.174000
     40 H27         1.6190   -7.0320    1.7000 h4        1 XJX      0.189000
     41 H12         6.9830   -5.8710    0.8290 ha        1 XJX      0.128000
     42 H13         7.7020   -7.8590    2.1540 ha        1 XJX      0.126000
     43 H151        5.9890  -10.6270    2.7220 h1        1 XJX      0.037200
     44 H152        7.3250   -9.6300    3.4530 h1        1 XJX      0.037200
     45 H25         3.5880   -8.9650    2.9530 ha        1 XJX      0.146000
     46 H181        7.0860  -11.3340    5.3010 h1        1 XJX      0.038950
     47 H182        5.5960  -12.0380    4.5210 h1        1 XJX      0.038950
     48 H241        6.9150   -8.6490    5.7260 h1        1 XJX      0.038950
     49 H242        5.3380   -7.9280    5.1580 h1        1 XJX      0.038950
     50 H191        4.2420  -11.7120    6.4670 h1        1 XJX      0.035950
     51 H192        5.8280  -12.4120    7.0310 h1        1 XJX      0.035950
     52 H221        5.2180   -9.8060    9.5180 h1        1 XJX      0.031033
     53 H222        3.8180  -10.7050    8.7710 h1        1 XJX      0.031033
     54 H223        5.3340  -11.6040    9.2360 h1        1 XJX      0.031033
     55 H231        5.5630   -8.3090    7.6740 h1        1 XJX      0.035950
     56 H232        4.0670   -8.9960    6.8930 h1        1 XJX      0.035950
     57 H29         3.3930   -4.7550   -3.2100 ho        1 XJX      0.430000
     58 H30         3.3810   -2.5120   -3.6110 ha        1 XJX      0.143000
     59 H32         3.1440   -0.2630   -3.6540 ho        1 XJX      0.426000
@<TRIPOS>BOND
     1    1    2 1   
     2    1   31 1   
     3    1   32 1   
     4    1   33 1   
     5    2    3 1   
     6    2    4 1   
     7    2   34 1   
     8    3   35 1   
     9    3   36 1   
    10    3   37 1   
    11    4    5 ar  
    12    4   29 ar  
    13    5    6 ar  
    14    5   38 1   
    15    6    7 1   
    16    6   26 ar  
    17    7    8 2   
    18    7    9 1   
    19    9   10 1   
    20    9   25 1   
    21   10   11 2   
    22   10   39 1   
    23   11   12 ar  
    24   11   24 ar  
    25   12   13 ar  
    26   12   41 1   
    27   13   14 ar  
    28   13   42 1   
    29   14   15 1   
    30   14   23 ar  
    31   15   16 1   
    32   15   43 1   
    33   15   44 1   
    34   16   17 1   
    35   16   22 1   
    36   17   18 1   
    37   17   46 1   
    38   17   47 1   
    39   18   19 1   
    40   18   50 1   
    41   18   51 1   
    42   19   20 1   
    43   19   21 1   
    44   20   52 1   
    45   20   53 1   
    46   20   54 1   
    47   21   22 1   
    48   21   55 1   
    49   21   56 1   
    50   22   48 1   
    51   22   49 1   
    52   23   24 ar  
    53   23   45 1   
    54   24   25 2   
    55   25   40 1   
    56   26   27 1   
    57   26   28 ar  
    58   27   57 1   
    59   28   29 ar  
    60   28   58 1   
    61   29   30 1   
    62   30   59 1   
@<TRIPOS>SUBSTRUCTURE
     1 XJX         1 TEMP              0 ****  ****    0 ROOT
