@<TRIPOS>MOLECULE
XK0
   33    34     1     0     0
SMALL
bcc


@<TRIPOS>ATOM
      1 N13         0.0030    0.3140   -0.1790 n4        1 XK0     -0.804600
      2 C8          1.4730    0.0700   -0.0480 c2        1 XK0      0.481100
      3 N3          1.9530    0.0850    1.1430 n2        1 XK0     -0.544900
      4 S12         2.2230   -0.1910   -1.5770 ss        1 XK0     -0.174300
      5 C9          3.8520   -0.6310   -1.0190 c3        1 XK0     -0.018300
      6 C4          4.2790    0.1370    0.2020 c3        1 XK0     -0.120400
      7 C1          3.3800   -0.0990    1.4400 c3        1 XK0      0.218500
      8 C5          3.6230   -1.5370    1.9520 c3        1 XK0     -0.094100
      9 C2          3.7450    0.8540    2.5670 ca        1 XK0     -0.153300
     10 C7          2.9860    0.8170    3.7500 ca        1 XK0     -0.075000
     11 C11         3.2880    1.6450    4.8190 ca        1 XK0     -0.181000
     12 C14         4.3800    2.5330    4.7190 ca        1 XK0      0.160100
     13 O15         4.5960    3.3130    5.8280 os        1 XK0     -0.313900
     14 C16         5.7170    4.1940    5.7800 c3        1 XK0      0.107700
     15 C10         5.1490    2.5720    3.5500 ca        1 XK0     -0.181000
     16 C6          4.8260    1.7340    2.4830 ca        1 XK0     -0.075000
     17 H131       -0.4130   -0.4670   -0.6990 hn        1 XK0      0.471133
     18 H132       -0.1370    1.1880   -0.6990 hn        1 XK0      0.471133
     19 H91C        3.8990   -1.7340   -0.8440 h1        1 XK0      0.111200
     20 H92C        4.5220   -0.3890   -1.8860 h1        1 XK0      0.111200
     21 H41C        4.3030    1.2330   -0.0430 hc        1 XK0      0.093200
     22 H42C        5.3240   -0.1750    0.4760 hc        1 XK0      0.093200
     23 H51C        3.3890   -2.2920    1.1650 hc        1 XK0      0.063700
     24 H52C        4.6990   -1.6260    2.2360 hc        1 XK0      0.063700
     25 H53C        3.0020   -1.7470    2.8560 hc        1 XK0      0.063700
     26 H7          2.1390    0.1200    3.8430 ha        1 XK0      0.135500
     27 H6          5.4610    1.7880    1.5860 ha        1 XK0      0.135500
     28 H11         2.6970    1.6190    5.7470 ha        1 XK0      0.158500
     29 H10         6.0090    3.2520    3.4620 ha        1 XK0      0.158500
     30 H161        5.6900    4.6940    6.7830 h1        1 XK0      0.055367
     31 H162        6.6640    3.6180    5.6500 h1        1 XK0      0.055367
     32 H163        5.5910    4.9430    4.9610 h1        1 XK0      0.055367
     33 H133       -0.4550    0.3930    0.7390 hn        1 XK0      0.471133
@<TRIPOS>BOND
     1    1    2 1   
     2    1   17 1   
     3    1   18 1   
     4    1   33 1   
     5    2    3 2   
     6    2    4 1   
     7    3    7 1   
     8    4    5 1   
     9    5    6 1   
    10    5   19 1   
    11    5   20 1   
    12    6    7 1   
    13    6   21 1   
    14    6   22 1   
    15    7    8 1   
    16    7    9 1   
    17    8   23 1   
    18    8   24 1   
    19    8   25 1   
    20    9   10 ar  
    21    9   16 ar  
    22   10   11 ar  
    23   10   26 1   
    24   11   12 ar  
    25   11   28 1   
    26   12   13 1   
    27   12   15 ar  
    28   13   14 1   
    29   14   30 1   
    30   14   31 1   
    31   14   32 1   
    32   15   16 ar  
    33   15   29 1   
    34   16   27 1   
@<TRIPOS>SUBSTRUCTURE
     1 XK0         1 TEMP              0 ****  ****    0 ROOT
