@<TRIPOS>MOLECULE
XK0
   33    34     1     0     0
SMALL
bcc


@<TRIPOS>ATOM
      1 N13        -0.0020    0.2970   -0.1660 n4        1 XK0     -0.804600
      2 C8          1.4710    0.0600   -0.0390 c2        1 XK0      0.481100
      3 N3          1.9540    0.0760    1.1490 n2        1 XK0     -0.544900
      4 S12         2.2160   -0.1960   -1.5720 ss        1 XK0     -0.174300
      5 C9          3.8490   -0.6300   -1.0200 c3        1 XK0     -0.018300
      6 C4          4.2770    0.1390    0.2000 c3        1 XK0     -0.120400
      7 C1          3.3840   -0.1020    1.4410 c3        1 XK0      0.218500
      8 C5          3.6340   -1.5390    1.9510 c3        1 XK0     -0.094100
      9 C2          3.7490    0.8520    2.5670 ca        1 XK0     -0.153300
     10 C7          2.9930    0.8110    3.7530 ca        1 XK0     -0.075000
     11 C11         3.2960    1.6390    4.8220 ca        1 XK0     -0.181000
     12 C14         4.3830    2.5320    4.7180 ca        1 XK0      0.160100
     13 O15         4.6000    3.3130    5.8270 os        1 XK0     -0.313900
     14 C16         5.7160    4.1990    5.7760 c3        1 XK0      0.107700
     15 C10         5.1490    2.5750    3.5470 ca        1 XK0     -0.181000
     16 C6          4.8250    1.7370    2.4800 ca        1 XK0     -0.075000
     17 H131       -0.4150   -0.4820   -0.6890 hn        1 XK0      0.471133
     18 H132       -0.1470    1.1740   -0.6790 hn        1 XK0      0.471133
     19 H91C        4.5150   -0.3840   -1.8890 h1        1 XK0      0.111200
     20 H92C        3.9010   -1.7330   -0.8460 h1        1 XK0      0.111200
     21 H41C        4.2950    1.2360   -0.0430 hc        1 XK0      0.093200
     22 H42C        5.3240   -0.1690    0.4700 hc        1 XK0      0.093200
     23 H51C        3.4020   -2.2950    1.1650 hc        1 XK0      0.063700
     24 H52C        3.0180   -1.7530    2.8570 hc        1 XK0      0.063700
     25 H53C        4.7130   -1.6240    2.2320 hc        1 XK0      0.063700
     26 H7          2.1500    0.1100    3.8490 ha        1 XK0      0.135500
     27 H6          5.4570    1.7940    1.5810 ha        1 XK0      0.135500
     28 H11         2.7080    1.6110    5.7520 ha        1 XK0      0.158500
     29 H10         6.0050    3.2590    3.4560 ha        1 XK0      0.158500
     30 H161        5.6910    4.6980    6.7790 h1        1 XK0      0.055367
     31 H162        6.6660    3.6270    5.6420 h1        1 XK0      0.055367
     32 H163        5.5850    4.9480    4.9580 h1        1 XK0      0.055367
     33 H133       -0.4570    0.3690    0.7550 hn        1 XK0      0.471133
@<TRIPOS>BOND
     1    1    2 1   
     2    1   17 1   
     3    1   18 1   
     4    1   33 1   
     5    2    3 2   
     6    2    4 1   
     7    3    7 1   
     8    4    5 1   
     9    5    6 1   
    10    5   19 1   
    11    5   20 1   
    12    6    7 1   
    13    6   21 1   
    14    6   22 1   
    15    7    8 1   
    16    7    9 1   
    17    8   23 1   
    18    8   24 1   
    19    8   25 1   
    20    9   10 ar  
    21    9   16 ar  
    22   10   11 ar  
    23   10   26 1   
    24   11   12 ar  
    25   11   28 1   
    26   12   13 1   
    27   12   15 ar  
    28   13   14 1   
    29   14   30 1   
    30   14   31 1   
    31   14   32 1   
    32   15   16 ar  
    33   15   29 1   
    34   16   27 1   
@<TRIPOS>SUBSTRUCTURE
     1 XK0         1 TEMP              0 ****  ****    0 ROOT
