@<TRIPOS>MOLECULE
XK0
   32    33     1     0     0
SMALL
bcc


@<TRIPOS>ATOM
      1 N13        -3.3920    2.1860   -0.5560 nh        1 XK0     -0.877800
      2 C8         -2.7470    0.9700   -0.2640 c2        1 XK0      0.654100
      3 N3         -1.5300    0.9460    0.1860 n2        1 XK0     -0.673900
      4 S12        -3.8250   -0.4010   -0.5430 ss        1 XK0     -0.295300
      5 C9         -2.8740   -1.7420    0.1030 c3        1 XK0     -0.015300
      6 C4         -1.3900   -1.5560   -0.0470 c3        1 XK0     -0.108400
      7 C1         -0.8670   -0.2700    0.6370 c3        1 XK0      0.215500
      8 C5         -1.0240   -0.4520    2.1650 c3        1 XK0     -0.093100
      9 C2          0.6290   -0.1130    0.3740 ca        1 XK0     -0.096300
     10 C7          1.2740    1.0420    0.8490 ca        1 XK0     -0.083500
     11 C11         2.6360    1.2320    0.6620 ca        1 XK0     -0.185000
     12 C14         3.3820    0.2480   -0.0140 ca        1 XK0      0.124100
     13 O15         4.7290    0.5250   -0.1460 os        1 XK0     -0.327900
     14 C16         5.5030   -0.4450   -0.8400 c3        1 XK0      0.113700
     15 C10         2.7570   -0.9060   -0.4930 ca        1 XK0     -0.185000
     16 C6          1.3840   -1.0750   -0.2980 ca        1 XK0     -0.083500
     17 H131       -2.8010    2.9910   -0.5840 hn        1 XK0      0.401800
     18 H132       -4.0090    2.1240   -1.3370 hn        1 XK0      0.401800
     19 H91C       -3.1440   -1.9010    1.1760 h1        1 XK0      0.078700
     20 H92C       -3.2080   -2.6460   -0.4690 h1        1 XK0      0.078700
     21 H41C       -0.8710   -2.4370    0.4150 hc        1 XK0      0.064700
     22 H42C       -1.1270   -1.5290   -1.1380 hc        1 XK0      0.064700
     23 H51C       -2.0990   -0.5340    2.4490 hc        1 XK0      0.044700
     24 H52C       -0.4920   -1.3820    2.4770 hc        1 XK0      0.044700
     25 H53C       -0.5780    0.4150    2.7080 hc        1 XK0      0.044700
     26 H7          0.6930    1.8180    1.3740 ha        1 XK0      0.139000
     27 H6          0.9260   -1.9940   -0.6920 ha        1 XK0      0.139000
     28 H11         3.1410    2.1360    1.0300 ha        1 XK0      0.142000
     29 H10         3.3260   -1.6810   -1.0230 ha        1 XK0      0.142000
     30 H161        5.1370   -0.5670   -1.8890 h1        1 XK0      0.043367
     31 H162        6.5350   -0.0110   -0.8310 h1        1 XK0      0.043367
     32 H163        5.4830   -1.4240   -0.3030 h1        1 XK0      0.043367
@<TRIPOS>BOND
     1    1    2 1   
     2    1   17 1   
     3    1   18 1   
     4    2    3 2   
     5    2    4 1   
     6    3    7 1   
     7    4    5 1   
     8    5    6 1   
     9    5   19 1   
    10    5   20 1   
    11    6    7 1   
    12    6   21 1   
    13    6   22 1   
    14    7    8 1   
    15    7    9 1   
    16    8   23 1   
    17    8   24 1   
    18    8   25 1   
    19    9   10 ar  
    20    9   16 ar  
    21   10   11 ar  
    22   10   26 1   
    23   11   12 ar  
    24   11   28 1   
    25   12   13 1   
    26   12   15 ar  
    27   13   14 1   
    28   14   30 1   
    29   14   31 1   
    30   14   32 1   
    31   15   16 ar  
    32   15   29 1   
    33   16   27 1   
@<TRIPOS>SUBSTRUCTURE
     1 XK0         1 TEMP              0 ****  ****    0 ROOT
