@<TRIPOS>MOLECULE
XK0
   33    34     1     0     0
SMALL
bcc


@<TRIPOS>ATOM
      1 N13         0.0110    0.3380   -0.1970 nz        1 XK0     -0.804600
      2 C8          1.4820    0.0950   -0.0650 c2        1 XK0      0.481100
      3 N3          1.9580    0.0950    1.1270 n2        1 XK0     -0.544900
      4 S12         2.2360   -0.1420   -1.5960 ss        1 XK0     -0.174300
      5 C9          3.8640   -0.5870   -1.0390 c3        1 XK0     -0.018300
      6 C4          4.2870    0.1650    0.1940 c3        1 XK0     -0.120400
      7 C1          3.3850   -0.0900    1.4260 c3        1 XK0      0.218500
      8 C5          3.6300   -1.5340    1.9180 c3        1 XK0     -0.094100
      9 C2          3.7450    0.8480    2.5660 ca        1 XK0     -0.153300
     10 C7          2.9820    0.7940    3.7470 ca        1 XK0     -0.075000
     11 C11         3.2790    1.6080    4.8280 ca        1 XK0     -0.181000
     12 C14         4.3690    2.4990    4.7430 ca        1 XK0      0.160100
     13 O15         4.5800    3.2650    5.8630 os        1 XK0     -0.313900
     14 C16         5.6990    4.1490    5.8310 c3        1 XK0      0.107700
     15 C10         5.1420    2.5560    3.5770 ca        1 XK0     -0.181000
     16 C6          4.8230    1.7320    2.4970 ca        1 XK0     -0.075000
     17 H131       -0.4010   -0.4330   -0.7350 hn        1 XK0      0.471133
     18 H132       -0.1290    1.2220   -0.6990 hn        1 XK0      0.471133
     19 H91C        3.9130   -1.6920   -0.8790 h1        1 XK0      0.111200
     20 H92C        4.5370   -0.3310   -1.9010 h1        1 XK0      0.111200
     21 H41C        4.3080    1.2650   -0.0360 hc        1 XK0      0.093200
     22 H42C        5.3320   -0.1490    0.4660 hc        1 XK0      0.093200
     23 H51C        3.4010   -2.2790    1.1210 hc        1 XK0      0.063700
     24 H52C        3.0060   -1.7580    2.8170 hc        1 XK0      0.063700
     25 H53C        4.7060   -1.6250    2.2040 hc        1 XK0      0.063700
     26 H7          2.1360    0.0930    3.8280 ha        1 XK0      0.135500
     27 H6          5.4610    1.8000    1.6030 ha        1 XK0      0.135500
     28 H11         2.6860    1.5680    5.7540 ha        1 XK0      0.158500
     29 H10         6.0000    3.2390    3.5010 ha        1 XK0      0.158500
     30 H161        5.5740    4.9090    5.0220 h1        1 XK0      0.055367
     31 H162        5.6690    4.6350    6.8400 h1        1 XK0      0.055367
     32 H163        6.6480    3.5770    5.6950 h1        1 XK0      0.055367
     33 H133       -0.4510    0.3970    0.7220 hn        1 XK0      0.471133
@<TRIPOS>BOND
     1    1    2 1   
     2    1   17 1   
     3    1   18 1   
     4    1   33 1   
     5    2    3 2   
     6    2    4 1   
     7    3    7 1   
     8    4    5 1   
     9    5    6 1   
    10    5   19 1   
    11    5   20 1   
    12    6    7 1   
    13    6   21 1   
    14    6   22 1   
    15    7    8 1   
    16    7    9 1   
    17    8   23 1   
    18    8   24 1   
    19    8   25 1   
    20    9   10 ar  
    21    9   16 ar  
    22   10   11 ar  
    23   10   26 1   
    24   11   12 ar  
    25   11   28 1   
    26   12   13 1   
    27   12   15 ar  
    28   13   14 1   
    29   14   30 1   
    30   14   31 1   
    31   14   32 1   
    32   15   16 ar  
    33   15   29 1   
    34   16   27 1   
@<TRIPOS>SUBSTRUCTURE
     1 XK0         1 TEMP              0 ****  ****    0 ROOT
