@<TRIPOS>MOLECULE
XK2
   84    90     1     0     0
SMALL
bcc


@<TRIPOS>ATOM
      1 C1         -0.2640   -0.0480    0.2980 c         1 XK2      0.804500
      2 O1         -0.7420    0.1630   -0.8460 o         1 XK2     -0.682500
      3 N2          1.1410   -0.1940    0.4440 n         1 XK2     -0.458800
      4 C2          1.9100   -0.2090   -0.7910 c3        1 XK2      0.138800
      5 C3          1.8700    0.2810    1.6090 c3        1 XK2      0.101200
      6 C4          1.0170    1.0690    2.6330 c3        1 XK2      0.106100
      7 O4          1.8730    1.7300    3.5580 oh        1 XK2     -0.606300
      8 C5          0.1170    0.1700    3.4950 c3        1 XK2      0.106100
      9 O5         -0.7740    0.9680    4.2580 oh        1 XK2     -0.606300
     10 C6         -0.7000   -0.8110    2.6170 c3        1 XK2      0.101200
     11 N7         -1.1640   -0.2570    1.3660 n         1 XK2     -0.458800
     12 C7         -2.4670    0.3640    1.2420 c3        1 XK2      0.138800
     13 C20         2.3580    1.1260   -1.3180 ca        1 XK2     -0.126300
     14 C21         3.6940    1.5520   -1.0940 ca        1 XK2     -0.118000
     15 C22         4.1410    2.7450   -1.6050 ca        1 XK2     -0.129000
     16 C23         3.2730    3.5780   -2.3630 ca        1 XK2     -0.031500
     17 C24         3.7090    4.8180   -2.9040 ca        1 XK2     -0.121000
     18 C25         2.8480    5.6000   -3.6340 ca        1 XK2     -0.125000
     19 C26         1.5140    5.1800   -3.8580 ca        1 XK2     -0.133000
     20 C27         1.0680    3.9870   -3.3460 ca        1 XK2     -0.112500
     21 C28         1.9370    3.1570   -2.5860 ca        1 XK2     -0.045500
     22 C29         1.4990    1.9170   -2.0480 ca        1 XK2     -0.091500
     23 C31         2.6530   -0.8320    2.3410 c3        1 XK2     -0.044600
     24 C32         3.9130   -1.2120    1.6490 ca        1 XK2     -0.084300
     25 C33         5.0090   -0.3390    1.6490 ca        1 XK2     -0.128250
     26 C34         6.2030   -0.7060    1.0310 ca        1 XK2     -0.130000
     27 C35         6.3160   -1.9500    0.4100 ca        1 XK2     -0.129000
     28 C36         5.2310   -2.8250    0.4080 ca        1 XK2     -0.130000
     29 C37         4.0340   -2.4590    1.0240 ca        1 XK2     -0.128250
     30 C61        -1.8070   -1.4670    3.4680 c3        1 XK2     -0.044600
     31 C62        -1.2230   -2.4200    4.4540 ca        1 XK2     -0.084300
     32 C63        -0.8720   -1.9800    5.7360 ca        1 XK2     -0.128250
     33 C64        -0.3540   -2.8760    6.6690 ca        1 XK2     -0.130000
     34 C65        -0.1800   -4.2180    6.3280 ca        1 XK2     -0.129000
     35 C66        -0.5250   -4.6610    5.0510 ca        1 XK2     -0.130000
     36 C67        -1.0450   -3.7660    4.1170 ca        1 XK2     -0.128250
     37 C70        -2.5030    1.8650    1.3430 ca        1 XK2     -0.126300
     38 C71        -2.7300    2.4910    2.5470 ca        1 XK2     -0.091500
     39 C72        -2.8370    3.9070    2.6190 ca        1 XK2     -0.045500
     40 C73        -3.0810    4.5740    3.8510 ca        1 XK2     -0.112500
     41 C74        -3.1830    5.9420    3.8940 ca        1 XK2     -0.133000
     42 C75        -3.0450    6.7070    2.7110 ca        1 XK2     -0.125000
     43 C76        -2.8080    6.0890    1.5080 ca        1 XK2     -0.121000
     44 C77        -2.6980    4.6730    1.4340 ca        1 XK2     -0.031500
     45 C78        -2.4500    4.0040    0.2040 ca        1 XK2     -0.129000
     46 C79        -2.3540    2.6360    0.1590 ca        1 XK2     -0.118000
     47 H21A        1.2850   -0.7170   -1.5830 h1        1 XK2      0.073700
     48 H22A        2.8180   -0.8510   -0.5880 h1        1 XK2      0.073700
     49 H3          2.6510    1.0230    1.2370 h1        1 XK2      0.064700
     50 H4          0.3870    1.8400    2.1020 h1        1 XK2      0.067700
     51 HO4         2.3380    2.4210    3.0700 ho        1 XK2      0.416000
     52 H5          0.7530   -0.4370    4.2030 h1        1 XK2      0.067700
     53 HO5        -0.2330    1.6350    4.7030 ho        1 XK2      0.416000
     54 H6          0.0180   -1.6490    2.3410 h1        1 XK2      0.064700
     55 H71A       -2.8800    0.0680    0.2310 h1        1 XK2      0.073700
     56 H72        -3.1440   -0.0640    2.0340 h1        1 XK2      0.073700
     57 H21         4.3690    0.9060   -0.5070 ha        1 XK2      0.148000
     58 H22         5.1760    3.0760   -1.4380 ha        1 XK2      0.132000
     59 H24         4.7480    5.1350   -2.7270 ha        1 XK2      0.131500
     60 H25         3.1830    6.5600   -4.0550 ha        1 XK2      0.131000
     61 H26         0.8450    5.8240   -4.4470 ha        1 XK2      0.131500
     62 H27         0.0340    3.6500   -3.5150 ha        1 XK2      0.134000
     63 H29         0.4570    1.5930   -2.2190 ha        1 XK2      0.156000
     64 H311        2.0110   -1.7400    2.4860 hc        1 XK2      0.067700
     65 H312        2.9110   -0.4320    3.3620 hc        1 XK2      0.067700
     66 H33         4.9250    0.6380    2.1470 ha        1 XK2      0.136250
     67 H34         7.0580   -0.0150    1.0380 ha        1 XK2      0.132500
     68 H35         7.2600   -2.2400   -0.0750 ha        1 XK2      0.132500
     69 H36         5.3170   -3.8070   -0.0790 ha        1 XK2      0.132500
     70 H37         3.1800   -3.1540    1.0190 ha        1 XK2      0.136250
     71 H611       -2.3870   -0.6710    4.0070 hc        1 XK2      0.067700
     72 H612       -2.5160   -2.0250    2.7990 hc        1 XK2      0.067700
     73 H63        -1.0060   -0.9170    5.9950 ha        1 XK2      0.136250
     74 H64        -0.0830   -2.5250    7.6750 ha        1 XK2      0.132500
     75 H65         0.2270   -4.9250    7.0650 ha        1 XK2      0.132500
     76 H66        -0.3900   -5.7180    4.7800 ha        1 XK2      0.132500
     77 H67        -1.3200   -4.1200    3.1120 ha        1 XK2      0.136250
     78 H71        -2.8130    1.9040    3.4770 ha        1 XK2      0.156000
     79 H73        -3.1880    3.9700    4.7640 ha        1 XK2      0.134000
     80 H74        -3.3730    6.4610    4.8450 ha        1 XK2      0.131500
     81 H75        -3.1310    7.8020    2.7710 ha        1 XK2      0.131000
     82 H76        -2.7000    6.6750    0.5830 ha        1 XK2      0.131500
     83 H78        -2.3350    4.6060   -0.7100 ha        1 XK2      0.132000
     84 H79        -2.1490    2.1090   -0.7880 ha        1 XK2      0.148000
@<TRIPOS>BOND
     1    1    2 2   
     2    1    3 1   
     3    1   11 1   
     4    3    4 1   
     5    3    5 1   
     6    4   13 1   
     7    4   47 1   
     8    4   48 1   
     9    5    6 1   
    10    5   23 1   
    11    5   49 1   
    12    6    7 1   
    13    6    8 1   
    14    6   50 1   
    15    7   51 1   
    16    8    9 1   
    17    8   10 1   
    18    8   52 1   
    19    9   53 1   
    20   10   11 1   
    21   10   30 1   
    22   10   54 1   
    23   11   12 1   
    24   12   37 1   
    25   12   55 1   
    26   12   56 1   
    27   13   14 ar  
    28   13   22 ar  
    29   14   15 ar  
    30   14   57 1   
    31   15   16 ar  
    32   15   58 1   
    33   16   17 ar  
    34   16   21 ar  
    35   17   18 ar  
    36   17   59 1   
    37   18   19 ar  
    38   18   60 1   
    39   19   20 ar  
    40   19   61 1   
    41   20   21 ar  
    42   20   62 1   
    43   21   22 ar  
    44   22   63 1   
    45   23   24 1   
    46   23   64 1   
    47   23   65 1   
    48   24   25 ar  
    49   24   29 ar  
    50   25   26 ar  
    51   25   66 1   
    52   26   27 ar  
    53   26   67 1   
    54   27   28 ar  
    55   27   68 1   
    56   28   29 ar  
    57   28   69 1   
    58   29   70 1   
    59   30   31 1   
    60   30   71 1   
    61   30   72 1   
    62   31   32 ar  
    63   31   36 ar  
    64   32   33 ar  
    65   32   73 1   
    66   33   34 ar  
    67   33   74 1   
    68   34   35 ar  
    69   34   75 1   
    70   35   36 ar  
    71   35   76 1   
    72   36   77 1   
    73   37   38 ar  
    74   37   46 ar  
    75   38   39 ar  
    76   38   78 1   
    77   39   40 ar  
    78   39   44 ar  
    79   40   41 ar  
    80   40   79 1   
    81   41   42 ar  
    82   41   80 1   
    83   42   43 ar  
    84   42   81 1   
    85   43   44 ar  
    86   43   82 1   
    87   44   45 ar  
    88   45   46 ar  
    89   45   83 1   
    90   46   84 1   
@<TRIPOS>SUBSTRUCTURE
     1 XK2         1 TEMP              0 ****  ****    0 ROOT
