@<TRIPOS>MOLECULE
XK2
   84    78     1     0     0
SMALL
bcc


@<TRIPOS>ATOM
      1 C1          0.3100    0.6140    1.2240 c1        1 XK2      0.417000
      2 O1         -0.2730    0.6730    2.2940 o         1 XK2     -0.381000
      3 N2          1.3260    0.5530    1.2080 n2        1 XK2     -0.371000
      4 C2          2.1550    0.5860   -0.0090 c3        1 XK2      0.031000
      5 C3          1.7270    0.5810    2.2630 c3        1 XK2      0.027000
      6 C4          0.5870    1.2510    3.2960 c3        1 XK2     -0.024000
      7 O4         -0.0050    0.4020    3.8180 oh        1 XK2     -0.318000
      8 C5         -0.6010    2.3600    2.3780 c3        1 XK2     -0.023000
      9 O5         -0.1800    3.4240    2.3530 oh        1 XK2     -0.313000
     10 C6         -0.8580    1.8190    0.7870 c3        1 XK2      0.018000
     11 N7          0.0020    1.1830    0.4570 n3        1 XK2     -0.353000
     12 C7          0.3560    0.9400   -0.9320 c3        1 XK2      0.033000
     13 C20         2.2410   -0.8580   -0.6240 c2        1 XK2     -0.113000
     14 C21         2.1980   -2.1230   -0.0100 c2        1 XK2     -0.118000
     15 C22         2.2050   -3.2810   -0.7940 c1        1 XK2     -0.119000
     16 C23         2.2560   -3.1810   -2.2120 c1        1 XK2     -0.033000
     17 C24         2.1020   -4.3460   -3.0000 c2        1 XK2     -0.120000
     18 C25         1.9910   -4.2400   -4.3880 c1        1 XK2     -0.124000
     19 C26         2.0340   -2.9750   -5.0020 c1        1 XK2     -0.124300
     20 C27         2.1880   -1.8230   -4.2200 c1        1 XK2     -0.124300
     21 C28         2.2990   -1.9330   -2.8160 c1        1 XK2     -0.042000
     22 C29         2.2910   -0.7560   -2.0160 c2        1 XK2     -0.113000
     23 C31         2.0730   -0.9460    2.7500 c3        1 XK2     -0.131000
     24 C32         2.6450   -0.9140    4.2160 c2        1 XK2     -0.083000
     25 C33         2.0520   -1.6840    5.2150 c2        1 XK2     -0.123000
     26 C34         2.5680   -1.6580    6.5130 c1        1 XK2     -0.127000
     27 C35         3.6720   -0.8640    6.8060 c1        1 XK2     -0.124300
     28 C36         4.2620   -0.0960    5.8060 c1        1 XK2     -0.124300
     29 C37         3.7480   -0.1210    4.5120 c1        1 XK2     -0.129000
     30 C61        -0.9890    3.0990   -0.1960 c3        1 XK2     -0.136000
     31 C62        -2.4960    3.5020   -0.3310 c2        1 XK2     -0.081000
     32 C63        -3.3280    2.7920   -1.1760 c2        1 XK2     -0.125000
     33 C64        -4.6840    3.1240   -1.2660 c1        1 XK2     -0.126000
     34 C65        -5.1990    4.1730   -0.5020 c1        1 XK2     -0.124300
     35 C66        -4.3640    4.8860    0.3470 c1        1 XK2     -0.124300
     36 C67        -3.0090    4.5530    0.4350 c1        1 XK2     -0.126000
     37 C70        -0.8190    0.2400   -1.6500 c2        1 XK2     -0.114000
     38 C71        -2.0540   -0.3250   -1.3760 c2        1 XK2     -0.094000
     39 C72        -2.6920   -1.1240   -2.3430 c1        1 XK2     -0.042000
     40 C73        -3.9520   -1.6840   -2.0730 c1        1 XK2     -0.124300
     41 C74        -4.5870   -2.4580   -3.0350 c1        1 XK2     -0.124300
     42 C75        -3.9820   -2.6780   -4.2560 c1        1 XK2     -0.124300
     43 C76        -2.7430   -2.1290   -4.5240 c1        1 XK2     -0.124300
     44 C77        -2.0950   -1.3420   -3.5490 c1        1 XK2     -0.034000
     45 C78        -0.8490   -0.7730   -3.8270 c1        1 XK2     -0.121000
     46 C79        -0.2160    0.0180   -2.8720 c1        1 XK2     -0.124000
     47 H21A        3.0560    0.8970    0.2200 h1        1 XK2      0.106500
     48 H22A        1.7600    1.1900   -0.6540 h1        1 XK2      0.106500
     49 H3          2.5520    1.1270    2.2860 h1        1 XK2      0.095000
     50 H4          1.0340    1.7610    3.9530 h1        1 XK2      0.139000
     51 HO4         0.1280    0.4500    4.7180 ho        1 XK2      0.208000
     52 H5         -1.4730    2.3690    2.8610 h1        1 XK2      0.142000
     53 HO5        -0.4510    3.8310    1.6180 ho        1 XK2      0.201000
     54 H6         -1.6610    1.3080    0.7520 h1        1 XK2      0.101000
     55 H71A        0.5500    1.7980   -1.3790 h1        1 XK2      0.103000
     56 H72         1.1430    0.3700   -0.9700 h1        1 XK2      0.103000
     57 H21         2.2810   -2.1950    0.9790 ha        1 XK2      0.153000
     58 H22         2.1750   -4.1720   -0.3600 ha        1 XK2      0.136000
     59 H24         2.0710   -5.2390   -2.5660 ha        1 XK2      0.134000
     60 H25         1.8830   -5.0500   -4.9360 ha        1 XK2      0.133000
     61 H26         1.9570   -2.9000   -5.9670 ha        1 XK2      0.132800
     62 H27         2.2180   -0.9360   -4.6490 ha        1 XK2      0.132800
     63 H29         2.3990    0.1420   -2.4470 ha        1 XK2      0.140000
     64 H311        2.7260   -1.3290    2.1620 hc        1 XK2      0.104000
     65 H312        1.2540   -1.4910    2.7290 hc        1 XK2      0.104000
     66 H33         1.2740   -2.2440    5.0070 ha        1 XK2      0.139000
     67 H34         2.1450   -2.2110    7.2320 ha        1 XK2      0.134000
     68 H35         4.0330   -0.8450    7.7140 ha        1 XK2      0.132800
     69 H36         5.0370    0.4620    6.0110 ha        1 XK2      0.132800
     70 H37         4.1660    0.4200    3.8080 ha        1 XK2      0.133000
     71 H611       -0.6280    2.8690   -1.0860 hc        1 XK2      0.110000
     72 H612       -0.4860    3.8460    0.1760 hc        1 XK2      0.110000
     73 H63        -2.9700    2.0620   -1.7080 ha        1 XK2      0.137000
     74 H64        -5.2650    2.6270   -1.8580 ha        1 XK2      0.133000
     75 H65        -6.1770    4.4120   -0.5670 ha        1 XK2      0.132800
     76 H66        -4.7270    5.6290    0.8890 ha        1 XK2      0.132800
     77 H67        -2.4110    5.0620    1.0420 ha        1 XK2      0.137000
     78 H71        -2.5130   -0.1100   -0.5460 ha        1 XK2      0.165000
     79 H73        -4.3620   -1.5350   -1.2470 ha        1 XK2      0.132800
     80 H74        -5.4730   -2.8500   -2.8470 ha        1 XK2      0.132800
     81 H75        -4.4260   -3.2160   -4.9260 ha        1 XK2      0.132800
     82 H76        -2.3240   -2.2830   -5.3740 ha        1 XK2      0.132800
     83 H78        -0.4310   -0.9270   -4.6740 ha        1 XK2      0.133000
     84 H79         0.6210    0.4430   -3.0770 ha        1 XK2      0.131000
@<TRIPOS>BOND
     1    1    2 1   
     2    1   11 1   
     3    3    4 1   
     4    3    5 1   
     5    4   13 1   
     6    4   47 1   
     7    4   48 1   
     8    5    6 1   
     9    5   23 1   
    10    5   49 1   
    11    6    7 1   
    12    6    8 1   
    13    6   50 1   
    14    7   51 1   
    15    8    9 1   
    16    8   10 1   
    17    8   52 1   
    18    9   53 1   
    19   10   11 1   
    20   10   30 1   
    21   10   54 1   
    22   11   12 1   
    23   12   37 1   
    24   12   55 1   
    25   12   56 1   
    26   13   14 1   
    27   13   22 1   
    28   14   15 1   
    29   14   57 1   
    30   15   58 1   
    31   16   17 1   
    32   16   21 1   
    33   17   18 1   
    34   17   59 1   
    35   18   60 1   
    36   19   20 1   
    37   19   61 1   
    38   20   62 1   
    39   21   22 1   
    40   22   63 1   
    41   23   24 1   
    42   23   64 1   
    43   23   65 1   
    44   24   25 1   
    45   24   29 1   
    46   25   26 1   
    47   25   66 1   
    48   26   67 1   
    49   27   28 1   
    50   27   68 1   
    51   28   69 1   
    52   29   70 1   
    53   30   31 1   
    54   30   71 1   
    55   30   72 1   
    56   31   32 1   
    57   31   36 1   
    58   32   33 1   
    59   32   73 1   
    60   33   74 1   
    61   34   35 1   
    62   34   75 1   
    63   35   76 1   
    64   36   77 1   
    65   37   38 1   
    66   37   46 1   
    67   38   39 1   
    68   38   78 1   
    69   39   44 1   
    70   40   41 1   
    71   40   79 1   
    72   41   80 1   
    73   42   43 1   
    74   42   81 1   
    75   43   82 1   
    76   44   45 1   
    77   45   83 1   
    78   46   84 1   
@<TRIPOS>SUBSTRUCTURE
     1 XK2         1 TEMP              0 ****  ****    0 ROOT
