@<TRIPOS>MOLECULE
XK2
   84    90     1     0     0
SMALL
bcc


@<TRIPOS>ATOM
      1 C1         -0.2620   -0.0470    0.2940 c         1 XK2      0.804500
      2 O1         -0.7370    0.1660   -0.8510 o         1 XK2     -0.682500
      3 N2          1.1420   -0.1930    0.4440 n         1 XK2     -0.458800
      4 C2          1.9150   -0.2060   -0.7900 c3        1 XK2      0.138800
      5 C3          1.8680    0.2790    1.6110 c3        1 XK2      0.101200
      6 C4          1.0130    1.0660    2.6350 c3        1 XK2      0.106100
      7 O4          1.8670    1.7250    3.5630 oh        1 XK2     -0.606300
      8 C5          0.1110    0.1660    3.4930 c3        1 XK2      0.106100
      9 O5         -0.7820    0.9620    4.2550 oh        1 XK2     -0.606300
     10 C6         -0.7040   -0.8140    2.6110 c3        1 XK2      0.101200
     11 N7         -1.1640   -0.2570    1.3590 n         1 XK2     -0.458800
     12 C7         -2.4670    0.3650    1.2340 c3        1 XK2      0.138800
     13 C20         2.3650    1.1300   -1.3130 ca        1 XK2     -0.126300
     14 C21         3.7000    1.5560   -1.0850 ca        1 XK2     -0.118000
     15 C22         4.1470    2.7500   -1.5910 ca        1 XK2     -0.129000
     16 C23         3.2820    3.5840   -2.3500 ca        1 XK2     -0.031500
     17 C24         3.7190    4.8260   -2.8880 ca        1 XK2     -0.121000
     18 C25         2.8600    5.6090   -3.6190 ca        1 XK2     -0.125000
     19 C26         1.5270    5.1900   -3.8470 ca        1 XK2     -0.133000
     20 C27         1.0790    3.9950   -3.3390 ca        1 XK2     -0.112500
     21 C28         1.9470    3.1640   -2.5780 ca        1 XK2     -0.045500
     22 C29         1.5080    1.9220   -2.0440 ca        1 XK2     -0.091500
     23 C31         2.6490   -0.8350    2.3440 c3        1 XK2     -0.044600
     24 C32         3.9120   -1.2130    1.6540 ca        1 XK2     -0.084300
     25 C33         5.0070   -0.3390    1.6590 ca        1 XK2     -0.128250
     26 C34         6.2030   -0.7050    1.0440 ca        1 XK2     -0.130000
     27 C35         6.3190   -1.9470    0.4210 ca        1 XK2     -0.129000
     28 C36         5.2340   -2.8230    0.4140 ca        1 XK2     -0.130000
     29 C37         4.0350   -2.4590    1.0270 ca        1 XK2     -0.128250
     30 C61        -1.8140   -1.4710    3.4570 c3        1 XK2     -0.044600
     31 C62        -1.2330   -2.4250    4.4420 ca        1 XK2     -0.084300
     32 C63        -0.8850   -1.9880    5.7270 ca        1 XK2     -0.128250
     33 C64        -0.3700   -2.8870    6.6590 ca        1 XK2     -0.130000
     34 C65        -0.1960   -4.2280    6.3160 ca        1 XK2     -0.129000
     35 C66        -0.5380   -4.6680    5.0380 ca        1 XK2     -0.130000
     36 C67        -1.0550   -3.7720    4.1040 ca        1 XK2     -0.128250
     37 C70        -2.5020    1.8660    1.3360 ca        1 XK2     -0.126300
     38 C71        -2.7310    2.4910    2.5400 ca        1 XK2     -0.091500
     39 C72        -2.8360    3.9070    2.6130 ca        1 XK2     -0.045500
     40 C73        -3.0820    4.5720    3.8450 ca        1 XK2     -0.112500
     41 C74        -3.1820    5.9410    3.8900 ca        1 XK2     -0.133000
     42 C75        -3.0420    6.7080    2.7080 ca        1 XK2     -0.125000
     43 C76        -2.8030    6.0900    1.5050 ca        1 XK2     -0.121000
     44 C77        -2.6940    4.6750    1.4290 ca        1 XK2     -0.031500
     45 C78        -2.4440    4.0060    0.1990 ca        1 XK2     -0.129000
     46 C79        -2.3500    2.6390    0.1530 ca        1 XK2     -0.118000
     47 H21A        2.8220   -0.8480   -0.5850 h1        1 XK2      0.073700
     48 H22A        1.2930   -0.7120   -1.5850 h1        1 XK2      0.073700
     49 H3          2.6510    1.0220    1.2430 h1        1 XK2      0.064700
     50 H4          0.3850    1.8380    2.1030 h1        1 XK2      0.067700
     51 HO4         2.3330    2.4160    3.0780 ho        1 XK2      0.416000
     52 H5          0.7440   -0.4430    4.2010 h1        1 XK2      0.067700
     53 HO5        -0.2420    1.6280    4.7020 ho        1 XK2      0.416000
     54 H6          0.0140   -1.6510    2.3350 h1        1 XK2      0.064700
     55 H71A       -3.1460   -0.0630    2.0230 h1        1 XK2      0.073700
     56 H72        -2.8770    0.0710    0.2210 h1        1 XK2      0.073700
     57 H21         4.3730    0.9080   -0.4970 ha        1 XK2      0.148000
     58 H22         5.1830    3.0810   -1.4210 ha        1 XK2      0.132000
     59 H24         4.7570    5.1430   -2.7070 ha        1 XK2      0.131500
     60 H25         3.1960    6.5700   -4.0360 ha        1 XK2      0.131000
     61 H26         0.8590    5.8340   -4.4360 ha        1 XK2      0.131500
     62 H27         0.0460    3.6580   -3.5110 ha        1 XK2      0.134000
     63 H29         0.4660    1.5990   -2.2180 ha        1 XK2      0.156000
     64 H311        2.0070   -1.7430    2.4840 hc        1 XK2      0.067700
     65 H312        2.9050   -0.4370    3.3660 hc        1 XK2      0.067700
     66 H33         4.9210    0.6370    2.1590 ha        1 XK2      0.136250
     67 H34         7.0580   -0.0130    1.0550 ha        1 XK2      0.132500
     68 H35         7.2640   -2.2360   -0.0620 ha        1 XK2      0.132500
     69 H36         5.3220   -3.8040   -0.0750 ha        1 XK2      0.132500
     70 H37         3.1820   -3.1540    1.0180 ha        1 XK2      0.136250
     71 H611       -2.5220   -2.0270    2.7850 hc        1 XK2      0.067700
     72 H612       -2.3950   -0.6750    3.9960 hc        1 XK2      0.067700
     73 H63        -1.0180   -0.9260    5.9870 ha        1 XK2      0.136250
     74 H64        -0.1010   -2.5370    7.6670 ha        1 XK2      0.132500
     75 H65         0.2090   -4.9370    7.0530 ha        1 XK2      0.132500
     76 H66        -0.4030   -5.7250    4.7650 ha        1 XK2      0.132500
     77 H67        -1.3280   -4.1230    3.0970 ha        1 XK2      0.136250
     78 H71        -2.8160    1.9030    3.4690 ha        1 XK2      0.156000
     79 H73        -3.1910    3.9670    4.7580 ha        1 XK2      0.134000
     80 H74        -3.3740    6.4590    4.8420 ha        1 XK2      0.131500
     81 H75        -3.1270    7.8030    2.7690 ha        1 XK2      0.131000
     82 H76        -2.6920    6.6770    0.5810 ha        1 XK2      0.131500
     83 H78        -2.3270    4.6090   -0.7140 ha        1 XK2      0.132000
     84 H79        -2.1430    2.1120   -0.7940 ha        1 XK2      0.148000
@<TRIPOS>BOND
     1    1    2 2   
     2    1    3 1   
     3    1   11 1   
     4    3    4 1   
     5    3    5 1   
     6    4   13 1   
     7    4   47 1   
     8    4   48 1   
     9    5    6 1   
    10    5   23 1   
    11    5   49 1   
    12    6    7 1   
    13    6    8 1   
    14    6   50 1   
    15    7   51 1   
    16    8    9 1   
    17    8   10 1   
    18    8   52 1   
    19    9   53 1   
    20   10   11 1   
    21   10   30 1   
    22   10   54 1   
    23   11   12 1   
    24   12   37 1   
    25   12   55 1   
    26   12   56 1   
    27   13   14 ar  
    28   13   22 ar  
    29   14   15 ar  
    30   14   57 1   
    31   15   16 ar  
    32   15   58 1   
    33   16   17 ar  
    34   16   21 ar  
    35   17   18 ar  
    36   17   59 1   
    37   18   19 ar  
    38   18   60 1   
    39   19   20 ar  
    40   19   61 1   
    41   20   21 ar  
    42   20   62 1   
    43   21   22 ar  
    44   22   63 1   
    45   23   24 1   
    46   23   64 1   
    47   23   65 1   
    48   24   25 ar  
    49   24   29 ar  
    50   25   26 ar  
    51   25   66 1   
    52   26   27 ar  
    53   26   67 1   
    54   27   28 ar  
    55   27   68 1   
    56   28   29 ar  
    57   28   69 1   
    58   29   70 1   
    59   30   31 1   
    60   30   71 1   
    61   30   72 1   
    62   31   32 ar  
    63   31   36 ar  
    64   32   33 ar  
    65   32   73 1   
    66   33   34 ar  
    67   33   74 1   
    68   34   35 ar  
    69   34   75 1   
    70   35   36 ar  
    71   35   76 1   
    72   36   77 1   
    73   37   38 ar  
    74   37   46 ar  
    75   38   39 ar  
    76   38   78 1   
    77   39   40 ar  
    78   39   44 ar  
    79   40   41 ar  
    80   40   79 1   
    81   41   42 ar  
    82   41   80 1   
    83   42   43 ar  
    84   42   81 1   
    85   43   44 ar  
    86   43   82 1   
    87   44   45 ar  
    88   45   46 ar  
    89   45   83 1   
    90   46   84 1   
@<TRIPOS>SUBSTRUCTURE
     1 XK2         1 TEMP              0 ****  ****    0 ROOT
