@<TRIPOS>MOLECULE
XK2
   84    90     1     0     0
SMALL
bcc


@<TRIPOS>ATOM
      1 C1         -0.2620   -0.0440    0.2930 c         1 XK2      0.804500
      2 O1         -0.7370    0.1710   -0.8520 o         1 XK2     -0.682500
      3 N2          1.1420   -0.1920    0.4420 n         1 XK2     -0.458800
      4 C2          1.9150   -0.2060   -0.7910 c3        1 XK2      0.138800
      5 C3          1.8690    0.2780    1.6100 c3        1 XK2      0.101200
      6 C4          1.0140    1.0650    2.6340 c3        1 XK2      0.106100
      7 O4          1.8680    1.7230    3.5630 oh        1 XK2     -0.606300
      8 C5          0.1100    0.1650    3.4910 c3        1 XK2      0.106100
      9 O5         -0.7820    0.9620    4.2540 oh        1 XK2     -0.606300
     10 C6         -0.7050   -0.8130    2.6090 c3        1 XK2      0.101200
     11 N7         -1.1650   -0.2550    1.3570 n         1 XK2     -0.458800
     12 C7         -2.4670    0.3680    1.2320 c3        1 XK2      0.138800
     13 C20         2.3670    1.1300   -1.3130 ca        1 XK2     -0.126300
     14 C21         3.7030    1.5540   -1.0850 ca        1 XK2     -0.118000
     15 C22         4.1520    2.7480   -1.5900 ca        1 XK2     -0.129000
     16 C23         3.2880    3.5840   -2.3490 ca        1 XK2     -0.031500
     17 C24         3.7270    4.8250   -2.8860 ca        1 XK2     -0.121000
     18 C25         2.8690    5.6100   -3.6170 ca        1 XK2     -0.125000
     19 C26         1.5360    5.1920   -3.8450 ca        1 XK2     -0.133000
     20 C27         1.0860    3.9980   -3.3380 ca        1 XK2     -0.112500
     21 C28         1.9520    3.1650   -2.5770 ca        1 XK2     -0.045500
     22 C29         1.5110    1.9240   -2.0440 ca        1 XK2     -0.091500
     23 C31         2.6480   -0.8370    2.3420 c3        1 XK2     -0.044600
     24 C32         3.9100   -1.2170    1.6520 ca        1 XK2     -0.084300
     25 C33         5.0060   -0.3450    1.6580 ca        1 XK2     -0.128250
     26 C34         6.2020   -0.7120    1.0430 ca        1 XK2     -0.130000
     27 C35         6.3160   -1.9540    0.4190 ca        1 XK2     -0.129000
     28 C36         5.2290   -2.8280    0.4110 ca        1 XK2     -0.130000
     29 C37         4.0310   -2.4630    1.0240 ca        1 XK2     -0.128250
     30 C61        -1.8160   -1.4700    3.4540 c3        1 XK2     -0.044600
     31 C62        -1.2360   -2.4250    4.4390 ca        1 XK2     -0.084300
     32 C63        -0.8880   -1.9890    5.7240 ca        1 XK2     -0.128250
     33 C64        -0.3730   -2.8880    6.6560 ca        1 XK2     -0.130000
     34 C65        -0.2010   -4.2290    6.3120 ca        1 XK2     -0.129000
     35 C66        -0.5430   -4.6680    5.0340 ca        1 XK2     -0.130000
     36 C67        -1.0590   -3.7710    4.1000 ca        1 XK2     -0.128250
     37 C70        -2.5020    1.8690    1.3360 ca        1 XK2     -0.126300
     38 C71        -2.7310    2.4920    2.5420 ca        1 XK2     -0.091500
     39 C72        -2.8370    3.9080    2.6170 ca        1 XK2     -0.045500
     40 C73        -3.0840    4.5720    3.8500 ca        1 XK2     -0.112500
     41 C74        -3.1840    5.9400    3.8970 ca        1 XK2     -0.133000
     42 C75        -3.0420    6.7080    2.7160 ca        1 XK2     -0.125000
     43 C76        -2.8020    6.0930    1.5120 ca        1 XK2     -0.121000
     44 C77        -2.6940    4.6770    1.4340 ca        1 XK2     -0.031500
     45 C78        -2.4420    4.0110    0.2030 ca        1 XK2     -0.129000
     46 C79        -2.3490    2.6430    0.1550 ca        1 XK2     -0.118000
     47 H21A        2.8210   -0.8500   -0.5860 h1        1 XK2      0.073700
     48 H22A        1.2920   -0.7100   -1.5860 h1        1 XK2      0.073700
     49 H3          2.6520    1.0200    1.2430 h1        1 XK2      0.064700
     50 H4          0.3870    1.8380    2.1030 h1        1 XK2      0.067700
     51 HO4         2.3360    2.4140    3.0780 ho        1 XK2      0.416000
     52 H5          0.7430   -0.4440    4.1990 h1        1 XK2      0.067700
     53 HO5        -0.2410    1.6270    4.7010 ho        1 XK2      0.416000
     54 H6          0.0120   -1.6500    2.3320 h1        1 XK2      0.064700
     55 H71A       -3.1470   -0.0610    2.0200 h1        1 XK2      0.073700
     56 H72        -2.8770    0.0750    0.2180 h1        1 XK2      0.073700
     57 H21         4.3750    0.9050   -0.4970 ha        1 XK2      0.148000
     58 H22         5.1880    3.0770   -1.4200 ha        1 XK2      0.132000
     59 H24         4.7650    5.1400   -2.7050 ha        1 XK2      0.131500
     60 H25         3.2060    6.5700   -4.0340 ha        1 XK2      0.131000
     61 H26         0.8690    5.8380   -4.4350 ha        1 XK2      0.131500
     62 H27         0.0520    3.6630   -3.5110 ha        1 XK2      0.134000
     63 H29         0.4690    1.6020   -2.2180 ha        1 XK2      0.156000
     64 H311        2.0040   -1.7440    2.4820 hc        1 XK2      0.067700
     65 H312        2.9040   -0.4400    3.3650 hc        1 XK2      0.067700
     66 H33         4.9230    0.6310    2.1590 ha        1 XK2      0.136250
     67 H34         7.0580   -0.0220    1.0540 ha        1 XK2      0.132500
     68 H35         7.2600   -2.2440   -0.0640 ha        1 XK2      0.132500
     69 H36         5.3160   -3.8090   -0.0780 ha        1 XK2      0.132500
     70 H37         3.1770   -3.1560    1.0150 ha        1 XK2      0.136250
     71 H611       -2.3970   -0.6730    3.9940 hc        1 XK2      0.067700
     72 H612       -2.5240   -2.0250    2.7820 hc        1 XK2      0.067700
     73 H63        -1.0200   -0.9260    5.9850 ha        1 XK2      0.136250
     74 H64        -0.1050   -2.5390    7.6640 ha        1 XK2      0.132500
     75 H65         0.2040   -4.9390    7.0490 ha        1 XK2      0.132500
     76 H66        -0.4080   -5.7250    4.7610 ha        1 XK2      0.132500
     77 H67        -1.3320   -4.1220    3.0930 ha        1 XK2      0.136250
     78 H71        -2.8180    1.9020    3.4700 ha        1 XK2      0.156000
     79 H73        -3.1940    3.9650    4.7610 ha        1 XK2      0.134000
     80 H74        -3.3760    6.4560    4.8490 ha        1 XK2      0.131500
     81 H75        -3.1270    7.8030    2.7790 ha        1 XK2      0.131000
     82 H76        -2.6910    6.6810    0.5890 ha        1 XK2      0.131500
     83 H78        -2.3240    4.6150   -0.7090 ha        1 XK2      0.132000
     84 H79        -2.1410    2.1190   -0.7930 ha        1 XK2      0.148000
@<TRIPOS>BOND
     1    1    2 2   
     2    1    3 1   
     3    1   11 1   
     4    3    4 1   
     5    3    5 1   
     6    4   13 1   
     7    4   47 1   
     8    4   48 1   
     9    5    6 1   
    10    5   23 1   
    11    5   49 1   
    12    6    7 1   
    13    6    8 1   
    14    6   50 1   
    15    7   51 1   
    16    8    9 1   
    17    8   10 1   
    18    8   52 1   
    19    9   53 1   
    20   10   11 1   
    21   10   30 1   
    22   10   54 1   
    23   11   12 1   
    24   12   37 1   
    25   12   55 1   
    26   12   56 1   
    27   13   14 ar  
    28   13   22 ar  
    29   14   15 ar  
    30   14   57 1   
    31   15   16 ar  
    32   15   58 1   
    33   16   17 ar  
    34   16   21 ar  
    35   17   18 ar  
    36   17   59 1   
    37   18   19 ar  
    38   18   60 1   
    39   19   20 ar  
    40   19   61 1   
    41   20   21 ar  
    42   20   62 1   
    43   21   22 ar  
    44   22   63 1   
    45   23   24 1   
    46   23   64 1   
    47   23   65 1   
    48   24   25 ar  
    49   24   29 ar  
    50   25   26 ar  
    51   25   66 1   
    52   26   27 ar  
    53   26   67 1   
    54   27   28 ar  
    55   27   68 1   
    56   28   29 ar  
    57   28   69 1   
    58   29   70 1   
    59   30   31 1   
    60   30   71 1   
    61   30   72 1   
    62   31   32 ar  
    63   31   36 ar  
    64   32   33 ar  
    65   32   73 1   
    66   33   34 ar  
    67   33   74 1   
    68   34   35 ar  
    69   34   75 1   
    70   35   36 ar  
    71   35   76 1   
    72   36   77 1   
    73   37   38 ar  
    74   37   46 ar  
    75   38   39 ar  
    76   38   78 1   
    77   39   40 ar  
    78   39   44 ar  
    79   40   41 ar  
    80   40   79 1   
    81   41   42 ar  
    82   41   80 1   
    83   42   43 ar  
    84   42   81 1   
    85   43   44 ar  
    86   43   82 1   
    87   44   45 ar  
    88   45   46 ar  
    89   45   83 1   
    90   46   84 1   
@<TRIPOS>SUBSTRUCTURE
     1 XK2         1 TEMP              0 ****  ****    0 ROOT
