@<TRIPOS>MOLECULE
XK2
   84    90     1     0     0
SMALL
bcc


@<TRIPOS>ATOM
      1 C1         -0.1450   -1.7110   -0.0770 c         1 XK2      0.804500
      2 O1         -0.3120   -2.5260    0.8660 o         1 XK2     -0.682500
      3 N2         -1.2280   -0.8840   -0.4770 n         1 XK2     -0.458800
      4 C2         -2.5020   -1.1480    0.1740 c3        1 XK2      0.138800
      5 C3         -1.0520    0.4820   -0.9420 c3        1 XK2      0.101200
      6 C4          0.3980    1.0170   -0.8550 c3        1 XK2      0.106100
      7 O4          0.3980    2.4280   -1.0440 oh        1 XK2     -0.606300
      8 C5          1.3160    0.4670   -1.9580 c3        1 XK2      0.106100
      9 O5          2.6600    0.8350   -1.6960 oh        1 XK2     -0.606300
     10 C6          1.2180   -1.0760   -2.0500 c3        1 XK2      0.101200
     11 N7          1.0800   -1.7490   -0.7780 n         1 XK2     -0.458800
     12 C7          2.2300   -2.2310   -0.0420 c3        1 XK2      0.138800
     13 C20        -2.7570   -0.4220    1.4660 ca        1 XK2     -0.126300
     14 C21        -3.5800    0.7350    1.4660 ca        1 XK2     -0.118000
     15 C22        -3.8650    1.3880    2.6400 ca        1 XK2     -0.129000
     16 C23        -3.3390    0.9200    3.8750 ca        1 XK2     -0.031500
     17 C24        -3.6180    1.5750    5.1050 ca        1 XK2     -0.121000
     18 C25        -3.0970    1.0980    6.2820 ca        1 XK2     -0.125000
     19 C26        -2.2740   -0.0540    6.2860 ca        1 XK2     -0.133000
     20 C27        -1.9880   -0.7060    5.1120 ca        1 XK2     -0.112500
     21 C28        -2.5140   -0.2340    3.8780 ca        1 XK2     -0.045500
     22 C29        -2.2350   -0.8930    2.6500 ca        1 XK2     -0.091500
     23 C31        -1.6050    0.7260   -2.3640 c3        1 XK2     -0.044600
     24 C32        -3.0870    0.8540   -2.4000 ca        1 XK2     -0.084300
     25 C33        -3.7090    1.9970   -1.8830 ca        1 XK2     -0.128250
     26 C34        -5.0940    2.1360   -1.9460 ca        1 XK2     -0.130000
     27 C35        -5.8720    1.1370   -2.5310 ca        1 XK2     -0.129000
     28 C36        -5.2590   -0.0030   -3.0510 ca        1 XK2     -0.130000
     29 C37        -3.8740   -0.1450   -2.9860 ca        1 XK2     -0.128250
     30 C61         2.3640   -1.6160   -2.9300 c3        1 XK2     -0.044600
     31 C62         2.1510   -1.2520   -4.3590 ca        1 XK2     -0.084300
     32 C63         2.6800   -0.0610   -4.8700 ca        1 XK2     -0.128250
     33 C64         2.5070    0.2650   -6.2140 ca        1 XK2     -0.130000
     34 C65         1.8020   -0.5940   -7.0570 ca        1 XK2     -0.129000
     35 C66         1.2710   -1.7810   -6.5530 ca        1 XK2     -0.130000
     36 C67         1.4440   -2.1100   -5.2100 ca        1 XK2     -0.128250
     37 C70         2.7440   -1.3370    1.0550 ca        1 XK2     -0.126300
     38 C71         3.7460   -0.4240    0.8160 ca        1 XK2     -0.091500
     39 C72         4.2750    0.3630    1.8740 ca        1 XK2     -0.045500
     40 C73         5.3170    1.3050    1.6530 ca        1 XK2     -0.112500
     41 C74         5.8140    2.0520    2.6920 ca        1 XK2     -0.133000
     42 C75         5.2950    1.8940    3.9990 ca        1 XK2     -0.125000
     43 C76         4.2880    0.9920    4.2410 ca        1 XK2     -0.121000
     44 C77         3.7540    0.2050    3.1840 ca        1 XK2     -0.031500
     45 C78         2.7100   -0.7350    3.4020 ca        1 XK2     -0.129000
     46 C79         2.2170   -1.4860    2.3650 ca        1 XK2     -0.118000
     47 H21A       -3.3010   -0.8640   -0.5740 h1        1 XK2      0.073700
     48 H22A       -2.5720   -2.2580    0.3650 h1        1 XK2      0.073700
     49 H3         -1.6600    1.1530   -0.2490 h1        1 XK2      0.064700
     50 H4          0.8380    0.7830    0.1570 h1        1 XK2      0.067700
     51 HO4        -0.0340    2.8170   -0.2740 ho        1 XK2      0.416000
     52 H5          1.0120    0.8990   -2.9550 h1        1 XK2      0.067700
     53 HO5         2.6580    1.7890   -1.5360 ho        1 XK2      0.416000
     54 H6          0.2590   -1.2910   -2.6220 h1        1 XK2      0.064700
     55 H71A        1.9360   -3.2220    0.4200 h1        1 XK2      0.073700
     56 H72         3.0690   -2.4210   -0.7690 h1        1 XK2      0.073700
     57 H21        -3.9900    1.0980    0.5090 ha        1 XK2      0.148000
     58 H22        -4.5060    2.2820    2.6450 ha        1 XK2      0.132000
     59 H24        -4.2600    2.4690    5.0920 ha        1 XK2      0.131500
     60 H25        -3.3120    1.6030    7.2360 ha        1 XK2      0.131000
     61 H26        -1.8700   -0.4170    7.2420 ha        1 XK2      0.131500
     62 H27        -1.3520   -1.6040    5.1030 ha        1 XK2      0.134000
     63 H29        -1.5890   -1.7890    2.6540 ha        1 XK2      0.156000
     64 H311       -1.1530    1.6900   -2.7290 hc        1 XK2      0.067700
     65 H312       -1.2770   -0.0880   -3.0620 hc        1 XK2      0.067700
     66 H33        -3.0960    2.7920   -1.4310 ha        1 XK2      0.136250
     67 H34        -5.5730    3.0390   -1.5390 ha        1 XK2      0.132500
     68 H35        -6.9640    1.2490   -2.5840 ha        1 XK2      0.132500
     69 H36        -5.8690   -0.7920   -3.5140 ha        1 XK2      0.132500
     70 H37        -3.3950   -1.0470   -3.3970 ha        1 XK2      0.136250
     71 H611        3.3420   -1.1940   -2.5720 hc        1 XK2      0.067700
     72 H612        2.4130   -2.7350   -2.8420 hc        1 XK2      0.067700
     73 H63         3.2290    0.6160   -4.1960 ha        1 XK2      0.136250
     74 H64         2.9270    1.2010   -6.6090 ha        1 XK2      0.132500
     75 H65         1.6670   -0.3370   -8.1180 ha        1 XK2      0.132500
     76 H66         0.7150   -2.4600   -7.2160 ha        1 XK2      0.132500
     77 H67         1.0260   -3.0490   -4.8160 ha        1 XK2      0.136250
     78 H71         4.1380   -0.2770   -0.2040 ha        1 XK2      0.156000
     79 H73         5.7150    1.4200    0.6330 ha        1 XK2      0.134000
     80 H74         6.6210    2.7810    2.5230 ha        1 XK2      0.131500
     81 H75         5.7100    2.5030    4.8160 ha        1 XK2      0.131000
     82 H76         3.8780    0.8610    5.2540 ha        1 XK2      0.131500
     83 H78         2.3050   -0.8460    4.4200 ha        1 XK2      0.132000
     84 H79         1.3980   -2.2080    2.5230 ha        1 XK2      0.148000
@<TRIPOS>BOND
     1    1    2 2   
     2    1    3 1   
     3    1   11 1   
     4    3    4 1   
     5    3    5 1   
     6    4   13 1   
     7    4   47 1   
     8    4   48 1   
     9    5    6 1   
    10    5   23 1   
    11    5   49 1   
    12    6    7 1   
    13    6    8 1   
    14    6   50 1   
    15    7   51 1   
    16    8    9 1   
    17    8   10 1   
    18    8   52 1   
    19    9   53 1   
    20   10   11 1   
    21   10   30 1   
    22   10   54 1   
    23   11   12 1   
    24   12   37 1   
    25   12   55 1   
    26   12   56 1   
    27   13   14 ar  
    28   13   22 ar  
    29   14   15 ar  
    30   14   57 1   
    31   15   16 ar  
    32   15   58 1   
    33   16   17 ar  
    34   16   21 ar  
    35   17   18 ar  
    36   17   59 1   
    37   18   19 ar  
    38   18   60 1   
    39   19   20 ar  
    40   19   61 1   
    41   20   21 ar  
    42   20   62 1   
    43   21   22 ar  
    44   22   63 1   
    45   23   24 1   
    46   23   64 1   
    47   23   65 1   
    48   24   25 ar  
    49   24   29 ar  
    50   25   26 ar  
    51   25   66 1   
    52   26   27 ar  
    53   26   67 1   
    54   27   28 ar  
    55   27   68 1   
    56   28   29 ar  
    57   28   69 1   
    58   29   70 1   
    59   30   31 1   
    60   30   71 1   
    61   30   72 1   
    62   31   32 ar  
    63   31   36 ar  
    64   32   33 ar  
    65   32   73 1   
    66   33   34 ar  
    67   33   74 1   
    68   34   35 ar  
    69   34   75 1   
    70   35   36 ar  
    71   35   76 1   
    72   36   77 1   
    73   37   38 ar  
    74   37   46 ar  
    75   38   39 ar  
    76   38   78 1   
    77   39   40 ar  
    78   39   44 ar  
    79   40   41 ar  
    80   40   79 1   
    81   41   42 ar  
    82   41   80 1   
    83   42   43 ar  
    84   42   81 1   
    85   43   44 ar  
    86   43   82 1   
    87   44   45 ar  
    88   45   46 ar  
    89   45   83 1   
    90   46   84 1   
@<TRIPOS>SUBSTRUCTURE
     1 XK2         1 TEMP              0 ****  ****    0 ROOT
