@<TRIPOS>MOLECULE
XK3
   44    46     1     0     0
SMALL
bcc


@<TRIPOS>ATOM
      1 C01        -0.8150    0.7400    2.6760 c3        1 XK3     -0.089100
      2 C02         0.0470    0.6610    1.4370 c3        1 XK3     -0.024100
      3 C03         1.4610    0.3700    1.7530 cc        1 XK3     -0.089300
      4 C04         2.3100    1.3420    2.3770 cc        1 XK3     -0.156000
      5 C05         3.5970    0.8750    2.5320 cd        1 XK3     -0.181100
      6 S06         3.7720   -0.6680    1.9430 ss        1 XK3      0.077200
      7 C07         2.1610   -0.7980    1.4740 cd        1 XK3     -0.171600
      8 C08         1.6500   -2.0090    0.8640 ca        1 XK3      0.332500
      9 C09         0.3760   -2.5230    1.2420 ca        1 XK3      0.341900
     10 N10        -0.1480   -3.6310    0.7080 nb        1 XK3     -0.696000
     11 C11         0.5920   -4.2800   -0.2520 ca        1 XK3      0.522900
     12 N12         0.0120   -5.3540   -0.9300 nh        1 XK3     -0.919500
     13 C13         1.9130   -3.7860   -0.6070 ca        1 XK3      0.260300
     14 C14         2.7430   -4.5270   -1.6230 c3        1 XK3     -0.100000
     15 C15         2.3120   -4.1300   -3.0320 c3        1 XK3     -0.078400
     16 C16         3.2690   -4.6620   -4.0850 c3        1 XK3     -0.081900
     17 C17         4.2120   -5.7410   -3.5840 c3        1 XK3     -0.148700
     18 C18         3.5640   -7.0650   -3.2590 c         1 XK3      0.623100
     19 O19         4.1620   -8.0710   -2.8710 o         1 XK3     -0.496000
     20 O20         2.2170   -7.2740   -3.3740 oh        1 XK3     -0.592100
     21 C21         5.0170   -5.2500   -2.3810 c3        1 XK3     -0.081900
     22 C22         4.2430   -4.3060   -1.4780 c3        1 XK3     -0.078400
     23 N23         2.4090   -2.6640   -0.0540 nb        1 XK3     -0.610000
     24 H011       -0.8250   -0.2360    3.2180 hc        1 XK3      0.035700
     25 H012       -0.4270    1.5220    3.3720 hc        1 XK3      0.035700
     26 H013       -1.8640    1.0000    2.3950 hc        1 XK3      0.035700
     27 H021       -0.0020    1.6430    0.8900 hc        1 XK3      0.051700
     28 H022       -0.3610   -0.1230    0.7430 hc        1 XK3      0.051700
     29 H04         1.9520    2.3280    2.6790 ha        1 XK3      0.154000
     30 H05         4.4170    1.4350    2.9800 h4        1 XK3      0.172000
     31 H09        -0.2310   -2.0170    2.0150 h4        1 XK3      0.041100
     32 H121        1.7740   -6.4840   -3.7120 ho        1 XK3      0.431000
     33 H122        0.6530   -6.0520   -1.2380 hn        1 XK3      0.412800
     34 H14         2.5710   -5.6340   -1.4780 hc        1 XK3      0.048700
     35 H151        2.2740   -3.0110   -3.1030 hc        1 XK3      0.059450
     36 H152        1.2720   -4.5010   -3.2250 hc        1 XK3      0.059450
     37 H221        4.5510   -4.4710   -0.4140 hc        1 XK3      0.059450
     38 H222        4.4910   -3.2440   -1.7380 hc        1 XK3      0.059450
     39 H161        2.6930   -5.0400   -4.9700 hc        1 XK3      0.057200
     40 H162        3.9070   -3.8130   -4.4550 hc        1 XK3      0.057200
     41 H17         4.9410   -5.9770   -4.4160 hc        1 XK3      0.086700
     42 H211        5.9300   -4.7190   -2.7610 hc        1 XK3      0.057200
     43 H212        5.3730   -6.1390   -1.7950 hc        1 XK3      0.057200
     44 H123       -0.8230   -5.7230   -0.5260 hn        1 XK3      0.412800
@<TRIPOS>BOND
     1    1    2 1   
     2    1   24 1   
     3    1   25 1   
     4    1   26 1   
     5    2    3 1   
     6    2   27 1   
     7    2   28 1   
     8    3    4 1   
     9    3    7 2   
    10    4    5 2   
    11    4   29 1   
    12    5    6 1   
    13    5   30 1   
    14    6    7 1   
    15    7    8 1   
    16    8    9 ar  
    17    8   23 ar  
    18    9   10 ar  
    19    9   31 1   
    20   10   11 ar  
    21   11   12 1   
    22   11   13 ar  
    23   12   33 1   
    24   12   44 1   
    25   13   14 1   
    26   13   23 ar  
    27   14   15 1   
    28   14   22 1   
    29   14   34 1   
    30   15   16 1   
    31   15   35 1   
    32   15   36 1   
    33   16   17 1   
    34   16   39 1   
    35   16   40 1   
    36   17   18 1   
    37   17   21 1   
    38   17   41 1   
    39   18   19 2   
    40   18   20 1   
    41   20   32 1   
    42   21   22 1   
    43   21   42 1   
    44   21   43 1   
    45   22   37 1   
    46   22   38 1   
@<TRIPOS>SUBSTRUCTURE
     1 XK3         1 TEMP              0 ****  ****    0 ROOT
