@<TRIPOS>MOLECULE
XK3
   43    45     1     0     0
SMALL
bcc


@<TRIPOS>ATOM
      1 C01        -0.3050    0.0390    0.0070 c3        1 XK3     -0.084100
      2 C02         1.1640    0.3820    0.0880 c3        1 XK3     -0.022100
      3 C03         1.7020    0.2240    1.4560 cc        1 XK3     -0.068300
      4 C04         2.0340    1.3630    2.2690 cc        1 XK3     -0.156000
      5 C05         2.5190    0.9990    3.5020 cd        1 XK3     -0.172100
      6 S06         2.5810   -0.6590    3.6760 ss        1 XK3     -0.020800
      7 C07         1.9560   -0.9590    2.1300 cd        1 XK3     -0.129600
      8 C08         1.7620   -2.3240    1.6800 ca        1 XK3      0.312500
      9 C09         1.2550   -3.2880    2.5890 ca        1 XK3      0.313900
     10 N10         1.0560   -4.5730    2.2570 nb        1 XK3     -0.717000
     11 C11         1.3460   -4.9350    0.9660 ca        1 XK3      0.527900
     12 N12         1.0460   -6.2290    0.5520 nv        1 XK3     -0.929500
     13 C13         1.8850   -3.9500    0.0260 ca        1 XK3      0.289300
     14 C14         2.2450   -4.3830   -1.3740 c3        1 XK3     -0.114000
     15 C15         2.3030   -3.2410   -2.3830 c3        1 XK3     -0.067400
     16 C16         2.5740   -3.7940   -3.7690 c3        1 XK3     -0.064900
     17 C17         3.8530   -4.6070   -3.8260 c3        1 XK3     -0.187700
     18 C18         3.9670   -5.2870   -5.2180 c         1 XK3      0.913600
     19 O19         3.1120   -6.1660   -5.5230 o         1 XK3     -0.843800
     20 O20         4.9150   -4.9240   -5.9680 o         1 XK3     -0.843800
     21 C21         3.8800   -5.6740   -2.7480 c3        1 XK3     -0.064900
     22 C22         3.5890   -5.1070   -1.3730 c3        1 XK3     -0.067400
     23 N23         2.0810   -2.6790    0.4020 nb        1 XK3     -0.594000
     24 H011       -0.9070    0.7080    0.6680 hc        1 XK3      0.033367
     25 H012       -0.4780   -1.0180    0.3220 hc        1 XK3      0.033367
     26 H013       -0.6650    0.1600   -1.0440 hc        1 XK3      0.033367
     27 H021        1.3140    1.4440   -0.2460 hc        1 XK3      0.059200
     28 H022        1.7410   -0.2710   -0.6230 hc        1 XK3      0.059200
     29 H04         1.9060    2.3900    1.9190 ha        1 XK3      0.148000
     30 H05         2.8360    1.6840    4.2860 h4        1 XK3      0.162000
     31 H09         1.0040   -3.0150    3.6280 h4        1 XK3      0.022100
     32 H121        0.8750   -6.9010    1.2640 hn        1 XK3      0.419300
     33 H122        1.5670   -6.5590   -0.2290 hn        1 XK3      0.419300
     34 H14         1.4430   -5.0880   -1.7410 hc        1 XK3      0.063700
     35 H151        1.3310   -2.6840   -2.3740 hc        1 XK3      0.028700
     36 H152        3.1130   -2.5200   -2.1010 hc        1 XK3      0.028700
     37 H221        3.5910   -5.9300   -0.6130 hc        1 XK3      0.028700
     38 H222        4.3940   -4.3830   -1.0820 hc        1 XK3      0.028700
     39 H161        2.6470   -2.9440   -4.4960 hc        1 XK3      0.045950
     40 H162        1.7200   -4.4450   -4.0980 hc        1 XK3      0.045950
     41 H17         4.7320   -3.9220   -3.6920 hc        1 XK3      0.037700
     42 H211        4.8880   -6.1630   -2.7390 hc        1 XK3      0.045950
     43 H212        3.1230   -6.4610   -3.0080 hc        1 XK3      0.045950
@<TRIPOS>BOND
     1    1    2 1   
     2    1   24 1   
     3    1   25 1   
     4    1   26 1   
     5    2    3 1   
     6    2   27 1   
     7    2   28 1   
     8    3    4 1   
     9    3    7 2   
    10    4    5 2   
    11    4   29 1   
    12    5    6 1   
    13    5   30 1   
    14    6    7 1   
    15    7    8 1   
    16    8    9 ar  
    17    8   23 ar  
    18    9   10 ar  
    19    9   31 1   
    20   10   11 ar  
    21   11   12 1   
    22   11   13 ar  
    23   12   32 1   
    24   12   33 1   
    25   13   14 1   
    26   13   23 ar  
    27   14   15 1   
    28   14   22 1   
    29   14   34 1   
    30   15   16 1   
    31   15   35 1   
    32   15   36 1   
    33   16   17 1   
    34   16   39 1   
    35   16   40 1   
    36   17   18 1   
    37   17   21 1   
    38   17   41 1   
    39   18   19 1   
    40   18   20 1   
    41   21   22 1   
    42   21   42 1   
    43   21   43 1   
    44   22   37 1   
    45   22   38 1   
@<TRIPOS>SUBSTRUCTURE
     1 XK3         1 TEMP              0 ****  ****    0 ROOT
