@<TRIPOS>MOLECULE
XK3
   43    40     1     0     0
SMALL
bcc


@<TRIPOS>ATOM
      1 C01        -0.5070   -4.9190   -2.8220 c3        1 XK3     -0.205000
      2 C02         0.2710   -3.6400   -2.6100 c3        1 XK3     -0.102000
      3 C03         0.8510   -3.6280   -1.2140 c2        1 XK3     -0.101000
      4 C04         1.0770   -4.9040   -0.2880 c1        1 XK3     -0.158000
      5 C05         1.6510   -4.4590    0.9680 c1        1 XK3     -0.477000
      6 S06         1.8130   -2.9170    0.8990 ss        1 XK3      0.647000
      7 C07         1.2960   -2.4540   -0.4890 c2        1 XK3     -0.316000
      8 C08         1.2210   -1.1420   -0.9340 c1        1 XK3     -0.061000
      9 C09         1.9200   -0.7550   -2.0680 c1        1 XK3     -0.073000
     10 N10         1.9100    0.5290   -2.4560 n1        1 XK3     -0.195000
     11 C11         1.2250    1.4380   -1.7490 c1        1 XK3      0.072000
     12 N12         1.2120    2.7970   -2.1620 n3        1 XK3     -0.326000
     13 C13         0.5260    1.0520   -0.6150 c1        1 XK3     -0.063000
     14 C14        -0.2040    2.1230    0.2540 c2        1 XK3     -0.059000
     15 C15        -1.5950    1.6440    0.5370 c3        1 XK3     -0.146000
     16 C16        -2.3320    2.5230    1.5210 c3        1 XK3     -0.143000
     17 C17        -1.5420    2.7590    2.8360 c3        1 XK3     -0.177000
     18 C18        -2.2830    3.7150    3.7640 c2        1 XK3      0.334000
     19 O19        -2.5980    4.8650    3.3610 o         1 XK3     -0.578000
     20 O20        -2.5640    3.3610    4.9390 o         1 XK3     -0.578000
     21 C21        -0.1090    3.2530    2.4870 c3        1 XK3     -0.143000
     22 C22         0.5980    2.3620    1.4880 c3        1 XK3     -0.146000
     23 N23         0.5360   -0.2320   -0.2260 n2        1 XK3     -0.084000
     24 H011        0.0900   -5.6100   -3.1790 hc        1 XK3      0.071333
     25 H012       -0.8810   -5.2200   -1.9680 hc        1 XK3      0.071333
     26 H013       -1.2350   -4.7570   -3.4580 hc        1 XK3      0.071333
     27 H021        0.9960   -3.5870   -3.2650 hc        1 XK3      0.088000
     28 H022       -0.3250   -2.8730   -2.7220 hc        1 XK3      0.088000
     29 H04         0.8650   -5.8270   -0.5250 DU        1 XK3      0.154000
     30 H05         1.8930   -5.0290    1.7220 DU        1 XK3      0.154000
     31 H09         2.4190   -1.4170   -2.5830 ha        1 XK3      0.161000
     32 H121        1.6180    3.0410   -2.9440 hn        1 XK3      0.214500
     33 H122        0.8060    3.4290   -1.6420 hn        1 XK3      0.214500
     34 H14        -0.2560    2.9550   -0.2520 ha        1 XK3      0.104000
     35 H151       -1.5470    0.7370    0.9010 hc        1 XK3      0.068000
     36 H152       -2.0970    1.6210   -0.3020 hc        1 XK3      0.068000
     37 H221        0.7860    1.5020    1.9130 hc        1 XK3      0.068000
     38 H222        1.4450    2.7820    1.2370 hc        1 XK3      0.068000
     39 H161       -2.5050    3.3890    1.1000 hc        1 XK3      0.085500
     40 H162       -3.1870    2.1020    1.7390 hc        1 XK3      0.085500
     41 H17        -1.5080    1.9510    3.3850 hc        1 XK3      0.076000
     42 H211        0.4210    3.2860    3.3080 hc        1 XK3      0.085500
     43 H212       -0.1700    4.1550    2.1150 hc        1 XK3      0.085500
@<TRIPOS>BOND
     1    1    2 1   
     2    1   24 1   
     3    1   25 1   
     4    1   26 1   
     5    2    3 1   
     6    2   27 1   
     7    2   28 1   
     8    3    4 1   
     9    3    7 1   
    10    4    5 1   
    11    5    6 1   
    12    6    7 1   
    13    7    8 1   
    14    8   23 1   
    15    9   10 1   
    16    9   31 1   
    17   11   12 1   
    18   11   13 1   
    19   12   32 1   
    20   12   33 1   
    21   13   23 1   
    22   14   15 1   
    23   14   22 1   
    24   14   34 1   
    25   15   16 1   
    26   15   35 1   
    27   15   36 1   
    28   16   17 1   
    29   16   39 1   
    30   16   40 1   
    31   17   18 1   
    32   17   21 1   
    33   17   41 1   
    34   18   19 1   
    35   18   20 1   
    36   21   22 1   
    37   21   42 1   
    38   21   43 1   
    39   22   37 1   
    40   22   38 1   
@<TRIPOS>SUBSTRUCTURE
     1 XK3         1 TEMP              0 ****  ****    0 ROOT
