@<TRIPOS>MOLECULE
XK3
   43    45     1     0     0
SMALL
bcc


@<TRIPOS>ATOM
      1 C01         2.3490   -1.1440   -3.0430 c3        1 XK3     -0.084100
      2 C02         2.2890   -2.0270   -1.8180 c3        1 XK3     -0.022100
      3 C03         3.2400   -1.5990   -0.7700 cc        1 XK3     -0.068300
      4 C04         4.4310   -2.3530   -0.4840 cc        1 XK3     -0.156000
      5 C05         5.1750   -1.7860    0.5230 cd        1 XK3     -0.172100
      6 S06         4.4620   -0.3980    1.1110 ss        1 XK3     -0.020800
      7 C07         3.1470   -0.4850    0.0470 cd        1 XK3     -0.129600
      8 C08         2.1150    0.5330    0.0850 ca        1 XK3      0.312500
      9 C09         2.4870    1.8910    0.2600 ca        1 XK3      0.313900
     10 N10         1.5960    2.8930    0.3170 nb        1 XK3     -0.717000
     11 C11         0.2740    2.5580    0.1750 ca        1 XK3      0.527900
     12 N12        -0.6700    3.5790    0.1140 nh        1 XK3     -0.929500
     13 C13        -0.1210    1.1580    0.0110 ca        1 XK3      0.289300
     14 C14        -1.5850    0.8090   -0.0910 c3        1 XK3     -0.114000
     15 C15        -1.8590   -0.5390   -0.7490 c3        1 XK3     -0.067400
     16 C16        -3.3550   -0.7480   -0.8910 c3        1 XK3     -0.064900
     17 C17        -4.0780   -0.6590    0.4400 c3        1 XK3     -0.187700
     18 C18        -5.6110   -0.6980    0.1940 c         1 XK3      0.913600
     19 O19        -6.1380    0.2660   -0.4310 o         1 XK3     -0.843800
     20 O20        -6.2470   -1.6940    0.6360 o         1 XK3     -0.843800
     21 C21        -3.7250    0.6190    1.1770 c3        1 XK3     -0.064900
     22 C22        -2.2270    0.8200    1.2930 c3        1 XK3     -0.067400
     23 N23         0.8010    0.1870   -0.0290 nb        1 XK3     -0.594000
     24 H011        1.6070   -1.4960   -3.8000 hc        1 XK3      0.033367
     25 H012        2.1090   -0.0870   -2.7750 hc        1 XK3      0.033367
     26 H013        3.3660   -1.1700   -3.5030 hc        1 XK3      0.033367
     27 H021        1.2430   -2.0220   -1.4050 hc        1 XK3      0.059200
     28 H022        2.5200   -3.0860   -2.1150 hc        1 XK3      0.059200
     29 H04         4.6880   -3.2680   -1.0210 ha        1 XK3      0.148000
     30 H05         6.1130   -2.1750    0.9130 h4        1 XK3      0.162000
     31 H09         3.5470    2.1840    0.3640 h4        1 XK3      0.022100
     32 H121       -0.3820    4.4780    0.4260 hn        1 XK3      0.419300
     33 H122       -1.5980    3.3180    0.3630 hn        1 XK3      0.419300
     34 H14        -2.0870    1.5840   -0.7410 hc        1 XK3      0.063700
     35 H151       -1.3690   -0.5720   -1.7560 hc        1 XK3      0.028700
     36 H152       -1.4210   -1.3650   -0.1300 hc        1 XK3      0.028700
     37 H221       -1.7810   -0.0020    1.9110 hc        1 XK3      0.028700
     38 H222       -2.0120    1.7860    1.8190 hc        1 XK3      0.028700
     39 H161       -3.7860    0.0210   -1.5860 hc        1 XK3      0.045950
     40 H162       -3.5440   -1.7560   -1.3440 hc        1 XK3      0.045950
     41 H17        -3.7970   -1.5420    1.0730 hc        1 XK3      0.037700
     42 H211       -4.1890    1.4840    0.6320 hc        1 XK3      0.045950
     43 H212       -4.1730    0.5870    2.2040 hc        1 XK3      0.045950
@<TRIPOS>BOND
     1    1    2 1   
     2    1   24 1   
     3    1   25 1   
     4    1   26 1   
     5    2    3 1   
     6    2   27 1   
     7    2   28 1   
     8    3    4 1   
     9    3    7 2   
    10    4    5 2   
    11    4   29 1   
    12    5    6 1   
    13    5   30 1   
    14    6    7 1   
    15    7    8 1   
    16    8    9 ar  
    17    8   23 ar  
    18    9   10 ar  
    19    9   31 1   
    20   10   11 ar  
    21   11   12 1   
    22   11   13 ar  
    23   12   32 1   
    24   12   33 1   
    25   13   14 1   
    26   13   23 ar  
    27   14   15 1   
    28   14   22 1   
    29   14   34 1   
    30   15   16 1   
    31   15   35 1   
    32   15   36 1   
    33   16   17 1   
    34   16   39 1   
    35   16   40 1   
    36   17   18 1   
    37   17   21 1   
    38   17   41 1   
    39   18   19 1   
    40   18   20 1   
    41   21   22 1   
    42   21   42 1   
    43   21   43 1   
    44   22   37 1   
    45   22   38 1   
@<TRIPOS>SUBSTRUCTURE
     1 XK3         1 TEMP              0 ****  ****    0 ROOT
