@<TRIPOS>MOLECULE
XK3
   43    45     1     0     0
SMALL
bcc


@<TRIPOS>ATOM
      1 C01        -0.3240    0.0300    0.0190 c3        1 XK3     -0.084100
      2 C02         1.1440    0.3800    0.0880 c3        1 XK3     -0.022100
      3 C03         1.6950    0.2270    1.4520 cc        1 XK3     -0.068300
      4 C04         2.0280    1.3690    2.2600 cc        1 XK3     -0.156000
      5 C05         2.5250    1.0080    3.4900 cd        1 XK3     -0.172100
      6 S06         2.5960   -0.6490    3.6650 ss        1 XK3     -0.020800
      7 C07         1.9600   -0.9540    2.1250 cd        1 XK3     -0.129600
      8 C08         1.7680   -2.3200    1.6770 ca        1 XK3      0.312500
      9 C09         1.2630   -3.2840    2.5880 ca        1 XK3      0.313900
     10 N10         1.0660   -4.5690    2.2580 nb        1 XK3     -0.717000
     11 C11         1.3550   -4.9330    0.9680 ca        1 XK3      0.527900
     12 N12         1.0550   -6.2270    0.5560 nh        1 XK3     -0.929500
     13 C13         1.8910   -3.9490    0.0260 ca        1 XK3      0.288300
     14 C14         2.2500   -4.3830   -1.3740 c3        1 XK3     -0.114000
     15 C15         2.3060   -3.2430   -2.3840 c3        1 XK3     -0.067400
     16 C16         2.5760   -3.7970   -3.7710 c3        1 XK3     -0.064900
     17 C17         3.8560   -4.6090   -3.8270 c3        1 XK3     -0.187700
     18 C18         3.9700   -5.2900   -5.2180 c         1 XK3      0.913600
     19 O19         3.1150   -6.1710   -5.5210 o         1 XK3     -0.843800
     20 O20         4.9170   -4.9270   -5.9700 o         1 XK3     -0.843800
     21 C21         3.8840   -5.6740   -2.7480 c3        1 XK3     -0.064900
     22 C22         3.5950   -5.1060   -1.3730 c3        1 XK3     -0.067400
     23 N23         2.0850   -2.6770    0.4000 nb        1 XK3     -0.594000
     24 H011       -0.9240    0.6960    0.6830 hc        1 XK3      0.033367
     25 H012       -0.6920    0.1460   -1.0290 hc        1 XK3      0.033367
     26 H013       -0.4880   -1.0280    0.3370 hc        1 XK3      0.033367
     27 H021        1.7190   -0.2710   -0.6270 hc        1 XK3      0.059200
     28 H022        1.2860    1.4430   -0.2490 hc        1 XK3      0.059200
     29 H04         1.8920    2.3940    1.9100 ha        1 XK3      0.148000
     30 H05         2.8450    1.6950    4.2700 h4        1 XK3      0.162000
     31 H09         1.0130   -3.0100    3.6280 h4        1 XK3      0.022100
     32 H121        0.8850   -6.8990    1.2690 hn        1 XK3      0.419300
     33 H122        1.5750   -6.5580   -0.2260 hn        1 XK3      0.419300
     34 H14         1.4480   -5.0890   -1.7390 hc        1 XK3      0.063700
     35 H151        3.1150   -2.5200   -2.1040 hc        1 XK3      0.028950
     36 H152        1.3340   -2.6860   -2.3760 hc        1 XK3      0.028950
     37 H221        4.4000   -4.3810   -1.0840 hc        1 XK3      0.028950
     38 H222        3.5990   -5.9280   -0.6120 hc        1 XK3      0.028950
     39 H161        2.6490   -2.9470   -4.4980 hc        1 XK3      0.045950
     40 H162        1.7230   -4.4490   -4.0970 hc        1 XK3      0.045950
     41 H17         4.7350   -3.9230   -3.6950 hc        1 XK3      0.037700
     42 H211        3.1280   -6.4630   -3.0060 hc        1 XK3      0.045950
     43 H212        4.8930   -6.1630   -2.7390 hc        1 XK3      0.045950
@<TRIPOS>BOND
     1    1    2 1   
     2    1   24 1   
     3    1   25 1   
     4    1   26 1   
     5    2    3 1   
     6    2   27 1   
     7    2   28 1   
     8    3    4 1   
     9    3    7 2   
    10    4    5 2   
    11    4   29 1   
    12    5    6 1   
    13    5   30 1   
    14    6    7 1   
    15    7    8 1   
    16    8    9 ar  
    17    8   23 ar  
    18    9   10 ar  
    19    9   31 1   
    20   10   11 ar  
    21   11   12 1   
    22   11   13 ar  
    23   12   32 1   
    24   12   33 1   
    25   13   14 1   
    26   13   23 ar  
    27   14   15 1   
    28   14   22 1   
    29   14   34 1   
    30   15   16 1   
    31   15   35 1   
    32   15   36 1   
    33   16   17 1   
    34   16   39 1   
    35   16   40 1   
    36   17   18 1   
    37   17   21 1   
    38   17   41 1   
    39   18   19 1   
    40   18   20 1   
    41   21   22 1   
    42   21   42 1   
    43   21   43 1   
    44   22   37 1   
    45   22   38 1   
@<TRIPOS>SUBSTRUCTURE
     1 XK3         1 TEMP              0 ****  ****    0 ROOT
