@<TRIPOS>MOLECULE
XK9
   46    38     1     0     0
SMALL
bcc


@<TRIPOS>ATOM
      1 O3          4.6430    2.0210    4.6410 o         1 XK9     -0.502700
      2 N7          4.4030    2.0550    3.3000 no        1 XK9      0.843400
      3 O2          4.8730    1.1920    2.5730 o         1 XK9     -0.502700
      4 C3          3.5630    3.0580    2.7560 c2        1 XK9     -0.163000
      5 C2          3.7000    4.2700    3.4200 c1        1 XK9     -0.024000
      6 C4          2.4720    2.2180    3.0420 c1        1 XK9      0.066000
      7 N1          2.0820    0.9930    2.5200 n1        1 XK9     -0.183000
      8 C8          0.9200    0.6230    3.1330 c1        1 XK9     -0.094000
      9 C7          0.5800    1.6130    4.0390 c1        1 XK9     -0.100000
     10 C5          1.5440    2.5950    3.9780 c1        1 XK9     -0.117000
     11 C6          1.6830    3.8250    4.6520 c1        1 XK9     -0.099000
     12 C1          2.7600    4.6530    4.3680 c1        1 XK9     -0.099000
     13 C9          0.4570   -0.0550    1.8350 c1        1 XK9      0.374000
     14 O1         -0.6240   -0.6110    1.7940 o         1 XK9     -0.322000
     15 N2          1.2360    0.0860    0.6370 n3        1 XK9     -0.321000
     16 C10         0.7440   -0.4240   -0.5920 c2        1 XK9      0.080000
     17 C15        -0.0210    0.3850   -1.4210 c2        1 XK9     -0.181000
     18 C14        -0.5790   -0.1390   -2.5830 c1        1 XK9     -0.078000
     19 C13        -0.3710   -1.4730   -2.9150 c1        1 XK9     -0.116000
     20 C12         0.3960   -2.2830   -2.0850 c1        1 XK9     -0.096000
     21 C11         0.9540   -1.7580   -0.9230 c1        1 XK9     -0.148000
     22 C16        -1.1150   -2.0860   -4.1020 c2        1 XK9     -0.050000
     23 C17        -0.3560   -2.4470   -5.3770 c3        1 XK9     -0.164000
     24 N3         -2.4230   -2.3040   -4.0250 n1        1 XK9     -0.068000
     25 N4         -3.1190   -1.9730   -2.8590 n2        1 XK9     -0.208000
     26 C18        -4.3450   -2.6540   -2.5360 c2        1 XK9      0.129000
     27 N6         -4.4270   -3.9540   -2.6690 n1        1 XK9     -0.300000
     28 N5         -5.4520   -1.9180   -1.9940 n3        1 XK9     -0.141000
     29 OBC        -6.4300   -2.5740   -1.2780 oh        1 XK9     -0.268000
     30 H2          4.4570    4.8520    3.2200 ha        1 XK9      0.171000
     31 H1          2.8570    5.5070    4.8360 ha        1 XK9      0.151000
     32 HA          2.5210    0.5220    1.8840 DU        1 XK9      0.210000
     33 H7         -0.2040    1.6140    4.6190 DU        1 XK9      0.210000
     34 H6          1.0220    4.0940    5.3180 ha        1 XK9      0.151000
     35 HB          2.0060    0.5230    0.6600 hn        1 XK9      0.235000
     36 H15        -0.1680    1.3250   -1.1880 ha        1 XK9      0.135000
     37 H11         1.4900   -2.3250   -0.3430 ha        1 XK9      0.176000
     38 H14        -1.1180    0.4300   -3.1660 ha        1 XK9      0.141000
     39 H12         0.5430   -3.2230   -2.3190 ha        1 XK9      0.145000
     40 H171       -0.3800   -3.4200   -5.5080 hc        1 XK9      0.094667
     41 H172        0.5740   -2.1520   -5.2970 hc        1 XK9      0.094667
     42 H173       -0.7750   -2.0030   -6.1440 hc        1 XK9      0.094667
     43 H4         -2.8220   -1.2930   -2.3290 hn        1 XK9      0.206000
     44 H5         -5.4870   -1.0080   -2.0900 hn        1 XK9      0.205000
     45 HBC        -7.0540   -1.9870   -1.0190 ho        1 XK9      0.226000
     46 H6A        -5.2090   -4.3890   -2.4630 DU        1 XK9      0.210000
@<TRIPOS>BOND
     1    1    2 2   
     2    2    3 2   
     3    2    4 1   
     4    4    5 1   
     5    4    6 1   
     6    5   30 1   
     7    6   10 1   
     8    7    8 1   
     9    8    9 1   
    10    9   10 1   
    11   11   12 1   
    12   11   34 1   
    13   12   31 1   
    14   13   14 1   
    15   13   15 1   
    16   15   16 1   
    17   15   35 1   
    18   16   17 1   
    19   16   21 1   
    20   17   18 1   
    21   17   36 1   
    22   18   38 1   
    23   19   20 1   
    24   19   22 1   
    25   20   39 1   
    26   21   37 1   
    27   22   23 1   
    28   22   24 1   
    29   23   40 1   
    30   23   41 1   
    31   23   42 1   
    32   25   26 1   
    33   25   43 1   
    34   26   27 1   
    35   26   28 1   
    36   28   29 1   
    37   28   44 1   
    38   29   45 1   
@<TRIPOS>SUBSTRUCTURE
     1 XK9         1 TEMP              0 ****  ****    0 ROOT
