@<TRIPOS>MOLECULE
XK9
   46    48     1     0     0
SMALL
bcc


@<TRIPOS>ATOM
      1 O3         -6.7650    2.8730    1.1180 o         1 XK9     -0.220500
      2 N7         -5.8490    2.1190    0.9310 no        1 XK9      0.325200
      3 O2         -4.7650    2.3080    1.4260 o         1 XK9     -0.220500
      4 C3         -6.0560    0.9350    0.0760 ca        1 XK9     -0.208200
      5 C2         -7.3060    0.6830   -0.5000 ca        1 XK9     -0.025000
      6 C4         -5.0000    0.0280   -0.1790 ca        1 XK9      0.020800
      7 N1         -3.6750    0.0260    0.2230 na        1 XK9     -0.160400
      8 C8         -3.0630   -1.1280   -0.3040 cc        1 XK9     -0.139300
      9 C7         -3.9810   -1.8490   -1.0690 cd        1 XK9     -0.090200
     10 C5         -5.2340   -1.1340   -1.0180 ca        1 XK9     -0.128800
     11 C6         -6.4920   -1.3480   -1.5740 ca        1 XK9     -0.018000
     12 C1         -7.5120   -0.4410   -1.3110 ca        1 XK9     -0.181000
     13 C9         -1.6490   -1.5180   -0.0700 c         1 XK9      0.698300
     14 O1         -1.3370   -2.7220   -0.0530 o         1 XK9     -0.564100
     15 N2         -0.7430   -0.4830    0.1190 n         1 XK9     -0.466100
     16 C10         0.6420   -0.6160    0.3320 ca        1 XK9      0.069600
     17 C15         1.4590    0.5300    0.1800 ca        1 XK9     -0.168000
     18 C14         2.8260    0.4580    0.4130 ca        1 XK9     -0.081000
     19 C13         3.4190   -0.7470    0.8080 ca        1 XK9     -0.143900
     20 C12         2.6170   -1.8840    0.9540 ca        1 XK9     -0.081000
     21 C11         1.2470   -1.8290    0.7230 ca        1 XK9     -0.168000
     22 C16         4.8680   -0.8330    1.0750 ce        1 XK9      0.402900
     23 C17         5.2490   -1.5490    2.3330 c3        1 XK9     -0.173400
     24 N3          5.6910   -0.2970    0.2030 n2        1 XK9     -0.460400
     25 N4          7.0200   -0.4250    0.3140 nh        1 XK9     -0.470300
     26 C18         7.7990    0.5850   -0.4080 c2        1 XK9      0.722100
     27 N6          8.6860    1.2680    0.2540 n2        1 XK9     -0.831100
     28 N5          7.6000    0.5810   -1.8650 nh        1 XK9     -0.550700
     29 OBC         7.8780    1.7820   -2.3900 oh        1 XK9     -0.416300
     30 H2         -8.1420    1.3810   -0.3120 ha        1 XK9      0.171000
     31 H1         -8.5110   -0.6010   -1.7450 ha        1 XK9      0.150000
     32 HA         -3.2920    0.6440    0.8980 hn        1 XK9      0.333700
     33 H7         -3.7860   -2.7800   -1.5990 ha        1 XK9      0.182000
     34 H6         -6.6720   -2.2280   -2.2120 ha        1 XK9      0.151000
     35 HB         -1.0470    0.4430   -0.0900 hn        1 XK9      0.321500
     36 H15         1.0220    1.4940   -0.1260 ha        1 XK9      0.153000
     37 H11         0.6460   -2.7460    0.8420 ha        1 XK9      0.153000
     38 H14         3.4440    1.3610    0.2840 ha        1 XK9      0.143500
     39 H12         3.0730   -2.8420    1.2500 ha        1 XK9      0.143500
     40 H171        5.7560   -2.5160    2.0890 hc        1 XK9      0.057033
     41 H172        5.9470   -0.9280    2.9500 hc        1 XK9      0.057033
     42 H173        4.3450   -1.7690    2.9510 hc        1 XK9      0.057033
     43 H4          7.3860   -0.5640    1.2500 hn        1 XK9      0.403800
     44 H5          6.6300    0.3680   -2.0980 hn        1 XK9      0.413800
     45 HBC         8.7150    1.6530   -2.8790 ho        1 XK9      0.427000
     46 H6A         9.2550    1.8820   -0.2870 hn        1 XK9      0.410400
@<TRIPOS>BOND
     1    1    2 1   
     2    2    3 1   
     3    2    4 1   
     4    4    5 ar  
     5    4    6 ar  
     6    5   12 ar  
     7    5   30 1   
     8    6    7 1   
     9    6   10 ar  
    10    7    8 1   
    11    7   32 1   
    12    8    9 2   
    13    8   13 1   
    14    9   10 1   
    15    9   33 1   
    16   10   11 ar  
    17   11   12 ar  
    18   11   34 1   
    19   12   31 1   
    20   13   14 2   
    21   13   15 1   
    22   15   16 1   
    23   15   35 1   
    24   16   17 ar  
    25   16   21 ar  
    26   17   18 ar  
    27   17   36 1   
    28   18   19 ar  
    29   18   38 1   
    30   19   20 ar  
    31   19   22 1   
    32   20   21 ar  
    33   20   39 1   
    34   21   37 1   
    35   22   23 1   
    36   22   24 2   
    37   23   40 1   
    38   23   41 1   
    39   23   42 1   
    40   24   25 1   
    41   25   26 1   
    42   25   43 1   
    43   26   27 2   
    44   26   28 1   
    45   27   46 1   
    46   28   29 1   
    47   28   44 1   
    48   29   45 1   
@<TRIPOS>SUBSTRUCTURE
     1 XK9         1 TEMP              0 ****  ****    0 ROOT
