@<TRIPOS>MOLECULE
XK9
   48    50     1     0     0
SMALL
bcc


@<TRIPOS>ATOM
      1 O3          0.5840    1.1600    0.9540 o         1 XK9     -0.214000
      2 N7          1.7200    0.8520    0.7340 no        1 XK9      0.327200
      3 O2          2.5560    0.8400    1.6070 o         1 XK9     -0.214000
      4 C3          2.1140    0.4710   -0.6380 ca        1 XK9     -0.214200
      5 C2          1.1720    0.4210   -1.6700 ca        1 XK9      0.004000
      6 C4          3.4580    0.1420   -0.9380 ca        1 XK9      0.036800
      7 N1          4.5930    0.1470   -0.1410 na        1 XK9     -0.164400
      8 C8          5.6720   -0.3060   -0.9330 cc        1 XK9     -0.200300
      9 C7          5.2380   -0.5370   -2.2460 cd        1 XK9     -0.018200
     10 C5          3.8270   -0.2520   -2.2820 ca        1 XK9     -0.144800
     11 C6          2.8560   -0.2880   -3.2880 ca        1 XK9     -0.002000
     12 C1          1.5480    0.0480   -2.9710 ca        1 XK9     -0.169000
     13 C9          7.0490   -0.4760   -0.4640 c         1 XK9      0.715300
     14 O1          7.8720   -1.1990   -1.0370 o         1 XK9     -0.517100
     15 N2          7.4210    0.2680    0.6990 ns        1 XK9     -0.442100
     16 C10         8.5580    0.1260    1.4410 ca        1 XK9      0.230600
     17 C15         8.7960    1.0280    2.5370 ca        1 XK9     -0.217000
     18 C14         9.9120    0.9130    3.3230 ca        1 XK9      0.005500
     19 C13        10.8900   -0.1010    3.0990 ca        1 XK9     -0.291900
     20 C12        10.6510   -0.9930    2.0100 ca        1 XK9      0.005500
     21 C11         9.5400   -0.8940    1.2150 ca        1 XK9     -0.217000
     22 C16        12.0710   -0.2120    3.8840 ce        1 XK9      0.612900
     23 C17        13.0710   -1.2530    3.4840 c3        1 XK9     -0.226400
     24 N3         12.2300    0.6360    4.9380 n2        1 XK9     -0.727400
     25 N4         13.4030    0.7280    5.6440 ny        1 XK9     -0.357100
     26 C18        13.4150   -0.0630    6.9620 c2        1 XK9      0.632100
     27 N6         14.2730   -0.9560    7.1970 n2        1 XK9     -0.639100
     28 N5         12.2610    0.3810    7.8980 ny        1 XK9     -0.562500
     29 OBC        12.4790    1.6900    8.1670 oh        1 XK9     -0.366300
     30 H2          0.1160    0.6770   -1.4600 ha        1 XK9      0.185000
     31 H1          0.7720    0.0240   -3.7540 ha        1 XK9      0.169000
     32 HA          4.5600    0.1650    0.8510 hn        1 XK9      0.325700
     33 H7          5.8570   -0.8660   -3.0820 ha        1 XK9      0.190000
     34 H6          3.1330   -0.5810   -4.3130 ha        1 XK9      0.164000
     35 HB          6.8180    1.0280    0.9530 hn        1 XK9      0.347500
     36 H15         8.0710    1.8350    2.7430 ha        1 XK9      0.188000
     37 H11         9.4070   -1.6100    0.3820 ha        1 XK9      0.188000
     38 H14        10.0500    1.6440    4.1380 ha        1 XK9      0.151500
     39 H12        11.3750   -1.7950    1.7820 ha        1 XK9      0.151500
     40 H171       13.4460   -1.0300    2.4480 hc        1 XK9      0.094367
     41 H172       13.9580   -1.3420    4.1550 hc        1 XK9      0.094367
     42 H173       12.5760   -2.2610    3.4620 hc        1 XK9      0.094367
     43 H4         14.2670    0.4550    5.1280 hn        1 XK9      0.490800
     44 H5         12.2750   -0.1810    8.7720 hn        1 XK9      0.488800
     45 HBC        11.7580    2.0360    8.7500 ho        1 XK9      0.505000
     46 H6A        14.3690   -1.4960    8.0340 hn        1 XK9      0.527400
     47 H42        13.4750    1.7320    5.9190 hn        1 XK9      0.490800
     48 H52        11.3510    0.2460    7.4100 hn        1 XK9      0.488800
@<TRIPOS>BOND
     1    1    2 1   
     2    2    3 1   
     3    2    4 1   
     4    4    5 ar  
     5    4    6 ar  
     6    5   12 ar  
     7    5   30 1   
     8    6    7 1   
     9    6   10 ar  
    10    7    8 1   
    11    7   32 1   
    12    8    9 2   
    13    8   13 1   
    14    9   10 1   
    15    9   33 1   
    16   10   11 ar  
    17   11   12 ar  
    18   11   34 1   
    19   12   31 1   
    20   13   14 2   
    21   13   15 1   
    22   15   16 1   
    23   15   35 1   
    24   16   17 ar  
    25   16   21 ar  
    26   17   18 ar  
    27   17   36 1   
    28   18   19 ar  
    29   18   38 1   
    30   19   20 ar  
    31   19   22 1   
    32   20   21 ar  
    33   20   39 1   
    34   21   37 1   
    35   22   23 1   
    36   22   24 2   
    37   23   40 1   
    38   23   41 1   
    39   23   42 1   
    40   24   25 1   
    41   25   26 1   
    42   25   43 1   
    43   25   47 1   
    44   26   27 2   
    45   26   28 1   
    46   27   46 1   
    47   28   29 1   
    48   28   44 1   
    49   28   48 1   
    50   29   45 1   
@<TRIPOS>SUBSTRUCTURE
     1 XK9         1 TEMP              0 ****  ****    0 ROOT
