@<TRIPOS>MOLECULE
XK9
   48    50     1     0     0
SMALL
bcc


@<TRIPOS>ATOM
      1 O3          0.3870   -0.5830    0.7580 o         1 XK9     -0.212500
      2 N7          1.5660   -0.4920    0.5680 no        1 XK9      0.327200
      3 O2          2.3700   -0.6740    1.4520 o         1 XK9     -0.212500
      4 C3          2.0560   -0.1500   -0.7830 ca        1 XK9     -0.214200
      5 C2          1.1680    0.0260   -1.8480 ca        1 XK9      0.004000
      6 C4          3.4420    0.0030   -1.0320 ca        1 XK9      0.037800
      7 N1          4.5300   -0.0710   -0.1760 na        1 XK9     -0.164400
      8 C8          5.6960    0.1270   -0.9500 cc        1 XK9     -0.201300
      9 C7          5.3460    0.3880   -2.2830 cd        1 XK9     -0.017200
     10 C5          3.9100    0.3210   -2.3650 ca        1 XK9     -0.145800
     11 C6          2.9890    0.4920   -3.4030 ca        1 XK9     -0.003000
     12 C1          1.6370    0.3440   -3.1340 ca        1 XK9     -0.169000
     13 C9          7.0670    0.1010   -0.4390 c         1 XK9      0.715300
     14 O1          8.0550   -0.0420   -1.1700 o         1 XK9     -0.519100
     15 N2          7.2310    0.2830    0.9700 n         1 XK9     -0.441100
     16 C10         8.3630    0.0710    1.7020 ca        1 XK9      0.231600
     17 C15         8.3580    0.3840    3.1060 ca        1 XK9     -0.217500
     18 C14         9.4600    0.1590    3.8890 ca        1 XK9      0.006000
     19 C13        10.6620   -0.3940    3.3560 ca        1 XK9     -0.291900
     20 C12        10.6640   -0.7020    1.9620 ca        1 XK9      0.006000
     21 C11         9.5720   -0.4800    1.1640 ca        1 XK9     -0.217500
     22 C16        11.8020   -0.6700    4.1620 ce        1 XK9      0.611900
     23 C17        12.9730   -1.3280    3.5000 c3        1 XK9     -0.226400
     24 N3         11.7570   -0.3380    5.4820 n2        1 XK9     -0.727400
     25 N4         12.7250   -0.7250    6.3750 n4        1 XK9     -0.356100
     26 C18        13.7750    0.3530    6.6830 c2        1 XK9      0.632100
     27 N6         15.0050    0.1640    6.4860 n2        1 XK9     -0.640100
     28 N5         13.1150    1.6450    7.2330 n4        1 XK9     -0.562500
     29 OBC        12.4980    1.2890    8.3840 oh        1 XK9     -0.366300
     30 H2          0.0800   -0.0880   -1.6780 ha        1 XK9      0.186000
     31 H1          0.8990    0.4740   -3.9430 ha        1 XK9      0.169000
     32 HA          4.4860   -0.4880    0.7240 hn        1 XK9      0.326700
     33 H7          6.0350    0.6040   -3.1000 ha        1 XK9      0.189000
     34 H6          3.3400    0.7390   -4.4180 ha        1 XK9      0.164000
     35 HB          6.4470    0.6640    1.4650 hn        1 XK9      0.347500
     36 H15         7.4470    0.8060    3.5650 ha        1 XK9      0.188000
     37 H11         9.6300   -0.7330    0.0870 ha        1 XK9      0.188000
     38 H14         9.3940    0.4060    4.9620 ha        1 XK9      0.151500
     39 H12        11.5630   -1.1370    1.4910 ha        1 XK9      0.151500
     40 H171       13.3010   -0.7130    2.6190 hc        1 XK9      0.094033
     41 H172       13.8690   -1.4650    4.1510 hc        1 XK9      0.094033
     42 H173       12.6670   -2.3390    3.1190 hc        1 XK9      0.094033
     43 H4         12.2150   -0.8850    7.2710 hn        1 XK9      0.490800
     44 H5         13.8400    2.3670    7.4120 hn        1 XK9      0.488300
     45 HBC        12.0400    2.0750    8.7740 ho        1 XK9      0.504000
     46 H6A        15.7540    0.7970    6.6830 hn        1 XK9      0.527400
     47 H42        13.2530   -1.5890    6.1260 hn        1 XK9      0.490800
     48 H52        12.4290    2.0040    6.5360 hn        1 XK9      0.488300
@<TRIPOS>BOND
     1    1    2 1   
     2    2    3 1   
     3    2    4 1   
     4    4    5 ar  
     5    4    6 ar  
     6    5   12 ar  
     7    5   30 1   
     8    6    7 1   
     9    6   10 ar  
    10    7    8 1   
    11    7   32 1   
    12    8    9 2   
    13    8   13 1   
    14    9   10 1   
    15    9   33 1   
    16   10   11 ar  
    17   11   12 ar  
    18   11   34 1   
    19   12   31 1   
    20   13   14 2   
    21   13   15 1   
    22   15   16 1   
    23   15   35 1   
    24   16   17 ar  
    25   16   21 ar  
    26   17   18 ar  
    27   17   36 1   
    28   18   19 ar  
    29   18   38 1   
    30   19   20 ar  
    31   19   22 1   
    32   20   21 ar  
    33   20   39 1   
    34   21   37 1   
    35   22   23 1   
    36   22   24 2   
    37   23   40 1   
    38   23   41 1   
    39   23   42 1   
    40   24   25 1   
    41   25   26 1   
    42   25   43 1   
    43   25   47 1   
    44   26   27 2   
    45   26   28 1   
    46   27   46 1   
    47   28   29 1   
    48   28   44 1   
    49   28   48 1   
    50   29   45 1   
@<TRIPOS>SUBSTRUCTURE
     1 XK9         1 TEMP              0 ****  ****    0 ROOT
