@<TRIPOS>MOLECULE
XK9
   46    48     1     0     0
SMALL
bcc


@<TRIPOS>ATOM
      1 O3          0.3160    0.3420    0.8460 o         1 XK9     -0.220500
      2 N7          1.4920    0.1670    0.6710 no        1 XK9      0.325200
      3 O2          2.2610    0.0770    1.5970 o         1 XK9     -0.220500
      4 C3          2.0050    0.0590   -0.7080 ca        1 XK9     -0.208200
      5 C2          1.1350    0.1460   -1.8000 ca        1 XK9     -0.025000
      6 C4          3.3840   -0.1360   -0.9570 ca        1 XK9      0.020800
      7 N1          4.4670   -0.2350   -0.0990 na        1 XK9     -0.159400
      8 C8          5.6210   -0.4450   -0.8790 cc        1 XK9     -0.139300
      9 C7          5.2880   -0.4480   -2.2350 cd        1 XK9     -0.090200
     10 C5          3.8610   -0.2460   -2.3240 ca        1 XK9     -0.128800
     11 C6          2.9630   -0.1530   -3.3840 ca        1 XK9     -0.018000
     12 C1          1.6140    0.0420   -3.1120 ca        1 XK9     -0.181000
     13 C9          6.9890   -0.6380   -0.3340 c         1 XK9      0.698300
     14 O1          7.8090   -1.3340   -0.9580 o         1 XK9     -0.565100
     15 N2          7.2720   -0.0110    0.8720 n         1 XK9     -0.467100
     16 C10         8.5020   -0.0470    1.5560 ca        1 XK9      0.068600
     17 C15         8.7480    0.9270    2.5530 ca        1 XK9     -0.166500
     18 C14         9.9320    0.9090    3.2800 ca        1 XK9     -0.081500
     19 C13        10.9050   -0.0650    3.0310 ca        1 XK9     -0.142900
     20 C12        10.6650   -1.0330    2.0490 ca        1 XK9     -0.081500
     21 C11         9.4820   -1.0330    1.3180 ca        1 XK9     -0.166500
     22 C16        12.1770   -0.0830    3.7810 ce        1 XK9      0.402900
     23 C17        13.4090   -0.2660    2.9520 c3        1 XK9     -0.173400
     24 N3         12.1270    0.0500    5.0860 n2        1 XK9     -0.460400
     25 N4         13.2220   -0.0650    5.8510 nh        1 XK9     -0.470300
     26 C18        13.1200    0.5650    7.1710 c2        1 XK9      0.722100
     27 N6         14.0330    1.4250    7.5150 n2        1 XK9     -0.832100
     28 N5         12.0700    0.0030    8.0340 nh        1 XK9     -0.550700
     29 OBC        11.6710    0.8980    8.9470 oh        1 XK9     -0.416300
     30 H2          0.0540    0.2980   -1.6240 ha        1 XK9      0.171000
     31 H1          0.8950    0.1160   -3.9430 ha        1 XK9      0.150000
     32 HA          4.3970   -0.3120    0.8880 hn        1 XK9      0.333700
     33 H7          5.9780   -0.5850   -3.0660 ha        1 XK9      0.182000
     34 H6          3.3230   -0.2340   -4.4210 ha        1 XK9      0.151000
     35 HB          6.6260    0.6710    1.2050 hn        1 XK9      0.321500
     36 H15         8.0030    1.7090    2.7700 ha        1 XK9      0.152500
     37 H11         9.3250   -1.8090    0.5500 ha        1 XK9      0.152500
     38 H14        10.1000    1.6710    4.0570 ha        1 XK9      0.144000
     39 H12        11.4180   -1.8120    1.8520 ha        1 XK9      0.144000
     40 H171       14.1670    0.5250    3.1840 hc        1 XK9      0.057033
     41 H172       13.8670   -1.2660    3.1550 hc        1 XK9      0.057033
     42 H173       13.1670   -0.2010    1.8640 hc        1 XK9      0.057033
     43 H4         14.1080    0.1590    5.4100 hn        1 XK9      0.403800
     44 H5         11.2490   -0.2540    7.4860 hn        1 XK9      0.414800
     45 HBC        12.0240    0.5640    9.7950 ho        1 XK9      0.427000
     46 H6A        13.9790    1.7640    8.4500 hn        1 XK9      0.410400
@<TRIPOS>BOND
     1    1    2 1   
     2    2    3 1   
     3    2    4 1   
     4    4    5 ar  
     5    4    6 ar  
     6    5   12 ar  
     7    5   30 1   
     8    6    7 1   
     9    6   10 ar  
    10    7    8 1   
    11    7   32 1   
    12    8    9 2   
    13    8   13 1   
    14    9   10 1   
    15    9   33 1   
    16   10   11 ar  
    17   11   12 ar  
    18   11   34 1   
    19   12   31 1   
    20   13   14 2   
    21   13   15 1   
    22   15   16 1   
    23   15   35 1   
    24   16   17 ar  
    25   16   21 ar  
    26   17   18 ar  
    27   17   36 1   
    28   18   19 ar  
    29   18   38 1   
    30   19   20 ar  
    31   19   22 1   
    32   20   21 ar  
    33   20   39 1   
    34   21   37 1   
    35   22   23 1   
    36   22   24 2   
    37   23   40 1   
    38   23   41 1   
    39   23   42 1   
    40   24   25 1   
    41   25   26 1   
    42   25   43 1   
    43   26   27 2   
    44   26   28 1   
    45   27   46 1   
    46   28   29 1   
    47   28   44 1   
    48   29   45 1   
@<TRIPOS>SUBSTRUCTURE
     1 XK9         1 TEMP              0 ****  ****    0 ROOT
