@<TRIPOS>MOLECULE
XKL
   43    38     1     0     0
SMALL
bcc


@<TRIPOS>ATOM
      1 O28        -2.3020    1.4320    3.7940 o         1 XKL     -0.361000
      2 C24        -3.0070    0.7900    3.0460 c1        1 XKL      0.377000
      3 N25        -4.3370    0.4220    3.4510 n2        1 XKL     -0.363000
      4 C26        -4.8100    0.7630    4.7730 c3        1 XKL     -0.032000
      5 C27        -5.8140   -0.2820    5.2390 c3        1 XKL     -0.238000
      6 C22        -2.4990    0.4120    1.6500 c2        1 XKL     -0.158000
      7 N21        -2.9630    0.8990    0.4780 n2        1 XKL     -0.006000
      8 O20        -2.1770    0.3800   -0.5450 os        1 XKL     -0.026000
      9 C23        -1.4270   -0.4100    1.3750 c1        1 XKL     -0.158000
     10 C19        -1.2390   -0.4210    0.0130 c1        1 XKL      0.018000
     11 C5         -0.1960   -1.2330   -0.7380 c1        1 XKL     -0.102000
     12 C4         -0.2610   -2.6140   -0.7310 c2        1 XKL      0.173000
     13 O7         -1.3670   -3.2660   -0.1400 oh        1 XKL     -0.215000
     14 C3          0.7340   -3.3590   -1.3480 c1        1 XKL     -0.325000
     15 C2          1.7940   -2.7190   -1.9720 c1        1 XKL      0.162000
     16 O8          2.7540   -3.4720   -2.6780 oh        1 XKL     -0.235000
     17 C6          0.8670   -0.5910   -1.3630 c1        1 XKL      0.146000
     18 C1          1.8600   -1.3350   -1.9790 c1        1 XKL     -0.246000
     19 O9          0.8790    0.8400   -1.4640 os        1 XKL     -0.149000
     20 C10         2.1490    1.2740   -1.9630 c2        1 XKL      0.103000
     21 C15         2.4270    1.1850   -3.3160 c2        1 XKL     -0.186000
     22 C14         3.6270    1.6800   -3.8130 c1        1 XKL     -0.040000
     23 C13         4.5450    2.2620   -2.9540 c1        1 XKL     -0.154000
     24 N16         5.7340    2.8420   -3.4740 no        1 XKL      0.572000
     25 O18         6.6900    3.3180   -2.6220 o         1 XKL     -0.358000
     26 O17         5.8790    2.9590   -4.6790 o         1 XKL     -0.358000
     27 C12         4.2670    2.3500   -1.6010 c1        1 XKL     -0.044000
     28 C11         3.0680    1.8560   -1.1040 c1        1 XKL     -0.151000
     29 H25        -4.8810   -0.0210    2.8740 hn        1 XKL      0.236000
     30 H261       -4.0500    0.7890    5.3960 h1        1 XKL      0.102000
     31 H262       -5.2400    1.6390    4.7490 h1        1 XKL      0.102000
     32 H271       -5.3420   -1.0940    5.4990 hc        1 XKL      0.082333
     33 H272       -6.3160    0.0660    6.0090 hc        1 XKL      0.082333
     34 H273       -6.4370   -0.4860    4.5070 hc        1 XKL      0.082333
     35 H23        -0.8960   -0.8980    2.0310 DU        1 XKL      0.202000
     36 H7         -1.6830   -3.8910   -0.7050 ho        1 XKL      0.227000
     37 H3          0.6870   -4.3440   -1.3430 ha        1 XKL      0.147000
     38 H8          3.2760   -3.9110   -2.0970 ho        1 XKL      0.229000
     39 H1          2.6110   -0.8810   -2.4210 ha        1 XKL      0.173000
     40 H15         1.7780    0.7740   -3.9230 ha        1 XKL      0.165000
     41 H11         2.8720    1.9180   -0.1500 ha        1 XKL      0.170000
     42 H14         3.8240    1.6170   -4.7710 ha        1 XKL      0.176000
     43 H12         4.9190    2.7640   -0.9910 ha        1 XKL      0.178000
@<TRIPOS>BOND
     1    1    2 1   
     2    2    6 1   
     3    3    4 1   
     4    3   29 1   
     5    4    5 1   
     6    4   30 1   
     7    4   31 1   
     8    5   32 1   
     9    5   33 1   
    10    5   34 1   
    11    6    7 1   
    12    6    9 1   
    13    7    8 1   
    14    8   10 1   
    15    9   10 1   
    16   11   12 1   
    17   11   17 1   
    18   12   13 1   
    19   12   14 1   
    20   13   36 1   
    21   14   37 1   
    22   15   16 1   
    23   15   18 1   
    24   16   38 1   
    25   17   19 1   
    26   18   39 1   
    27   19   20 1   
    28   20   21 1   
    29   20   28 1   
    30   21   22 1   
    31   21   40 1   
    32   22   42 1   
    33   23   24 1   
    34   23   27 1   
    35   24   25 1   
    36   24   26 1   
    37   27   43 1   
    38   28   41 1   
@<TRIPOS>SUBSTRUCTURE
     1 XKL         1 TEMP              0 ****  ****    0 ROOT
