@<TRIPOS>MOLECULE
XKL
   44    46     1     0     0
SMALL
bcc


@<TRIPOS>ATOM
      1 O28         0.7320    1.4270    0.2200 o         1 XKL     -0.398100
      2 C24         1.4910    0.5160   -0.0700 c         1 XKL      0.499600
      3 N25         2.0990   -0.2740    1.0750 ny        1 XKL     -0.674800
      4 C26         1.6590    0.2010    2.4220 c3        1 XKL      0.108800
      5 C27         2.2770   -0.6010    3.5470 c3        1 XKL     -0.137100
      6 C22         1.9010    0.0750   -1.3940 cc        1 XKL      0.195800
      7 N21         2.7590   -0.9510   -1.6670 nd        1 XKL     -0.343300
      8 O20         2.8920   -1.0580   -2.9500 os        1 XKL     -0.032100
      9 C23         1.4520    0.6700   -2.6380 cc        1 XKL     -0.299600
     10 C19         2.1010   -0.0750   -3.6220 cd        1 XKL      0.407200
     11 C5          2.1290   -0.0560   -5.0480 ca        1 XKL     -0.281500
     12 C4          1.4060    0.9230   -5.7760 ca        1 XKL      0.248100
     13 O7          0.6890    1.8310   -5.0420 oh        1 XKL     -0.497100
     14 C3          1.4180    0.9610   -7.1740 ca        1 XKL     -0.339000
     15 C2          2.1700    0.0060   -7.8730 ca        1 XKL      0.251100
     16 O8          2.2380   -0.0280   -9.2340 oh        1 XKL     -0.464100
     17 C6          2.8770   -1.0000   -5.8030 ca        1 XKL      0.233100
     18 C1          2.9070   -0.9820   -7.1940 ca        1 XKL     -0.264000
     19 O9          3.6000   -1.8990   -5.0410 os        1 XKL     -0.241200
     20 C10         4.1390   -3.0120   -5.6930 ca        1 XKL      0.113100
     21 C15         5.5080   -3.2390   -5.5050 ca        1 XKL     -0.147000
     22 C14         6.0740   -4.4100   -6.0040 ca        1 XKL     -0.051000
     23 C13         5.2630   -5.3300   -6.6890 ca        1 XKL     -0.176200
     24 N16         5.8690   -6.5840   -7.2200 no        1 XKL      0.314200
     25 O18         7.0380   -6.7800   -7.0360 o         1 XKL     -0.192000
     26 O17         5.1650   -7.3560   -7.8110 o         1 XKL     -0.192000
     27 C12         3.8920   -5.0910   -6.8820 ca        1 XKL     -0.051000
     28 C11         3.3260   -3.9220   -6.3800 ca        1 XKL     -0.147000
     29 H25         1.8440   -1.2630    0.9610 hn        1 XKL      0.467800
     30 H261        1.9410    1.2900    2.5090 hx        1 XKL      0.113700
     31 H262        0.5320    0.1300    2.4560 hx        1 XKL      0.113700
     32 H271        1.8960   -0.1840    4.5150 hc        1 XKL      0.080700
     33 H272        3.3910   -0.5230    3.5500 hc        1 XKL      0.080700
     34 H273        1.9880   -1.6790    3.4970 hc        1 XKL      0.080700
     35 H23         0.7660    1.5060   -2.7610 ha        1 XKL      0.219000
     36 H7          0.2490    2.4460   -5.6520 ho        1 XKL      0.448000
     37 H3          0.8480    1.7290   -7.7140 ha        1 XKL      0.159000
     38 H8          1.7060    0.7000   -9.5960 ho        1 XKL      0.443000
     39 H1          3.4940   -1.7140   -7.7690 ha        1 XKL      0.185000
     40 H15         6.1220   -2.5050   -4.9620 ha        1 XKL      0.165000
     41 H11         2.2540   -3.7170   -6.5200 ha        1 XKL      0.165000
     42 H14         7.1510   -4.6110   -5.8650 ha        1 XKL      0.184500
     43 H12         3.2690   -5.8250   -7.4240 ha        1 XKL      0.184500
     44 H252        3.1230   -0.2090    1.0090 hn        1 XKL      0.467800
@<TRIPOS>BOND
     1    1    2 2   
     2    2    3 1   
     3    2    6 1   
     4    3    4 1   
     5    3   29 1   
     6    3   44 1   
     7    4    5 1   
     8    4   30 1   
     9    4   31 1   
    10    5   32 1   
    11    5   33 1   
    12    5   34 1   
    13    6    7 2   
    14    6    9 1   
    15    7    8 1   
    16    8   10 1   
    17    9   10 2   
    18    9   35 1   
    19   10   11 1   
    20   11   12 ar  
    21   11   17 ar  
    22   12   13 1   
    23   12   14 ar  
    24   13   36 1   
    25   14   15 ar  
    26   14   37 1   
    27   15   16 1   
    28   15   18 ar  
    29   16   38 1   
    30   17   18 ar  
    31   17   19 1   
    32   18   39 1   
    33   19   20 1   
    34   20   21 ar  
    35   20   28 ar  
    36   21   22 ar  
    37   21   40 1   
    38   22   23 ar  
    39   22   42 1   
    40   23   24 1   
    41   23   27 ar  
    42   24   25 1   
    43   24   26 1   
    44   27   28 ar  
    45   27   43 1   
    46   28   41 1   
@<TRIPOS>SUBSTRUCTURE
     1 XKL         1 TEMP              0 ****  ****    0 ROOT
