@<TRIPOS>MOLECULE
XKL
   43    45     1     0     0
SMALL
bcc


@<TRIPOS>ATOM
      1 O28         1.5660    1.5730    0.1730 o         1 XKL     -0.598100
      2 C24         1.6120    0.3450   -0.0380 c         1 XKL      0.592600
      3 N25         1.4460   -0.5820    0.9670 n         1 XKL     -0.553900
      4 C26         1.3460   -0.2010    2.3510 c3        1 XKL      0.083000
      5 C27         2.5100   -0.6590    3.2170 c3        1 XKL     -0.120100
      6 C22         1.8040   -0.1620   -1.4230 cc        1 XKL      0.260800
      7 N21         2.0020   -1.4400   -1.8160 nd        1 XKL     -0.343300
      8 O20         2.1360   -1.4770   -3.1160 os        1 XKL     -0.090100
      9 C23         1.8150    0.7040   -2.5970 cc        1 XKL     -0.282600
     10 C19         2.0280   -0.1610   -3.6580 cd        1 XKL      0.318200
     11 C5          2.1540   -0.0090   -5.0780 ca        1 XKL     -0.203500
     12 C4          1.9920    1.2600   -5.6900 ca        1 XKL      0.207100
     13 O7          1.7160    2.3170   -4.8620 oh        1 XKL     -0.483100
     14 C3          2.1130    1.4370   -7.0730 ca        1 XKL     -0.266000
     15 C2          2.3950    0.3240   -7.8760 ca        1 XKL      0.205100
     16 O8          2.5010    0.5560   -9.2220 oh        1 XKL     -0.483100
     17 C6          2.4330   -1.0970   -5.9330 ca        1 XKL      0.195100
     18 C1          2.5590   -0.9510   -7.3160 ca        1 XKL     -0.299000
     19 O9          2.4660   -2.3510   -5.3320 os        1 XKL     -0.219200
     20 C10         3.4110   -3.2560   -5.7910 ca        1 XKL      0.154100
     21 C15         4.6480   -2.8830   -6.3330 ca        1 XKL     -0.173000
     22 C14         5.5650   -3.8680   -6.6840 ca        1 XKL     -0.042000
     23 C13         5.2360   -5.2200   -6.4890 ca        1 XKL     -0.204200
     24 N16         6.2110   -6.2720   -6.8710 no        1 XKL      0.317200
     25 O18         7.2610   -5.9430   -7.3550 o         1 XKL     -0.208500
     26 O17         5.9240   -7.4250   -6.6890 o         1 XKL     -0.208500
     27 C12         3.9970   -5.5910   -5.9360 ca        1 XKL     -0.042000
     28 C11         3.0790   -4.6080   -5.5890 ca        1 XKL     -0.173000
     29 H25         1.5900   -1.5450    0.7770 hn        1 XKL      0.322500
     30 H261        1.2560    0.9220    2.4150 h1        1 XKL      0.062700
     31 H262        0.3930   -0.6490    2.7600 h1        1 XKL      0.062700
     32 H271        2.3160   -0.3480    4.2720 hc        1 XKL      0.043033
     33 H272        3.4690   -0.1960    2.8810 hc        1 XKL      0.043033
     34 H273        2.6250   -1.7690    3.1900 hc        1 XKL      0.043033
     35 H23         1.6840    1.7840   -2.5950 ha        1 XKL      0.206000
     36 H7          1.6220    3.1160   -5.4050 ho        1 XKL      0.435000
     37 H3          1.9880    2.4260   -7.5340 ha        1 XKL      0.164000
     38 H8          2.6720   -0.2900   -9.6650 ho        1 XKL      0.431000
     39 H1          2.7710   -1.8250   -7.9490 ha        1 XKL      0.158000
     40 H15         4.8970   -1.8200   -6.4710 ha        1 XKL      0.167000
     41 H11         2.1070   -4.8710   -5.1460 ha        1 XKL      0.167000
     42 H14         6.5460   -3.5890   -7.1060 ha        1 XKL      0.175500
     43 H12         3.7540   -6.6570   -5.7820 ha        1 XKL      0.175500
@<TRIPOS>BOND
     1    1    2 2   
     2    2    3 1   
     3    2    6 1   
     4    3    4 1   
     5    3   29 1   
     6    4    5 1   
     7    4   30 1   
     8    4   31 1   
     9    5   32 1   
    10    5   33 1   
    11    5   34 1   
    12    6    7 2   
    13    6    9 1   
    14    7    8 1   
    15    8   10 1   
    16    9   10 2   
    17    9   35 1   
    18   10   11 1   
    19   11   12 ar  
    20   11   17 ar  
    21   12   13 1   
    22   12   14 ar  
    23   13   36 1   
    24   14   15 ar  
    25   14   37 1   
    26   15   16 1   
    27   15   18 ar  
    28   16   38 1   
    29   17   18 ar  
    30   17   19 1   
    31   18   39 1   
    32   19   20 1   
    33   20   21 ar  
    34   20   28 ar  
    35   21   22 ar  
    36   21   40 1   
    37   22   23 ar  
    38   22   42 1   
    39   23   24 1   
    40   23   27 ar  
    41   24   25 1   
    42   24   26 1   
    43   27   28 ar  
    44   27   43 1   
    45   28   41 1   
@<TRIPOS>SUBSTRUCTURE
     1 XKL         1 TEMP              0 ****  ****    0 ROOT
