@<TRIPOS>MOLECULE
XKL
   43    45     1     0     0
SMALL
bcc


@<TRIPOS>ATOM
      1 O28         5.6930    0.0170    0.7670 o         1 XKL     -0.597100
      2 C24         4.8400   -0.8190    0.4070 c         1 XKL      0.591600
      3 N25         5.1060   -2.1670    0.3330 n         1 XKL     -0.550900
      4 C26         6.4280   -2.6990    0.5350 c3        1 XKL      0.083000
      5 C27         7.0480   -3.3310   -0.7020 c3        1 XKL     -0.120100
      6 C22         3.4580   -0.3670    0.0900 cc        1 XKL      0.267800
      7 N21         2.4770   -1.0660   -0.5220 nd        1 XKL     -0.332300
      8 O20         1.4150   -0.3100   -0.6350 os        1 XKL     -0.091100
      9 C23         2.9640    0.9710    0.4050 cc        1 XKL     -0.318600
     10 C19         1.6640    0.9740   -0.0680 cd        1 XKL      0.319200
     11 C5          0.5930    1.9310   -0.1040 ca        1 XKL     -0.274500
     12 C4          0.8170    3.2720   -0.4940 ca        1 XKL      0.216100
     13 O7          2.0420    3.7510   -0.8730 oh        1 XKL     -0.481100
     14 C3         -0.2210    4.2150   -0.5200 ca        1 XKL     -0.211000
     15 C2         -1.5080    3.8110   -0.1450 ca        1 XKL      0.203100
     16 O8         -2.4840    4.7710   -0.1870 oh        1 XKL     -0.480100
     17 C6         -0.7220    1.5740    0.2660 ca        1 XKL      0.208100
     18 C1         -1.7740    2.4890    0.2490 ca        1 XKL     -0.302000
     19 O9         -0.8840    0.2850    0.7650 os        1 XKL     -0.232200
     20 C10        -2.0530   -0.3860    0.4350 ca        1 XKL      0.155100
     21 C15        -2.7530   -0.1840   -0.7620 ca        1 XKL     -0.171500
     22 C14        -3.8640   -0.9700   -1.0440 ca        1 XKL     -0.042000
     23 C13        -4.2680   -1.9520   -0.1230 ca        1 XKL     -0.202200
     24 N16        -5.4580   -2.7880   -0.4200 no        1 XKL      0.317200
     25 O18        -6.0650   -2.5930   -1.4400 o         1 XKL     -0.208000
     26 O17        -5.7870   -3.6340    0.3670 o         1 XKL     -0.208000
     27 C12        -3.5590   -2.1570    1.0740 ca        1 XKL     -0.042000
     28 C11        -2.4500   -1.3700    1.3580 ca        1 XKL     -0.171500
     29 H25         4.4290   -2.7820   -0.0540 hn        1 XKL      0.323500
     30 H261        7.1010   -1.8720    0.9060 h1        1 XKL      0.063700
     31 H262        6.3590   -3.4810    1.3470 h1        1 XKL      0.063700
     32 H271        6.4150   -4.1640   -1.0930 hc        1 XKL      0.044033
     33 H272        7.1860   -2.5780   -1.5140 hc        1 XKL      0.044033
     34 H273        8.0490   -3.7450   -0.4280 hc        1 XKL      0.044033
     35 H23         3.5310    1.7430    0.9180 ha        1 XKL      0.200000
     36 H7          2.6770    3.0170   -0.9010 ho        1 XKL      0.438000
     37 H3         -0.0230    5.2520   -0.8280 ha        1 XKL      0.181000
     38 H8         -3.3160    4.3750    0.1150 ho        1 XKL      0.430000
     39 H1         -2.7850    2.1810    0.5500 ha        1 XKL      0.157000
     40 H15        -2.4190    0.5830   -1.4770 ha        1 XKL      0.166500
     41 H11        -1.8750   -1.5150    2.2840 ha        1 XKL      0.166500
     42 H14        -4.4220   -0.8270   -1.9860 ha        1 XKL      0.176000
     43 H12        -3.8840   -2.9370    1.7860 ha        1 XKL      0.176000
@<TRIPOS>BOND
     1    1    2 2   
     2    2    3 1   
     3    2    6 1   
     4    3    4 1   
     5    3   29 1   
     6    4    5 1   
     7    4   30 1   
     8    4   31 1   
     9    5   32 1   
    10    5   33 1   
    11    5   34 1   
    12    6    7 2   
    13    6    9 1   
    14    7    8 1   
    15    8   10 1   
    16    9   10 2   
    17    9   35 1   
    18   10   11 1   
    19   11   12 ar  
    20   11   17 ar  
    21   12   13 1   
    22   12   14 ar  
    23   13   36 1   
    24   14   15 ar  
    25   14   37 1   
    26   15   16 1   
    27   15   18 ar  
    28   16   38 1   
    29   17   18 ar  
    30   17   19 1   
    31   18   39 1   
    32   19   20 1   
    33   20   21 ar  
    34   20   28 ar  
    35   21   22 ar  
    36   21   40 1   
    37   22   23 ar  
    38   22   42 1   
    39   23   24 1   
    40   23   27 ar  
    41   24   25 1   
    42   24   26 1   
    43   27   28 ar  
    44   27   43 1   
    45   28   41 1   
@<TRIPOS>SUBSTRUCTURE
     1 XKL         1 TEMP              0 ****  ****    0 ROOT
