@<TRIPOS>MOLECULE
XL1
    9     8     1     0     0
SMALL
bcc


@<TRIPOS>ATOM
      1 CA         -0.3550    0.0000    1.6640 c3        1 XL1     -0.088100
      2 CB          0.6800   -0.0000    0.5780 c3        1 XL1      0.012700
      3 SG         -0.1800    0.0000   -0.9730 sh        1 XL1     -0.383900
      4 HA1        -1.0050   -0.9060    1.5940 hc        1 XL1      0.048033
      5 HA2         0.1420    0.0000    2.6660 hc        1 XL1      0.048033
      6 HA3        -1.0050    0.9070    1.5940 hc        1 XL1      0.048033
      7 HB1         1.3330    0.9030    0.6560 h1        1 XL1      0.057700
      8 HB2         1.3330   -0.9030    0.6560 h1        1 XL1      0.057700
      9 HSG         0.8570   -0.0000   -1.7900 hs        1 XL1      0.198800
@<TRIPOS>BOND
     1    1    2 1   
     2    1    4 1   
     3    1    5 1   
     4    1    6 1   
     5    2    3 1   
     6    2    7 1   
     7    2    8 1   
     8    3    9 1   
@<TRIPOS>SUBSTRUCTURE
     1 XL1         1 TEMP              0 ****  ****    0 ROOT
