@<TRIPOS>MOLECULE
XL2
   46    48     1     0     0
SMALL
bcc


@<TRIPOS>ATOM
      1 C01        -0.0540   -0.4340   -0.1670 ca        1 XL2     -0.105000
      2 C02         1.3360   -0.2000   -0.2190 ca        1 XL2      0.132900
      3 C03         2.0660    0.1010    0.9470 ca        1 XL2     -0.039000
      4 C04         1.3950    0.1760    2.1580 ca        1 XL2     -0.113100
      5 C05        -0.0250   -0.0470    2.2320 ca        1 XL2      0.175400
      6 C06        -0.7310   -0.3630    1.0490 ca        1 XL2     -0.163600
      7 S07         1.9970    0.5030    3.7030 ss        1 XL2      0.049900
      8 C08         0.3880    0.3480    4.3970 cc        1 XL2      0.616100
      9 N09        -0.5850    0.0640    3.4980 nd        1 XL2     -0.623100
     10 C10        -2.1540   -0.6830    1.1550 c         1 XL2      0.592700
     11 O11        -2.7520   -1.4460    1.8890 o         1 XL2     -0.366100
     12 N12        -3.0490    0.0910    0.1870 nz        1 XL2     -0.768400
     13 F13         1.9720   -0.2750   -1.4080 f         1 XL2     -0.096900
     14 N14         0.1190    0.5350    5.7370 nu        1 XL2     -0.666600
     15 C15         1.0910    0.5490    6.7500 ca        1 XL2      0.178600
     16 C16         2.3670    1.1280    6.5770 ca        1 XL2     -0.157000
     17 C17         3.2800    1.1400    7.6280 ca        1 XL2     -0.070000
     18 C18         2.9490    0.5970    8.8730 ca        1 XL2     -0.189300
     19 C19         1.6750    0.0440    9.0590 ca        1 XL2     -0.070000
     20 C20         0.7560    0.0140    8.0200 ca        1 XL2     -0.157000
     21 C21         3.9520    0.5390    9.9890 c3        1 XL2      0.197800
     22 C22         5.2420   -0.1230    9.5180 c3        1 XL2     -0.127100
     23 N23         4.1930    1.9350   10.5560 nx        1 XL2     -0.685400
     24 C24         2.9720    2.4430   11.2350 c3        1 XL2      0.081600
     25 C25         5.3480    1.9610   11.4890 c3        1 XL2      0.081600
     26 H1         -0.5690   -0.7100   -1.1020 ha        1 XL2      0.159000
     27 H2          3.1550    0.2650    0.8770 ha        1 XL2      0.188000
     28 H3         -3.0180    1.0880    0.4210 hn        1 XL2      0.468133
     29 H4         -2.7200   -0.0310   -0.7740 hn        1 XL2      0.468133
     30 H5         -0.8200    0.3410    6.0380 hn        1 XL2      0.474800
     31 H6          2.6590    1.6090    5.6270 ha        1 XL2      0.164500
     32 H7          4.2780    1.5770    7.4570 ha        1 XL2      0.151000
     33 H8          1.3950   -0.3930   10.0330 ha        1 XL2      0.151000
     34 H9         -0.2360   -0.4370    8.1950 ha        1 XL2      0.164500
     35 H10         3.5300   -0.0680   10.8500 hx        1 XL2      0.109700
     36 H11         5.9080   -0.3710   10.3810 hc        1 XL2      0.079700
     37 H12         4.9700   -1.0810    9.0050 hc        1 XL2      0.079700
     38 H13         5.8010    0.5150    8.7920 hc        1 XL2      0.079700
     39 H15         3.1180    3.5250   11.5010 hx        1 XL2      0.106867
     40 H16         2.0920    2.3380   10.5450 hx        1 XL2      0.106867
     41 H17         2.7880    1.8510   12.1710 hx        1 XL2      0.106867
     42 H18         5.4020    2.9700   11.9830 hx        1 XL2      0.106867
     43 H19         6.2990    1.7770   10.9200 hx        1 XL2      0.106867
     44 H20         5.2190    1.1680   12.2730 hx        1 XL2      0.106867
     45 H123       -4.0190   -0.2410    0.2590 hn        1 XL2      0.468133
     46 H231        4.4020    2.5540    9.7620 hn        1 XL2      0.444800
@<TRIPOS>BOND
     1    1    2 ar  
     2    1    6 ar  
     3    1   26 1   
     4    2    3 ar  
     5    2   13 1   
     6    3    4 ar  
     7    3   27 1   
     8    4    5 ar  
     9    4    7 1   
    10    5    6 ar  
    11    5    9 1   
    12    6   10 1   
    13    7    8 1   
    14    8    9 2   
    15    8   14 1   
    16   10   11 2   
    17   10   12 1   
    18   12   28 1   
    19   12   29 1   
    20   12   45 1   
    21   14   15 1   
    22   14   30 1   
    23   15   16 ar  
    24   15   20 ar  
    25   16   17 ar  
    26   16   31 1   
    27   17   18 ar  
    28   17   32 1   
    29   18   19 ar  
    30   18   21 1   
    31   19   20 ar  
    32   19   33 1   
    33   20   34 1   
    34   21   22 1   
    35   21   23 1   
    36   21   35 1   
    37   22   36 1   
    38   22   37 1   
    39   22   38 1   
    40   23   24 1   
    41   23   25 1   
    42   23   46 1   
    43   24   39 1   
    44   24   40 1   
    45   24   41 1   
    46   25   42 1   
    47   25   43 1   
    48   25   44 1   
@<TRIPOS>SUBSTRUCTURE
     1 XL2         1 TEMP              0 ****  ****    0 ROOT
