@<TRIPOS>MOLECULE
XL2
   46    48     1     0     0
SMALL
bcc


@<TRIPOS>ATOM
      1 C01        -0.0510   -0.4600   -0.1640 ca        1 XL2     -0.105000
      2 C02         1.3410   -0.2370   -0.2150 ca        1 XL2      0.132900
      3 C03         2.0710    0.0660    0.9510 ca        1 XL2     -0.039000
      4 C04         1.3990    0.1540    2.1600 ca        1 XL2     -0.113100
      5 C05        -0.0230   -0.0580    2.2330 ca        1 XL2      0.175400
      6 C06        -0.7300   -0.3750    1.0500 ca        1 XL2     -0.163600
      7 S07         2.0000    0.4860    3.7030 ss        1 XL2      0.049900
      8 C08         0.3890    0.3480    4.3960 cc        1 XL2      0.616100
      9 N09        -0.5840    0.0660    3.4970 nd        1 XL2     -0.623100
     10 C10        -2.1550   -0.6840    1.1560 c         1 XL2      0.592700
     11 O11        -2.7600   -1.4380    1.8930 o         1 XL2     -0.366100
     12 N12        -3.0420    0.0910    0.1820 n4        1 XL2     -0.768400
     13 F13         1.9790   -0.3240   -1.4020 f         1 XL2     -0.096900
     14 N14         0.1190    0.5450    5.7340 nh        1 XL2     -0.666600
     15 C15         1.0890    0.5590    6.7480 ca        1 XL2      0.178600
     16 C16         2.3710    1.1270    6.5750 ca        1 XL2     -0.157000
     17 C17         3.2810    1.1380    7.6270 ca        1 XL2     -0.070000
     18 C18         2.9450    0.6060    8.8740 ca        1 XL2     -0.189300
     19 C19         1.6660    0.0640    9.0630 ca        1 XL2     -0.070000
     20 C20         0.7490    0.0350    8.0220 ca        1 XL2     -0.157000
     21 C21         3.9450    0.5470    9.9930 c3        1 XL2      0.197800
     22 C22         5.2300   -0.1270    9.5290 c3        1 XL2     -0.127100
     23 N23         4.1950    1.9450   10.5520 n4        1 XL2     -0.685400
     24 C24         2.9770    2.4670   11.2250 c3        1 XL2      0.081600
     25 C25         5.3490    1.9690   11.4870 c3        1 XL2      0.081600
     26 H1         -0.5660   -0.7380   -1.0980 ha        1 XL2      0.159000
     27 H2          3.1620    0.2210    0.8820 ha        1 XL2      0.188000
     28 H3         -4.0150   -0.2330    0.2540 hn        1 XL2      0.468133
     29 H4         -2.7120   -0.0390   -0.7780 hn        1 XL2      0.468133
     30 H5         -0.8220    0.3600    6.0350 hn        1 XL2      0.474800
     31 H6          2.6680    1.5990    5.6220 ha        1 XL2      0.164500
     32 H7          4.2830    1.5660    7.4550 ha        1 XL2      0.151000
     33 H8          1.3810   -0.3650   10.0380 ha        1 XL2      0.151000
     34 H9         -0.2470   -0.4080    8.1980 ha        1 XL2      0.164500
     35 H10         3.5170   -0.0500   10.8570 hx        1 XL2      0.109700
     36 H11         5.7950    0.5020    8.8000 hc        1 XL2      0.079700
     37 H12         4.9520   -1.0860    9.0220 hc        1 XL2      0.079700
     38 H13         5.8930   -0.3750   10.3940 hc        1 XL2      0.079700
     39 H15         2.0970    2.3640   10.5340 hx        1 XL2      0.106867
     40 H16         2.7870    1.8820   12.1640 hx        1 XL2      0.106867
     41 H17         3.1300    3.5490   11.4840 hx        1 XL2      0.106867
     42 H18         6.2990    1.7740   10.9200 hx        1 XL2      0.106867
     43 H19         5.2120    1.1820   12.2750 hx        1 XL2      0.106867
     44 H20         5.4100    2.9800   11.9750 hx        1 XL2      0.106867
     45 H123       -3.0040    1.0890    0.4100 hn        1 XL2      0.468133
     46 H231        4.4100    2.5580    9.7540 hn        1 XL2      0.444800
@<TRIPOS>BOND
     1    1    2 ar  
     2    1    6 ar  
     3    1   26 1   
     4    2    3 ar  
     5    2   13 1   
     6    3    4 ar  
     7    3   27 1   
     8    4    5 ar  
     9    4    7 1   
    10    5    6 ar  
    11    5    9 1   
    12    6   10 1   
    13    7    8 1   
    14    8    9 2   
    15    8   14 1   
    16   10   11 2   
    17   10   12 1   
    18   12   28 1   
    19   12   29 1   
    20   12   45 1   
    21   14   15 1   
    22   14   30 1   
    23   15   16 ar  
    24   15   20 ar  
    25   16   17 ar  
    26   16   31 1   
    27   17   18 ar  
    28   17   32 1   
    29   18   19 ar  
    30   18   21 1   
    31   19   20 ar  
    32   19   33 1   
    33   20   34 1   
    34   21   22 1   
    35   21   23 1   
    36   21   35 1   
    37   22   36 1   
    38   22   37 1   
    39   22   38 1   
    40   23   24 1   
    41   23   25 1   
    42   23   46 1   
    43   24   39 1   
    44   24   40 1   
    45   24   41 1   
    46   25   42 1   
    47   25   43 1   
    48   25   44 1   
@<TRIPOS>SUBSTRUCTURE
     1 XL2         1 TEMP              0 ****  ****    0 ROOT
