@<TRIPOS>MOLECULE
XL3
   12    11     1     0     0
SMALL
bcc


@<TRIPOS>ATOM
      1 CA          2.4650   -0.0840   -0.0000 c3        1 XL3     -0.092100
      2 CB          1.0690    0.4850   -0.0000 c3        1 XL3     -0.074400
      3 CC          0.0330   -0.6110   -0.0000 c3        1 XL3      0.011700
      4 SG         -1.5590    0.1690   -0.0000 sh        1 XL3     -0.382900
      5 HA          3.2160    0.7420    0.0000 hc        1 XL3      0.036367
      6 HAA         2.6340   -0.7160    0.9050 hc        1 XL3      0.036367
      7 HAB         2.6340   -0.7160   -0.9050 hc        1 XL3      0.036367
      8 HB          0.9270    1.1360    0.9040 hc        1 XL3      0.056700
      9 HBA         0.9270    1.1360   -0.9040 hc        1 XL3      0.056700
     10 HC          0.1490   -1.2580   -0.9030 h1        1 XL3      0.058700
     11 HCA         0.1490   -1.2580    0.9030 h1        1 XL3      0.058700
     12 HSG        -2.3200   -0.9100    0.0000 hs        1 XL3      0.199800
@<TRIPOS>BOND
     1    1    2 1   
     2    1    5 1   
     3    1    6 1   
     4    1    7 1   
     5    2    3 1   
     6    2    8 1   
     7    2    9 1   
     8    3    4 1   
     9    3   10 1   
    10    3   11 1   
    11    4   12 1   
@<TRIPOS>SUBSTRUCTURE
     1 XL3         1 TEMP              0 ****  ****    0 ROOT
