@<TRIPOS>MOLECULE
XL3
   12    11     1     0     0
SMALL
bcc


@<TRIPOS>ATOM
      1 CA         -1.4660    0.0000   -0.6870 c3        1 XL3     -0.092100
      2 CB          0.0470    0.0000   -0.6870 c3        1 XL3     -0.074400
      3 CC          0.5520    0.0000    0.7400 c3        1 XL3      0.011700
      4 SG          2.3250    0.0000    0.7400 sh        1 XL3     -0.382900
      5 HA         -1.7910    0.0000   -1.6070 hc        1 XL3      0.036367
      6 HAA        -1.7910    0.7970   -0.2270 hc        1 XL3      0.036367
      7 HAB        -1.7910   -0.7970   -0.2270 hc        1 XL3      0.036367
      8 HB          0.3730    0.7970   -1.1470 hc        1 XL3      0.056700
      9 HBA         0.3730   -0.7970   -1.1470 hc        1 XL3      0.056700
     10 HC          0.2260   -0.7970    1.2000 h1        1 XL3      0.058700
     11 HCA         0.2260    0.7970    1.2000 h1        1 XL3      0.058700
     12 HSG         2.7170   -0.0000    1.8500 hs        1 XL3      0.199800
@<TRIPOS>BOND
     1    1    2 1   
     2    1    5 1   
     3    1    6 1   
     4    1    7 1   
     5    2    3 1   
     6    2    8 1   
     7    2    9 1   
     8    3    4 1   
     9    3   10 1   
    10    3   11 1   
    11    4   12 1   
@<TRIPOS>SUBSTRUCTURE
     1 XL3         1 TEMP              0 ****  ****    0 ROOT
