@<TRIPOS>MOLECULE
XLC
   57    60     1     0     0
SMALL
bcc


@<TRIPOS>ATOM
      1 C1         -0.2300   -0.9100    0.0150 ca        1 XLC      0.068600
      2 C2          0.5910    0.1750    0.4110 ca        1 XLC     -0.161000
      3 C3          1.4010    0.0770    1.5340 ca        1 XLC     -0.098500
      4 C4          1.4130   -1.1010    2.2870 ca        1 XLC     -0.010600
      5 Cl1         2.4050   -1.2160    3.6620 cl        1 XLC     -0.094400
      6 C5          0.6100   -2.1790    1.9100 ca        1 XLC     -0.098500
      7 C6         -0.2040   -2.0920    0.7860 ca        1 XLC     -0.161000
      8 N7         -1.0190   -0.7600   -1.1370 ns        1 XLC     -0.463100
      9 C9         -2.0200   -1.6080   -1.5900 c         1 XLC      0.688700
     10 O10        -2.3490   -2.6500   -0.9890 o         1 XLC     -0.599100
     11 C11        -2.6920   -1.1830   -2.8560 ca        1 XLC     -0.198600
     12 C12        -4.1100   -1.1390   -2.9470 ca        1 XLC      0.131600
     13 C13        -4.6820   -0.7160   -4.1720 ca        1 XLC     -0.155000
     14 C14        -3.8850   -0.3760   -5.2540 ca        1 XLC     -0.076000
     15 C15        -2.4910   -0.4520   -5.1540 ca        1 XLC     -0.020600
     16 Cl2        -1.5190   -0.0530   -6.4880 cl        1 XLC     -0.084400
     17 C16        -1.8990   -0.8540   -3.9580 ca        1 XLC     -0.080000
     18 N17        -4.8890   -1.5200   -1.8500 ns        1 XLC     -0.466100
     19 C19        -6.2270   -1.1950   -1.6430 c         1 XLC      0.721700
     20 O20        -6.8600   -0.4340   -2.3990 o         1 XLC     -0.584100
     21 C21        -6.8460   -1.7750   -0.4360 cc        1 XLC     -0.223700
     22 S22        -7.8120   -0.8700    0.5840 ss        1 XLC      0.171200
     23 C23        -8.1330   -2.1330    1.5970 cc        1 XLC     -0.165100
     24 C24        -7.5290   -3.3110    1.1900 cd        1 XLC     -0.104300
     25 C25        -6.7680   -3.0980   -0.0070 cd        1 XLC      0.014400
     26 Cl3        -5.9150   -4.3140   -0.7860 cl        1 XLC     -0.035400
     27 C26        -7.5850   -4.6220    1.8930 c3        1 XLC      0.231100
     28 N27        -8.7700   -4.8000    2.7260 n3        1 XLC     -0.730600
     29 C29        -8.5960   -5.8840    3.6830 c3        1 XLC      0.165800
     30 C30        -9.8470   -6.1190    4.5510 c3        1 XLC      0.168800
     31 N31       -11.0640   -6.2690    3.7670 n3        1 XLC     -0.732600
     32 C33       -11.2360   -5.1900    2.8050 c3        1 XLC      0.168800
     33 C34        -9.9850   -4.9560    1.9380 c3        1 XLC      0.165800
     34 C35       -12.2330   -6.4650    4.5930 c3        1 XLC      0.157100
     35 HC2         0.5970    1.1120   -0.1670 ha        1 XLC      0.156500
     36 HC3         2.0330    0.9300    1.8270 ha        1 XLC      0.149000
     37 HC5         0.6170   -3.1090    2.5010 ha        1 XLC      0.149000
     38 HC6        -0.8280   -2.9590    0.5100 ha        1 XLC      0.156500
     39 HN7        -0.8710    0.0800   -1.6550 hn        1 XLC      0.324500
     40 HC13       -5.7800   -0.6510   -4.2760 ha        1 XLC      0.181000
     41 HC14       -4.3550   -0.0540   -6.1970 ha        1 XLC      0.155000
     42 HC16       -0.8010   -0.9260   -3.8880 ha        1 XLC      0.152000
     43 HN17       -4.4480   -2.1190   -1.1780 hn        1 XLC      0.356500
     44 HC23       -8.7550   -2.0460    2.4910 h4        1 XLC      0.196000
     45 H261       -6.6770   -4.6830    2.5650 h1        1 XLC      0.052700
     46 H262       -7.4930   -5.4490    1.1260 h1        1 XLC      0.052700
     47 H291       -8.3230   -6.8530    3.1710 h1        1 XLC      0.040200
     48 H292       -7.7500   -5.6050    4.3720 h1        1 XLC      0.040200
     49 H301       -9.6900   -7.0740    5.1270 h1        1 XLC      0.036700
     50 H302       -9.9320   -5.2750    5.2970 h1        1 XLC      0.036700
     51 H331      -12.0820   -5.4730    2.1190 h1        1 XLC      0.036700
     52 H332      -11.5120   -4.2190    3.3120 h1        1 XLC      0.036700
     53 H341       -9.8960   -5.8050    1.1980 h1        1 XLC      0.040200
     54 H342      -10.1360   -4.0040    1.3560 h1        1 XLC      0.040200
     55 H351      -12.4690   -5.5840    5.2500 h1        1 XLC      0.032700
     56 H352      -12.0670   -7.3620    5.2450 h1        1 XLC      0.032700
     57 H353      -13.1150   -6.6600    3.9280 h1        1 XLC      0.032700
@<TRIPOS>BOND
     1    1    2 ar  
     2    1    7 ar  
     3    1    8 1   
     4    2    3 ar  
     5    2   35 1   
     6    3    4 ar  
     7    3   36 1   
     8    4    5 1   
     9    4    6 ar  
    10    6    7 ar  
    11    6   37 1   
    12    7   38 1   
    13    8    9 1   
    14    8   39 1   
    15    9   10 2   
    16    9   11 1   
    17   11   12 ar  
    18   11   17 ar  
    19   12   13 ar  
    20   12   18 1   
    21   13   14 ar  
    22   13   40 1   
    23   14   15 ar  
    24   14   41 1   
    25   15   16 1   
    26   15   17 ar  
    27   17   42 1   
    28   18   19 1   
    29   18   43 1   
    30   19   20 2   
    31   19   21 1   
    32   21   22 1   
    33   21   25 2   
    34   22   23 1   
    35   23   24 2   
    36   23   44 1   
    37   24   25 1   
    38   24   27 1   
    39   25   26 1   
    40   27   28 1   
    41   27   45 1   
    42   27   46 1   
    43   28   29 1   
    44   28   33 1   
    45   29   30 1   
    46   29   47 1   
    47   29   48 1   
    48   30   31 1   
    49   30   49 1   
    50   30   50 1   
    51   31   32 1   
    52   31   34 1   
    53   32   33 1   
    54   32   51 1   
    55   32   52 1   
    56   33   53 1   
    57   33   54 1   
    58   34   55 1   
    59   34   56 1   
    60   34   57 1   
@<TRIPOS>SUBSTRUCTURE
     1 XLC         1 TEMP              0 ****  ****    0 ROOT
