@<TRIPOS>MOLECULE
XLC
   57    60     1     0     0
SMALL
bcc


@<TRIPOS>ATOM
      1 C1          1.2980   -1.4960    3.1950 ca        1 XLC      0.067600
      2 C2          1.3950   -2.7620    3.8260 ca        1 XLC     -0.161000
      3 C3          2.5790   -3.4870    3.7790 ca        1 XLC     -0.098500
      4 C4          3.6880   -2.9710    3.1030 ca        1 XLC     -0.010600
      5 CL1         5.1340   -3.8620    3.0460 cl        1 XLC     -0.093400
      6 C5          3.6090   -1.7250    2.4770 ca        1 XLC     -0.098500
      7 C6          2.4290   -0.9900    2.5200 ca        1 XLC     -0.161000
      8 N7          0.0810   -0.8010    3.2860 n         1 XLC     -0.463100
      9 C9         -0.2890    0.3450    2.5970 c         1 XLC      0.687700
     10 O10         0.4570    0.9130    1.7760 o         1 XLC     -0.598100
     11 C11        -1.6590    0.8580    2.9020 ca        1 XLC     -0.200600
     12 C12        -2.5700    1.1710    1.8550 ca        1 XLC      0.133600
     13 C13        -3.8540    1.6500    2.2180 ca        1 XLC     -0.159000
     14 C14        -4.2020    1.8260    3.5490 ca        1 XLC     -0.076000
     15 C15        -3.2830    1.5350    4.5630 ca        1 XLC     -0.022600
     16 CL2        -3.7100    1.7680    6.1900 cl        1 XLC     -0.084400
     17 C16        -2.0170    1.0530    4.2380 ca        1 XLC     -0.078000
     18 N17        -2.1760    1.0170    0.5230 n         1 XLC     -0.463100
     19 C19        -3.0120    0.9670   -0.5890 c         1 XLC      0.721700
     20 O20        -4.2500    1.0810   -0.5140 o         1 XLC     -0.580100
     21 C21        -2.3300    0.7910   -1.8860 cc        1 XLC     -0.222700
     22 S22        -2.6980    1.7300   -3.2180 ss        1 XLC      0.171200
     23 C23        -1.6250    0.9590   -4.2080 cc        1 XLC     -0.164100
     24 C24        -0.9460   -0.0620   -3.5660 cd        1 XLC     -0.102300
     25 C25        -1.3630   -0.1610   -2.1970 cd        1 XLC      0.014400
     26 CL3        -0.7640   -1.3100   -1.1300 cl        1 XLC     -0.042400
     27 C26         0.0460   -0.9870   -4.1820 c3        1 XLC      0.231100
     28 N27         0.7400   -0.4290   -5.3380 n3        1 XLC     -0.730600
     29 C29         1.3780   -1.4680   -6.1350 c3        1 XLC      0.165800
     30 C30         2.1500   -0.9030   -7.3420 c3        1 XLC      0.168800
     31 N31         3.0780    0.1570   -6.9790 n3        1 XLC     -0.732600
     32 C33         2.4440    1.1930   -6.1760 c3        1 XLC      0.168800
     33 C34         1.6730    0.6280   -4.9700 c3        1 XLC      0.165800
     34 C35         3.7800    0.6940   -8.1220 c3        1 XLC      0.157100
     35 HC2         0.5340   -3.1880    4.3630 ha        1 XLC      0.156500
     36 HC3         2.6370   -4.4680    4.2750 ha        1 XLC      0.149500
     37 HC5         4.4820   -1.3150    1.9450 ha        1 XLC      0.149500
     38 HC6         2.3940   -0.0080    2.0180 ha        1 XLC      0.156500
     39 HN7        -0.6080   -1.2140    3.8780 hn        1 XLC      0.325500
     40 HC13       -4.5970    1.8910    1.4380 ha        1 XLC      0.183000
     41 HC14       -5.2060    2.2020    3.8020 ha        1 XLC      0.155000
     42 HC16       -1.2900    0.8400    5.0390 ha        1 XLC      0.152000
     43 HN17       -1.1920    0.9160    0.3590 hn        1 XLC      0.354500
     44 HC23       -1.4750    1.2260   -5.2570 h4        1 XLC      0.197000
     45 H261       -0.5170   -1.9050   -4.5250 h1        1 XLC      0.052200
     46 H262        0.7770   -1.3190   -3.3830 h1        1 XLC      0.052200
     47 H291        0.5710   -2.1450   -6.5320 h1        1 XLC      0.040450
     48 H292        2.0840   -2.0950   -5.5150 h1        1 XLC      0.040450
     49 H301        1.4050   -0.5590   -8.1180 h1        1 XLC      0.036700
     50 H302        2.7500   -1.7450   -7.7900 h1        1 XLC      0.036700
     51 H331        3.2560    1.8660   -5.7810 h1        1 XLC      0.036700
     52 H332        1.7400    1.8260   -6.7930 h1        1 XLC      0.036700
     53 H341        1.0740    1.4660   -4.5150 h1        1 XLC      0.040450
     54 H342        2.4190    0.2760   -4.1980 h1        1 XLC      0.040450
     55 H351        4.5360    1.4400   -7.7630 h1        1 XLC      0.032700
     56 H352        4.3150   -0.1420   -8.6420 h1        1 XLC      0.032700
     57 H353        3.1030    1.2010   -8.8640 h1        1 XLC      0.032700
@<TRIPOS>BOND
     1    1    2 ar  
     2    1    7 ar  
     3    1    8 1   
     4    2    3 ar  
     5    2   35 1   
     6    3    4 ar  
     7    3   36 1   
     8    4    5 1   
     9    4    6 ar  
    10    6    7 ar  
    11    6   37 1   
    12    7   38 1   
    13    8    9 1   
    14    8   39 1   
    15    9   10 2   
    16    9   11 1   
    17   11   12 ar  
    18   11   17 ar  
    19   12   13 ar  
    20   12   18 1   
    21   13   14 ar  
    22   13   40 1   
    23   14   15 ar  
    24   14   41 1   
    25   15   16 1   
    26   15   17 ar  
    27   17   42 1   
    28   18   19 1   
    29   18   43 1   
    30   19   20 2   
    31   19   21 1   
    32   21   22 1   
    33   21   25 2   
    34   22   23 1   
    35   23   24 2   
    36   23   44 1   
    37   24   25 1   
    38   24   27 1   
    39   25   26 1   
    40   27   28 1   
    41   27   45 1   
    42   27   46 1   
    43   28   29 1   
    44   28   33 1   
    45   29   30 1   
    46   29   47 1   
    47   29   48 1   
    48   30   31 1   
    49   30   49 1   
    50   30   50 1   
    51   31   32 1   
    52   31   34 1   
    53   32   33 1   
    54   32   51 1   
    55   32   52 1   
    56   33   53 1   
    57   33   54 1   
    58   34   55 1   
    59   34   56 1   
    60   34   57 1   
@<TRIPOS>SUBSTRUCTURE
     1 XLC         1 TEMP              0 ****  ****    0 ROOT
