@<TRIPOS>MOLECULE
XLC
   59    62     1     0     0
SMALL
bcc


@<TRIPOS>ATOM
      1 C1          0.3360   -0.0320   -0.0600 ca        1 XLC     -0.099400
      2 C2          0.5080    1.2020    0.5960 ca        1 XLC     -0.091000
      3 C3          1.6320    1.9710    0.3150 ca        1 XLC     -0.103500
      4 C4          2.5870    1.5200   -0.6100 ca        1 XLC      0.071400
      5 CL1         3.9450    2.4520   -0.9390 cl        1 XLC      0.026600
      6 C5          2.4080    0.2860   -1.2570 ca        1 XLC     -0.103500
      7 C6          1.2890   -0.4920   -0.9890 ca        1 XLC     -0.091000
      8 N7         -0.8220   -0.8710    0.2700 n4        1 XLC     -0.515200
      9 C9         -2.1300   -0.2160   -0.0900 c         1 XLC      0.587700
     10 O10        -2.6500    0.4830    0.7720 o         1 XLC     -0.437100
     11 C11        -2.6890   -0.5170   -1.4230 ca        1 XLC     -0.141600
     12 C12        -4.0550   -0.8810   -1.5440 ca        1 XLC      0.012600
     13 C13        -4.5930   -1.1290   -2.8160 ca        1 XLC     -0.080000
     14 C14        -3.7950   -0.9980   -3.9540 ca        1 XLC     -0.058000
     15 C15        -2.4500   -0.6290   -3.8360 ca        1 XLC      0.050400
     16 CL2        -1.4890   -0.4640   -5.2020 cl        1 XLC      0.041600
     17 C16        -1.8990   -0.3950   -2.5640 ca        1 XLC     -0.078000
     18 N17        -4.9110   -1.0000   -0.3640 n4        1 XLC     -0.573200
     19 C19        -4.5600   -2.2130    0.4990 c         1 XLC      0.653700
     20 O20        -3.3580   -2.2710    0.7920 o         1 XLC     -0.572100
     21 C21        -5.6100   -3.0840    0.8750 cc        1 XLC     -0.349700
     22 S22        -5.3080   -4.4080    1.8800 ss        1 XLC      0.372200
     23 C23        -6.8350   -4.9150    1.9030 cc        1 XLC     -0.124100
     24 C24        -7.7090   -4.1120    1.1430 cd        1 XLC     -0.059300
     25 C25        -6.9960   -3.0530    0.5480 cd        1 XLC      0.017400
     26 CL3        -7.7430   -1.9050   -0.4300 cl        1 XLC     -0.009400
     27 C26        -9.1770   -4.3390    0.9620 c3        1 XLC      0.226100
     28 N27        -9.7010   -5.3700    1.8370 n3        1 XLC     -0.755600
     29 C29       -10.5300   -6.3450    1.1370 c3        1 XLC      0.169300
     30 C30       -11.1140   -7.4200    2.0740 c3        1 XLC      0.169800
     31 N31       -11.7850   -6.8460    3.2290 n3        1 XLC     -0.733600
     32 C33       -10.9270   -5.9190    3.9480 c3        1 XLC      0.169800
     33 C34       -10.3430   -4.8280    3.0290 c3        1 XLC      0.169300
     34 C35       -12.3830   -7.8430    4.0880 c3        1 XLC      0.154100
     35 HC2        -0.2310    1.5680    1.3300 ha        1 XLC      0.164500
     36 HC3         1.7720    2.9390    0.8310 ha        1 XLC      0.193000
     37 HC5         3.1630   -0.0750   -1.9790 ha        1 XLC      0.193000
     38 HC6         1.1790   -1.4650   -1.4960 ha        1 XLC      0.164500
     39 HN7        -0.7510   -1.7740   -0.2170 hn        1 XLC      0.477300
     40 HC13       -5.6510   -1.4230   -2.9440 ha        1 XLC      0.183000
     41 HC14       -4.2380   -1.1840   -4.9520 ha        1 XLC      0.206000
     42 HC16       -0.8390   -0.0900   -2.4770 ha        1 XLC      0.184000
     43 HN17       -5.9150   -1.0680   -0.6600 hn        1 XLC      0.483800
     44 HC23       -7.1960   -5.8020    2.4520 h4        1 XLC      0.248000
     45 H261       -9.3320   -4.6240   -0.1230 h1        1 XLC      0.069700
     46 H262       -9.6970   -3.3450    1.1200 h1        1 XLC      0.069700
     47 H291      -11.3810   -5.8430    0.5900 h1        1 XLC      0.041950
     48 H292       -9.8830   -6.8660    0.3770 h1        1 XLC      0.041950
     49 H301      -10.2860   -8.1270    2.3760 h1        1 XLC      0.046200
     50 H302      -11.8740   -8.0070    1.4860 h1        1 XLC      0.046200
     51 H331      -11.5500   -5.4050    4.7330 h1        1 XLC      0.046200
     52 H332      -10.0770   -6.4480    4.4700 h1        1 XLC      0.046200
     53 H341      -11.1680   -4.1050    2.7600 h1        1 XLC      0.041950
     54 H342       -9.5630   -4.2630    3.6120 h1        1 XLC      0.041950
     55 H351      -13.0970   -8.4590    3.4800 h1        1 XLC      0.044033
     56 H352      -11.6290   -8.5290    4.5630 h1        1 XLC      0.044033
     57 H353      -12.9570   -7.3220    4.8990 h1        1 XLC      0.044033
     58 H72        -0.8190   -1.0430    1.2890 hn        1 XLC      0.477300
     59 H172       -4.7960   -0.1530    0.2150 hn        1 XLC      0.483800
@<TRIPOS>BOND
     1    1    2 ar  
     2    1    7 ar  
     3    1    8 1   
     4    2    3 ar  
     5    2   35 1   
     6    3    4 ar  
     7    3   36 1   
     8    4    5 1   
     9    4    6 ar  
    10    6    7 ar  
    11    6   37 1   
    12    7   38 1   
    13    8    9 1   
    14    8   39 1   
    15    8   58 1   
    16    9   10 2   
    17    9   11 1   
    18   11   12 ar  
    19   11   17 ar  
    20   12   13 ar  
    21   12   18 1   
    22   13   14 ar  
    23   13   40 1   
    24   14   15 ar  
    25   14   41 1   
    26   15   16 1   
    27   15   17 ar  
    28   17   42 1   
    29   18   19 1   
    30   18   43 1   
    31   18   59 1   
    32   19   20 2   
    33   19   21 1   
    34   21   22 1   
    35   21   25 2   
    36   22   23 1   
    37   23   24 2   
    38   23   44 1   
    39   24   25 1   
    40   24   27 1   
    41   25   26 1   
    42   27   28 1   
    43   27   45 1   
    44   27   46 1   
    45   28   29 1   
    46   28   33 1   
    47   29   30 1   
    48   29   47 1   
    49   29   48 1   
    50   30   31 1   
    51   30   49 1   
    52   30   50 1   
    53   31   32 1   
    54   31   34 1   
    55   32   33 1   
    56   32   51 1   
    57   32   52 1   
    58   33   53 1   
    59   33   54 1   
    60   34   55 1   
    61   34   56 1   
    62   34   57 1   
@<TRIPOS>SUBSTRUCTURE
     1 XLC         1 TEMP              0 ****  ****    0 ROOT
