@<TRIPOS>MOLECULE
XLC
   57    60     1     0     0
SMALL
bcc


@<TRIPOS>ATOM
      1 C1         -1.6040    0.1000    0.5460 ca        1 XLC      0.067600
      2 C2         -0.2750    0.0720    1.0400 ca        1 XLC     -0.161000
      3 C3          0.0030    0.4570    2.3450 ca        1 XLC     -0.098500
      4 C4         -1.0320    0.8740    3.1870 ca        1 XLC     -0.010600
      5 CL1        -0.6880    1.3410    4.7840 cl        1 XLC     -0.094400
      6 C5         -2.3460    0.9070    2.7160 ca        1 XLC     -0.098500
      7 C6         -2.6350    0.5260    1.4090 ca        1 XLC     -0.161000
      8 N7         -1.8250   -0.2860   -0.7860 n         1 XLC     -0.463100
      9 C9         -3.0450   -0.5140   -1.4060 c         1 XLC      0.688700
     10 O10        -4.1370   -0.3970   -0.8160 o         1 XLC     -0.599100
     11 C11        -2.9650   -0.9220   -2.8420 ca        1 XLC     -0.198600
     12 C12        -3.6780   -2.0560   -3.3160 ca        1 XLC      0.131600
     13 C13        -3.5480   -2.3960   -4.6860 ca        1 XLC     -0.155000
     14 C14        -2.7680   -1.6320   -5.5400 ca        1 XLC     -0.076000
     15 C15        -2.0950   -0.5020   -5.0610 ca        1 XLC     -0.020600
     16 CL2        -1.1550    0.4400   -6.1150 cl        1 XLC     -0.084400
     17 C16        -2.1940   -0.1510   -3.7160 ca        1 XLC     -0.080000
     18 N17        -4.4840   -2.7870   -2.4390 n         1 XLC     -0.466100
     19 C19        -4.9350   -4.0900   -2.6320 c         1 XLC      0.721700
     20 O20        -4.5800   -4.7880   -3.6000 o         1 XLC     -0.583100
     21 C21        -5.8300   -4.6190   -1.5850 cc        1 XLC     -0.223700
     22 S22        -5.6460   -6.1570   -0.9570 ss        1 XLC      0.171200
     23 C23        -6.9470   -6.0310    0.0500 cc        1 XLC     -0.164100
     24 C24        -7.5900   -4.8090   -0.0580 cd        1 XLC     -0.104300
     25 C25        -6.9310   -3.9780   -1.0230 cd        1 XLC      0.014400
     26 CL3        -7.4590   -2.4370   -1.4260 cl        1 XLC     -0.035400
     27 C26        -8.8240   -4.3950    0.6660 c3        1 XLC      0.231100
     28 N27        -9.0150   -5.0670    1.9470 n3        1 XLC     -0.730600
     29 C29       -10.3890   -4.9450    2.4170 c3        1 XLC      0.165800
     30 C30       -10.6100   -5.6140    3.7870 c3        1 XLC      0.168800
     31 N31        -9.6460   -5.1880    4.7910 n3        1 XLC     -0.732600
     32 C33        -8.2740   -5.3020    4.3200 c3        1 XLC      0.168800
     33 C34        -8.0530   -4.6330    2.9510 c3        1 XLC      0.165800
     34 C35        -9.8500   -5.8380    6.0650 c3        1 XLC      0.157100
     35 HC2         0.5550   -0.2540    0.3950 ha        1 XLC      0.156500
     36 HC3         1.0410    0.4300    2.7120 ha        1 XLC      0.149500
     37 HC5        -3.1640    1.2370    3.3750 ha        1 XLC      0.149500
     38 HC6        -3.6820    0.5630    1.0620 ha        1 XLC      0.156500
     39 HN7        -1.0050   -0.4650   -1.3250 hn        1 XLC      0.324500
     40 HC13       -4.0720   -3.2800   -5.0880 ha        1 XLC      0.181000
     41 HC14       -2.6870   -1.9160   -6.6020 ha        1 XLC      0.155000
     42 HC16       -1.6740    0.7470   -3.3450 ha        1 XLC      0.152000
     43 HN17       -4.7990   -2.3040   -1.6180 hn        1 XLC      0.356500
     44 HC23       -7.2660   -6.8290    0.7250 h4        1 XLC      0.196000
     45 H261       -8.8120   -3.2690    0.7890 h1        1 XLC      0.052200
     46 H262       -9.7040   -4.6520    0.0040 h1        1 XLC      0.052200
     47 H291      -10.7130   -3.8660    2.4850 h1        1 XLC      0.040200
     48 H292      -11.0570   -5.4620    1.6730 h1        1 XLC      0.040200
     49 H301      -11.6350   -5.3210    4.1500 h1        1 XLC      0.036700
     50 H302      -10.6000   -6.7350    3.6480 h1        1 XLC      0.036700
     51 H331       -7.6110   -4.7830    5.0670 h1        1 XLC      0.036700
     52 H332       -7.9440   -6.3800    4.2550 h1        1 XLC      0.036700
     53 H341       -8.0710   -3.5130    3.0900 h1        1 XLC      0.040200
     54 H342       -7.0280   -4.9200    2.5830 h1        1 XLC      0.040200
     55 H351      -10.8990   -5.6380    6.4090 h1        1 XLC      0.032700
     56 H352       -9.6940   -6.9520    6.0290 h1        1 XLC      0.032700
     57 H353       -9.1360   -5.4020    6.8110 h1        1 XLC      0.032700
@<TRIPOS>BOND
     1    1    2 ar  
     2    1    7 ar  
     3    1    8 1   
     4    2    3 ar  
     5    2   35 1   
     6    3    4 ar  
     7    3   36 1   
     8    4    5 1   
     9    4    6 ar  
    10    6    7 ar  
    11    6   37 1   
    12    7   38 1   
    13    8    9 1   
    14    8   39 1   
    15    9   10 2   
    16    9   11 1   
    17   11   12 ar  
    18   11   17 ar  
    19   12   13 ar  
    20   12   18 1   
    21   13   14 ar  
    22   13   40 1   
    23   14   15 ar  
    24   14   41 1   
    25   15   16 1   
    26   15   17 ar  
    27   17   42 1   
    28   18   19 1   
    29   18   43 1   
    30   19   20 2   
    31   19   21 1   
    32   21   22 1   
    33   21   25 2   
    34   22   23 1   
    35   23   24 2   
    36   23   44 1   
    37   24   25 1   
    38   24   27 1   
    39   25   26 1   
    40   27   28 1   
    41   27   45 1   
    42   27   46 1   
    43   28   29 1   
    44   28   33 1   
    45   29   30 1   
    46   29   47 1   
    47   29   48 1   
    48   30   31 1   
    49   30   49 1   
    50   30   50 1   
    51   31   32 1   
    52   31   34 1   
    53   32   33 1   
    54   32   51 1   
    55   32   52 1   
    56   33   53 1   
    57   33   54 1   
    58   34   55 1   
    59   34   56 1   
    60   34   57 1   
@<TRIPOS>SUBSTRUCTURE
     1 XLC         1 TEMP              0 ****  ****    0 ROOT
