@<TRIPOS>MOLECULE
XLD
   57    60     1     0     0
SMALL
bcc


@<TRIPOS>ATOM
      1 C1          1.4940   -1.0580   -0.8550 ca        1 XLD      0.535200
      2 N2          2.7780   -1.2510   -1.2920 nb        1 XLD     -0.692000
      3 C3          3.7050   -1.5550   -0.3730 ca        1 XLD      0.421200
      4 C4          3.4380   -1.7010    1.0030 ca        1 XLD     -0.122900
      5 Cl1         4.6810   -2.0860    2.0780 cl        1 XLD     -0.054400
      6 C5          2.1230   -1.5200    1.4470 ca        1 XLD     -0.057000
      7 C6          1.1380   -1.1960    0.5210 ca        1 XLD     -0.257300
      8 N7          0.4700   -0.7470   -1.7760 ns        1 XLD     -0.557400
      9 C9          0.6190    0.0020   -2.9360 c         1 XLD      0.697700
     10 O10         1.6560    0.6350   -3.2010 o         1 XLD     -0.585100
     11 C11        -0.5670    0.0070   -3.8510 ca        1 XLD     -0.154600
     12 C12        -0.3900   -0.3020   -5.2230 ca        1 XLD      0.077600
     13 C13        -1.5360   -0.2670   -6.0630 ca        1 XLD      0.121100
     14 C14        -2.7990    0.0400   -5.5440 ca        1 XLD     -0.128000
     15 C15        -2.9370    0.3420   -4.1890 ca        1 XLD      0.024400
     16 Cl2        -4.4630    0.7320   -3.5630 cl        1 XLD     -0.056400
     17 C16        -1.8240    0.3330   -3.3440 ca        1 XLD     -0.108000
     18 O17        -1.3570   -0.4300   -7.4240 os        1 XLD     -0.332900
     19 C18        -2.1650   -1.4520   -8.0170 c3        1 XLD      0.114700
     20 N19         0.9000   -0.5640   -5.7180 ns        1 XLD     -0.456100
     21 C20         1.2330   -1.6400   -6.5220 c         1 XLD      0.716700
     22 O21         0.4150   -2.4690   -6.9530 o         1 XLD     -0.554100
     23 C22         2.6760   -1.7250   -6.8680 cc        1 XLD     -0.225700
     24 S23         3.2400   -1.7910   -8.4270 ss        1 XLD      0.351200
     25 C24         4.8130   -1.8520   -7.9940 cc        1 XLD     -0.204100
     26 C25         4.9830   -1.8460   -6.6080 cd        1 XLD     -0.232300
     27 C26         3.7170   -1.7810   -5.9430 cd        1 XLD      0.014400
     28 Cl3         3.5310   -1.7970   -4.2840 cl        1 XLD      0.020600
     29 C28         6.2820   -1.9570   -5.9270 c3        1 XLD      0.220100
     30 N29         6.9330   -0.5900   -5.7590 nx        1 XLD     -0.620400
     31 C31         6.3410    0.1830   -4.6320 c3        1 XLD      0.091100
     32 C32         8.3770   -0.7450   -5.5700 c2        1 XLD      0.608500
     33 N33         9.0270   -1.3340   -4.5980 n2        1 XLD     -0.526900
     34 C34        10.4520   -1.2020   -4.8940 c3        1 XLD      0.057800
     35 C35        10.5400   -0.4200   -6.2350 c3        1 XLD      0.102400
     36 O36         9.1480   -0.1690   -6.6000 os        1 XLD     -0.443400
     37 HC3         4.7290   -1.6980   -0.7650 h4        1 XLD      0.025100
     38 HC5         1.8690   -1.6270    2.5140 ha        1 XLD      0.166000
     39 HC6         0.1010   -1.0440    0.8530 ha        1 XLD      0.157000
     40 HN7        -0.4240   -1.1370   -1.5710 hn        1 XLD      0.338500
     41 H141       -3.6720    0.0640   -6.2150 ha        1 XLD      0.170000
     42 H161       -1.9430    0.6000   -2.2810 ha        1 XLD      0.157000
     43 H181       -1.8790   -1.4080   -9.0980 h1        1 XLD      0.053367
     44 H182       -1.9080   -2.4460   -7.5770 h1        1 XLD      0.053367
     45 H183       -3.2490   -1.2240   -7.8870 h1        1 XLD      0.053367
     46 H191        1.6360   -0.0290   -5.3020 hn        1 XLD      0.347500
     47 H241        5.6350   -1.9180   -8.7110 h4        1 XLD      0.190000
     48 H281        6.9940   -2.5870   -6.5370 hx        1 XLD      0.118700
     49 H282        6.1780   -2.4070   -4.8960 hx        1 XLD      0.118700
     50 H311        5.2380    0.2930   -4.8210 hx        1 XLD      0.114700
     51 H312        6.5020   -0.3680   -3.6670 hx        1 XLD      0.114700
     52 H313        6.8280    1.1930   -4.5790 hx        1 XLD      0.114700
     53 H341       10.9080   -2.2260   -4.9750 h1        1 XLD      0.115200
     54 H342       10.9530   -0.6510   -4.0540 h1        1 XLD      0.115200
     55 H351       10.9840   -1.0160   -7.0680 h1        1 XLD      0.098200
     56 H352       11.0280    0.5790   -6.1340 h1        1 XLD      0.098200
     57 H291        6.7990   -0.0580   -6.6360 hn        1 XLD      0.474800
@<TRIPOS>BOND
     1    1    2 ar  
     2    1    7 ar  
     3    1    8 1   
     4    2    3 ar  
     5    3    4 ar  
     6    3   37 1   
     7    4    5 1   
     8    4    6 ar  
     9    6    7 ar  
    10    6   38 1   
    11    7   39 1   
    12    8    9 1   
    13    8   40 1   
    14    9   10 2   
    15    9   11 1   
    16   11   12 ar  
    17   11   17 ar  
    18   12   13 ar  
    19   12   20 1   
    20   13   14 ar  
    21   13   18 1   
    22   14   15 ar  
    23   14   41 1   
    24   15   16 1   
    25   15   17 ar  
    26   17   42 1   
    27   18   19 1   
    28   19   43 1   
    29   19   44 1   
    30   19   45 1   
    31   20   21 1   
    32   20   46 1   
    33   21   22 2   
    34   21   23 1   
    35   23   24 1   
    36   23   27 2   
    37   24   25 1   
    38   25   26 2   
    39   25   47 1   
    40   26   27 1   
    41   26   29 1   
    42   27   28 1   
    43   29   30 1   
    44   29   48 1   
    45   29   49 1   
    46   30   31 1   
    47   30   32 1   
    48   30   57 1   
    49   31   50 1   
    50   31   51 1   
    51   31   52 1   
    52   32   33 2   
    53   32   36 1   
    54   33   34 1   
    55   34   35 1   
    56   34   53 1   
    57   34   54 1   
    58   35   36 1   
    59   35   55 1   
    60   35   56 1   
@<TRIPOS>SUBSTRUCTURE
     1 XLD         1 TEMP              0 ****  ****    0 ROOT
