@<TRIPOS>MOLECULE
XLD
   56    59     1     0     0
SMALL
bcc


@<TRIPOS>ATOM
      1 C1         -1.8410   -1.1650   -3.2280 ca        1 XLD      0.539200
      2 N2         -2.5020   -0.8880   -2.0590 nb        1 XLD     -0.671000
      3 C3         -3.7180   -1.4220   -1.8900 ca        1 XLD      0.436200
      4 C4         -4.3470   -2.2620   -2.8330 ca        1 XLD     -0.132900
      5 CL1        -5.8870   -2.8890   -2.5270 cl        1 XLD     -0.068400
      6 C5         -3.6660   -2.5620   -4.0170 ca        1 XLD     -0.063000
      7 C6         -2.4050   -2.0150   -4.2270 ca        1 XLD     -0.273300
      8 N7         -0.5590   -0.6260   -3.4620 n         1 XLD     -0.560400
      9 C9         -0.0550    0.5520   -2.9150 c         1 XLD      0.690700
     10 O10        -0.7630    1.3970   -2.3470 o         1 XLD     -0.548100
     11 C11         1.4180    0.7520   -3.0940 ca        1 XLD     -0.165600
     12 C12         2.2300    0.9850   -1.9560 ca        1 XLD      0.102600
     13 C13         3.6170    1.2220   -2.1810 ca        1 XLD      0.111100
     14 C14         4.1560    1.1810   -3.4700 ca        1 XLD     -0.131000
     15 C15         3.3250    0.9360   -4.5640 ca        1 XLD      0.012400
     16 CL2         3.9810    0.8970   -6.1300 cl        1 XLD     -0.081400
     17 C16         1.9570    0.7320   -4.3800 ca        1 XLD     -0.106000
     18 O17         4.4000    1.6090   -1.1090 os        1 XLD     -0.325900
     19 C18         5.5680    0.8100   -0.9040 c3        1 XLD      0.116700
     20 N19         1.6530    1.0210   -0.6790 n         1 XLD     -0.464100
     21 C20         2.1800    0.3730    0.4330 c         1 XLD      0.727700
     22 O21         3.2250   -0.3000    0.3760 o         1 XLD     -0.586100
     23 C22         1.4300    0.5450    1.6930 cc        1 XLD     -0.212700
     24 S23         2.1800    0.9540    3.1270 ss        1 XLD      0.182200
     25 C24         0.7850    0.9160    4.0080 cc        1 XLD     -0.185100
     26 C25        -0.3190    0.5780    3.2420 cd        1 XLD     -0.137300
     27 C26         0.0620    0.3600    1.8760 cd        1 XLD      0.005400
     28 CL3        -1.0210   -0.0770    0.6760 cl        1 XLD     -0.013400
     29 C28        -1.7220    0.4160    3.7160 c3        1 XLD      0.252100
     30 N29        -2.0900    1.0690    4.9580 nh        1 XLD     -0.675600
     31 C31        -2.0040    2.5130    4.9630 c3        1 XLD      0.177100
     32 C32        -1.6900    0.4300    6.1460 c2        1 XLD      0.747500
     33 N33        -1.3890    0.9380    7.3290 n2        1 XLD     -0.685900
     34 C34        -1.2110   -0.1660    8.2590 c3        1 XLD      0.083800
     35 C35        -1.4230   -1.4600    7.4310 c3        1 XLD      0.092400
     36 O36        -1.7080   -0.9950    6.0920 os        1 XLD     -0.457400
     37 HC3        -4.2180   -1.1640   -0.9370 h4        1 XLD      0.040100
     38 HC5        -4.1190   -3.2160   -4.7770 ha        1 XLD      0.155000
     39 HC6        -1.8570   -2.2350   -5.1540 ha        1 XLD      0.149000
     40 HN7         0.0590   -1.2050   -3.9850 hn        1 XLD      0.330500
     41 H141        5.2320    1.3650   -3.6140 ha        1 XLD      0.161000
     42 H161        1.3020    0.5680   -5.2500 ha        1 XLD      0.153000
     43 H181        6.0060    1.2340    0.0340 h1        1 XLD      0.049033
     44 H182        5.2870   -0.2610   -0.7610 h1        1 XLD      0.049033
     45 H183        6.2750    0.9280   -1.7600 h1        1 XLD      0.049033
     46 H191        0.7390    1.4230   -0.6170 hn        1 XLD      0.355500
     47 H241        0.7520    1.1290    5.0790 h4        1 XLD      0.189000
     48 H281       -2.4200    0.8290    2.9280 h1        1 XLD      0.087200
     49 H282       -1.9330   -0.6900    3.8240 h1        1 XLD      0.087200
     50 H311       -2.5000    2.8930    4.0310 h1        1 XLD      0.051700
     51 H312       -2.5500    2.9130    5.8580 h1        1 XLD      0.051700
     52 H313       -0.9440    2.8820    4.9890 h1        1 XLD      0.051700
     53 H341       -0.1810   -0.1260    8.7000 h1        1 XLD      0.065700
     54 H342       -1.9580   -0.0880    9.0910 h1        1 XLD      0.065700
     55 H351       -0.5090   -2.0970    7.3670 h1        1 XLD      0.062700
     56 H352       -2.3060   -2.0540    7.7660 h1        1 XLD      0.062700
@<TRIPOS>BOND
     1    1    2 ar  
     2    1    7 ar  
     3    1    8 1   
     4    2    3 ar  
     5    3    4 ar  
     6    3   37 1   
     7    4    5 1   
     8    4    6 ar  
     9    6    7 ar  
    10    6   38 1   
    11    7   39 1   
    12    8    9 1   
    13    8   40 1   
    14    9   10 2   
    15    9   11 1   
    16   11   12 ar  
    17   11   17 ar  
    18   12   13 ar  
    19   12   20 1   
    20   13   14 ar  
    21   13   18 1   
    22   14   15 ar  
    23   14   41 1   
    24   15   16 1   
    25   15   17 ar  
    26   17   42 1   
    27   18   19 1   
    28   19   43 1   
    29   19   44 1   
    30   19   45 1   
    31   20   21 1   
    32   20   46 1   
    33   21   22 2   
    34   21   23 1   
    35   23   24 1   
    36   23   27 2   
    37   24   25 1   
    38   25   26 2   
    39   25   47 1   
    40   26   27 1   
    41   26   29 1   
    42   27   28 1   
    43   29   30 1   
    44   29   48 1   
    45   29   49 1   
    46   30   31 1   
    47   30   32 1   
    48   31   50 1   
    49   31   51 1   
    50   31   52 1   
    51   32   33 2   
    52   32   36 1   
    53   33   34 1   
    54   34   35 1   
    55   34   53 1   
    56   34   54 1   
    57   35   36 1   
    58   35   55 1   
    59   35   56 1   
@<TRIPOS>SUBSTRUCTURE
     1 XLD         1 TEMP              0 ****  ****    0 ROOT
