@<TRIPOS>MOLECULE
XLD
   59    62     1     0     0
SMALL
bcc


@<TRIPOS>ATOM
      1 C1         -0.8800   -0.2320    0.4070 ca        1 XLD      0.402200
      2 N2         -1.4080    0.9260   -0.0900 nb        1 XLD     -0.671000
      3 C3         -2.0360    1.7280    0.7710 ca        1 XLD      0.440200
      4 C4         -2.1740    1.4310    2.1600 ca        1 XLD     -0.040900
      5 CL1        -2.9790    2.4940    3.1640 cl        1 XLD      0.065600
      6 C5         -1.6200    0.2400    2.6420 ca        1 XLD     -0.072000
      7 C6         -0.9520   -0.6190    1.7600 ca        1 XLD     -0.160300
      8 N7         -0.1920   -1.1240   -0.5640 n4        1 XLD     -0.636500
      9 C9          0.5000   -0.3560   -1.6620 c         1 XLD      0.603700
     10 O10         1.5920    0.1160   -1.3570 o         1 XLD     -0.462100
     11 C11        -0.1500   -0.2690   -2.9860 ca        1 XLD     -0.094600
     12 C12         0.6320    0.0060   -4.1490 ca        1 XLD     -0.066400
     13 C13        -0.0240    0.1060   -5.4040 ca        1 XLD      0.205100
     14 C14        -1.4200   -0.0530   -5.5010 ca        1 XLD     -0.140000
     15 C15        -2.1680   -0.3040   -4.3580 ca        1 XLD      0.085400
     16 CL2        -3.8320   -0.4820   -4.4510 cl        1 XLD      0.062600
     17 C16        -1.5280   -0.4070   -3.1020 ca        1 XLD     -0.089000
     18 O17         0.7790    0.3700   -6.4790 os        1 XLD     -0.359900
     19 C18         0.1380    0.6160   -7.7450 c3        1 XLD      0.111700
     20 N19         2.0770    0.2300   -4.0950 n4        1 XLD     -0.542200
     21 C20         2.9050   -1.0610   -4.0690 c         1 XLD      0.632700
     22 O21         2.4670   -1.9480   -3.3540 o         1 XLD     -0.416100
     23 C22         4.1060   -1.0440   -4.8730 cc        1 XLD     -0.329700
     24 S23         5.1950    0.2240   -5.0130 ss        1 XLD      0.300200
     25 C24         6.2340   -0.5990   -5.9600 cc        1 XLD     -0.121100
     26 C25         5.8120   -1.9020   -6.2260 cd        1 XLD     -0.204300
     27 C26         4.5650   -2.1730   -5.5830 cd        1 XLD      0.111400
     28 CL3         3.7630   -3.6260   -5.6920 cl        1 XLD      0.053600
     29 C28         6.5080   -2.8530   -7.1270 c3        1 XLD      0.193100
     30 N29         7.9500   -3.0990   -6.7350 n4        1 XLD     -0.612400
     31 C31         8.2990   -4.5510   -6.8150 c3        1 XLD      0.094100
     32 C32         8.8590   -2.3060   -7.5730 c2        1 XLD      0.579500
     33 N33         9.3810   -2.6030   -8.7350 n2        1 XLD     -0.488900
     34 C34        10.2630   -1.4990   -9.1060 c3        1 XLD      0.053800
     35 C35        10.1790   -0.4730   -7.9410 c3        1 XLD      0.106400
     36 O36         9.2180   -1.0630   -7.0040 os        1 XLD     -0.470400
     37 HC3        -2.4570    2.6630    0.3430 h4        1 XLD      0.082100
     38 HC5        -1.7030   -0.0320    3.7120 ha        1 XLD      0.208000
     39 HC6        -0.5120   -1.5560    2.1380 ha        1 XLD      0.180000
     40 HN7         0.5170   -1.6590   -0.0390 hn        1 XLD      0.479300
     41 H141       -1.9200    0.0280   -6.4860 ha        1 XLD      0.210000
     42 H161       -2.1770   -0.5610   -2.2200 ha        1 XLD      0.186000
     43 H181        1.0070    0.8690   -8.4090 h1        1 XLD      0.085367
     44 H182       -0.3780   -0.3100   -8.0970 h1        1 XLD      0.085367
     45 H183       -0.5660    1.4790   -7.6620 h1        1 XLD      0.085367
     46 H191        2.3410    0.7810   -4.9280 hn        1 XLD      0.482800
     47 H241        7.1730   -0.1700   -6.3460 h4        1 XLD      0.234000
     48 H281        6.4930   -2.4570   -8.1880 hx        1 XLD      0.134200
     49 H282        5.9810   -3.8550   -7.1230 hx        1 XLD      0.134200
     50 H311        8.1080   -4.9340   -7.8550 hx        1 XLD      0.123033
     51 H312        9.3880   -4.6810   -6.5670 hx        1 XLD      0.123033
     52 H313        7.6670   -5.1080   -6.0730 hx        1 XLD      0.123033
     53 H341        9.9210   -1.0620  -10.0840 h1        1 XLD      0.134700
     54 H342       11.3070   -1.8970   -9.2440 h1        1 XLD      0.134700
     55 H351       11.1390   -0.3580   -7.3820 h1        1 XLD      0.106200
     56 H352        9.7540    0.5120   -8.2470 h1        1 XLD      0.106200
     57 H72        -0.8830   -1.7740   -0.9610 hn        1 XLD      0.479300
     58 H192        2.2950    0.7810   -3.2480 hn        1 XLD      0.482800
     59 H291        8.0970   -2.7730   -5.7650 hn        1 XLD      0.474800
@<TRIPOS>BOND
     1    1    2 ar  
     2    1    7 ar  
     3    1    8 1   
     4    2    3 ar  
     5    3    4 ar  
     6    3   37 1   
     7    4    5 1   
     8    4    6 ar  
     9    6    7 ar  
    10    6   38 1   
    11    7   39 1   
    12    8    9 1   
    13    8   40 1   
    14    8   57 1   
    15    9   10 2   
    16    9   11 1   
    17   11   12 ar  
    18   11   17 ar  
    19   12   13 ar  
    20   12   20 1   
    21   13   14 ar  
    22   13   18 1   
    23   14   15 ar  
    24   14   41 1   
    25   15   16 1   
    26   15   17 ar  
    27   17   42 1   
    28   18   19 1   
    29   19   43 1   
    30   19   44 1   
    31   19   45 1   
    32   20   21 1   
    33   20   46 1   
    34   20   58 1   
    35   21   22 2   
    36   21   23 1   
    37   23   24 1   
    38   23   27 2   
    39   24   25 1   
    40   25   26 2   
    41   25   47 1   
    42   26   27 1   
    43   26   29 1   
    44   27   28 1   
    45   29   30 1   
    46   29   48 1   
    47   29   49 1   
    48   30   31 1   
    49   30   32 1   
    50   30   59 1   
    51   31   50 1   
    52   31   51 1   
    53   31   52 1   
    54   32   33 2   
    55   32   36 1   
    56   33   34 1   
    57   34   35 1   
    58   34   53 1   
    59   34   54 1   
    60   35   36 1   
    61   35   55 1   
    62   35   56 1   
@<TRIPOS>SUBSTRUCTURE
     1 XLD         1 TEMP              0 ****  ****    0 ROOT
