@<TRIPOS>MOLECULE
XLD
   57    60     1     0     0
SMALL
bcc


@<TRIPOS>ATOM
      1 C1          1.5090   -1.0790   -0.8490 ca        1 XLD      0.535200
      2 N2          2.7880   -1.2810   -1.2940 nb        1 XLD     -0.692000
      3 C3          3.7170   -1.6030   -0.3820 ca        1 XLD      0.421200
      4 C4          3.4540   -1.7590    0.9940 ca        1 XLD     -0.122900
      5 CL1         4.6980   -2.1680    2.0590 cl        1 XLD     -0.054400
      6 C5          2.1430   -1.5690    1.4460 ca        1 XLD     -0.057000
      7 C6          1.1580   -1.2260    0.5270 ca        1 XLD     -0.257300
      8 N7          0.4840   -0.7490   -1.7620 n         1 XLD     -0.557400
      9 C9          0.6350    0.0100   -2.9150 c         1 XLD      0.697700
     10 O10         1.6780    0.6360   -3.1790 o         1 XLD     -0.585100
     11 C11        -0.5550    0.0370   -3.8250 ca        1 XLD     -0.154600
     12 C12        -0.3860   -0.2590   -5.2010 ca        1 XLD      0.077600
     13 C13        -1.5360   -0.2040   -6.0360 ca        1 XLD      0.121100
     14 C14        -2.7930    0.1110   -5.5070 ca        1 XLD     -0.128000
     15 C15        -2.9230    0.4000   -4.1490 ca        1 XLD      0.024400
     16 CL2        -4.4420    0.7980   -3.5130 cl        1 XLD     -0.056400
     17 C16        -1.8060    0.3700   -3.3090 ca        1 XLD     -0.108000
     18 O17        -1.3640   -0.3540   -7.3990 os        1 XLD     -0.332900
     19 C18        -2.1850   -1.3610   -7.9990 c3        1 XLD      0.114700
     20 N19         0.8980   -0.5290   -5.7040 n         1 XLD     -0.456100
     21 C20         1.2170   -1.6000   -6.5210 c         1 XLD      0.716700
     22 O21         0.3880   -2.4160   -6.9570 o         1 XLD     -0.554100
     23 C22         2.6580   -1.6960   -6.8740 cc        1 XLD     -0.225700
     24 S23         3.2150   -1.7520   -8.4360 ss        1 XLD      0.351200
     25 C24         4.7880   -1.8330   -8.0110 cc        1 XLD     -0.204100
     26 C25         4.9650   -1.8430   -6.6260 cd        1 XLD     -0.232300
     27 C26         3.7020   -1.7720   -5.9550 cd        1 XLD      0.014400
     28 CL3         3.5230   -1.8040   -4.2940 cl        1 XLD      0.020600
     29 C28         6.2650   -1.9740   -5.9520 c3        1 XLD      0.220100
     30 N29         6.9310   -0.6150   -5.7720 n4        1 XLD     -0.620400
     31 C31         6.3510    0.1520   -4.6350 c3        1 XLD      0.091100
     32 C32         8.3740   -0.7870   -5.5900 c2        1 XLD      0.608500
     33 N33         9.0220   -1.3930   -4.6280 n2        1 XLD     -0.526900
     34 C34        10.4460   -1.2710   -4.9290 c3        1 XLD      0.057800
     35 C35        10.5370   -0.4760   -6.2620 c3        1 XLD      0.102400
     36 O36         9.1460   -0.2070   -6.6180 os        1 XLD     -0.443400
     37 HC3         4.7370   -1.7540   -0.7800 h4        1 XLD      0.025100
     38 HC5         1.8930   -1.6840    2.5130 ha        1 XLD      0.166000
     39 HC6         0.1230   -1.0670    0.8650 ha        1 XLD      0.157000
     40 HN7        -0.4130   -1.1310   -1.5570 hn        1 XLD      0.338500
     41 H141       -3.6690    0.1500   -6.1750 ha        1 XLD      0.170000
     42 H161       -1.9170    0.6270   -2.2430 ha        1 XLD      0.157000
     43 H181       -1.9370   -2.3620   -7.5710 h1        1 XLD      0.053367
     44 H182       -3.2670   -1.1230   -7.8620 h1        1 XLD      0.053367
     45 H183       -1.9030   -1.3090   -9.0810 h1        1 XLD      0.053367
     46 H191        1.6420   -0.0060   -5.2860 hn        1 XLD      0.347500
     47 H241        5.6070   -1.9000   -8.7320 h4        1 XLD      0.190000
     48 H281        6.1610   -2.4340   -4.9250 hx        1 XLD      0.118700
     49 H282        6.9680   -2.6050   -6.5720 hx        1 XLD      0.118700
     50 H311        6.5110   -0.4110   -3.6760 hx        1 XLD      0.114700
     51 H312        6.8480    1.1560   -4.5730 hx        1 XLD      0.114700
     52 H313        5.2480    0.2750   -4.8180 hx        1 XLD      0.114700
     53 H341       10.8920   -2.2980   -5.0220 h1        1 XLD      0.115200
     54 H342       10.9570   -0.7340   -4.0850 h1        1 XLD      0.115200
     55 H351       11.0340    0.5170   -6.1520 h1        1 XLD      0.098200
     56 H352       10.9720   -1.0670   -7.1030 h1        1 XLD      0.098200
     57 H291        6.7980   -0.0730   -6.6430 hn        1 XLD      0.474800
@<TRIPOS>BOND
     1    1    2 ar  
     2    1    7 ar  
     3    1    8 1   
     4    2    3 ar  
     5    3    4 ar  
     6    3   37 1   
     7    4    5 1   
     8    4    6 ar  
     9    6    7 ar  
    10    6   38 1   
    11    7   39 1   
    12    8    9 1   
    13    8   40 1   
    14    9   10 2   
    15    9   11 1   
    16   11   12 ar  
    17   11   17 ar  
    18   12   13 ar  
    19   12   20 1   
    20   13   14 ar  
    21   13   18 1   
    22   14   15 ar  
    23   14   41 1   
    24   15   16 1   
    25   15   17 ar  
    26   17   42 1   
    27   18   19 1   
    28   19   43 1   
    29   19   44 1   
    30   19   45 1   
    31   20   21 1   
    32   20   46 1   
    33   21   22 2   
    34   21   23 1   
    35   23   24 1   
    36   23   27 2   
    37   24   25 1   
    38   25   26 2   
    39   25   47 1   
    40   26   27 1   
    41   26   29 1   
    42   27   28 1   
    43   29   30 1   
    44   29   48 1   
    45   29   49 1   
    46   30   31 1   
    47   30   32 1   
    48   30   57 1   
    49   31   50 1   
    50   31   51 1   
    51   31   52 1   
    52   32   33 2   
    53   32   36 1   
    54   33   34 1   
    55   34   35 1   
    56   34   53 1   
    57   34   54 1   
    58   35   36 1   
    59   35   55 1   
    60   35   56 1   
@<TRIPOS>SUBSTRUCTURE
     1 XLD         1 TEMP              0 ****  ****    0 ROOT
