@<TRIPOS>MOLECULE
XLF
   20    20     1     0     0
SMALL
bcc


@<TRIPOS>ATOM
      1 O10         2.6630    0.7710    0.6270 oh        1 XLF     -0.596800
      2 C4          1.7600    0.0650   -0.2020 c3        1 XLF      0.071100
      3 C5          0.9710    0.9910   -1.1410 c3        1 XLF      0.109400
      4 O1         -0.4180    0.8820   -0.8230 os        1 XLF     -0.458600
      5 C3          0.6990   -0.5760    0.7260 c3        1 XLF      0.142100
      6 O9          0.8380   -1.9740    0.8140 oh        1 XLF     -0.559800
      7 C2         -0.6490   -0.2320    0.0510 c3        1 XLF      0.301600
      8 O8         -1.0400   -1.2670   -0.8070 oh        1 XLF     -0.575800
      9 C6         -1.7520    0.1740    1.0410 c3        1 XLF      0.114400
     10 O7         -2.9340    0.5020    0.3440 oh        1 XLF     -0.596800
     11 HO10        3.2910    1.2170    0.0450 ho        1 XLF      0.409000
     12 H4          2.3070   -0.7270   -0.7810 h1        1 XLF      0.067700
     13 H5          1.2450    2.0670   -0.9980 h1        1 XLF      0.058200
     14 H5A         1.0980    0.6920   -2.2130 h1        1 XLF      0.058200
     15 H3          0.7460   -0.1070    1.7470 h1        1 XLF      0.069700
     16 HO9         1.6870   -2.1320    1.2480 ho        1 XLF      0.408000
     17 HO8        -1.9370   -1.0580   -1.1100 ho        1 XLF      0.424000
     18 H6         -2.0180   -0.7070    1.6830 h1        1 XLF      0.068200
     19 H6A        -1.4030    1.0340    1.6680 h1        1 XLF      0.068200
     20 HO7        -2.7360    1.2720   -0.2060 ho        1 XLF      0.416000
@<TRIPOS>BOND
     1    1    2 1   
     2    1   11 1   
     3    2    3 1   
     4    2    5 1   
     5    2   12 1   
     6    3    4 1   
     7    3   13 1   
     8    3   14 1   
     9    4    7 1   
    10    5    6 1   
    11    5    7 1   
    12    5   15 1   
    13    6   16 1   
    14    7    8 1   
    15    7    9 1   
    16    8   17 1   
    17    9   10 1   
    18    9   18 1   
    19    9   19 1   
    20   10   20 1   
@<TRIPOS>SUBSTRUCTURE
     1 XLF         1 TEMP              0 ****  ****    0 ROOT
