@<TRIPOS>MOLECULE
XLF
   20    20     1     0     0
SMALL
bcc


@<TRIPOS>ATOM
      1 O10        -2.4900   -1.2650   -0.2990 oh        1 XLF     -0.589800
      2 C4         -0.9940   -1.2650   -0.2990 c3        1 XLF      0.075100
      3 C5         -0.5480   -1.2650    0.9100 c3        1 XLF      0.106400
      4 O1         -0.3510    0.2670    1.3170 os        1 XLF     -0.452600
      5 C3         -0.4610    0.0410   -0.9210 c3        1 XLF      0.135100
      6 O9          0.5300   -0.2300   -1.8010 oh        1 XLF     -0.592800
      7 C2          0.0820    0.8670    0.2570 c3        1 XLF      0.301600
      8 O8         -0.4170    2.1860    0.2020 oh        1 XLF     -0.600800
      9 C6          1.6310    0.8750    0.2390 c3        1 XLF      0.124400
     10 O7          2.1130    1.5140    1.4030 oh        1 XLF     -0.600800
     11 HO10       -2.7860   -2.0010   -0.6980 ho        1 XLF      0.409000
     12 H4         -0.6530   -2.0390   -0.7880 h1        1 XLF      0.060700
     13 H5          0.3060   -1.7360    0.9520 h1        1 XLF      0.059200
     14 H5A        -1.1950   -1.6890    1.5060 h1        1 XLF      0.059200
     15 H3         -1.1840    0.5230   -1.3660 h1        1 XLF      0.097700
     16 HO9         0.2290   -0.1220   -2.6290 ho        1 XLF      0.418000
     17 HO8        -0.7110    2.4250    1.0050 ho        1 XLF      0.431000
     18 H6          1.9450    1.3560   -0.5500 h1        1 XLF      0.074200
     19 H6A         1.9610   -0.0440    0.2120 h1        1 XLF      0.074200
     20 HO7         2.9940    1.6040    1.3480 ho        1 XLF      0.413000
@<TRIPOS>BOND
     1    1    2 1   
     2    1   11 1   
     3    2    3 1   
     4    2    5 1   
     5    2   12 1   
     6    3    4 1   
     7    3   13 1   
     8    3   14 1   
     9    4    7 1   
    10    5    6 1   
    11    5    7 1   
    12    5   15 1   
    13    6   16 1   
    14    7    8 1   
    15    7    9 1   
    16    8   17 1   
    17    9   10 1   
    18    9   18 1   
    19    9   19 1   
    20   10   20 1   
@<TRIPOS>SUBSTRUCTURE
     1 XLF         1 TEMP              0 ****  ****    0 ROOT
