@<TRIPOS>MOLECULE
XLI
   89    88     1     0     0
SMALL
bcc


@<TRIPOS>ATOM
      1 C           6.7450   -1.6760    1.0470 c         1 XLI      0.657100
      2 O           6.0900   -2.7330    1.0280 o         1 XLI     -0.587100
      3 CH3         7.8960   -1.4940    2.0090 c3        1 XLI     -0.179100
      4 N           6.5230   -0.6280    0.1470 n         1 XLI     -0.530900
      5 CA          5.3110   -0.4520   -0.6140 c3        1 XLI      0.045700
      6 C1          4.1940    0.2410    0.2180 c         1 XLI      0.617100
      7 O1          4.2820    0.3870    1.4530 o         1 XLI     -0.610100
      8 CB          4.7290   -1.7190   -1.2530 c3        1 XLI     -0.079400
      9 CG          5.7060   -2.4420   -2.1690 c3        1 XLI     -0.061700
     10 CD1         5.0580   -3.7150   -2.6810 c3        1 XLI     -0.092600
     11 CD2         6.1430   -1.5760   -3.3310 c3        1 XLI     -0.092600
     12 N1          3.1340    0.7850   -0.4900 n         1 XLI     -0.545900
     13 CA1         1.9520    1.2700    0.1780 c3        1 XLI      0.029700
     14 C2          0.7430    0.3290   -0.0800 c         1 XLI      0.630100
     15 O2          0.5830   -0.2020   -1.1970 o         1 XLI     -0.610100
     16 CB1         1.5150    2.6660   -0.3010 c3        1 XLI     -0.073400
     17 CG1         2.5270    3.7190    0.0620 c3        1 XLI     -0.010300
     18 SD          1.7740    5.2940   -0.2420 ss        1 XLI     -0.301200
     19 CE          3.0630    6.4040    0.1760 c3        1 XLI     -0.040000
     20 N2         -0.1610    0.1800    0.9490 n         1 XLI     -0.554900
     21 CA2        -1.2620   -0.7590    0.8850 c3        1 XLI      0.062700
     22 C3         -2.6300   -0.0680    1.1490 c3        1 XLI      0.126100
     23 O3         -2.6360    0.6380    2.3780 oh        1 XLI     -0.598800
     24 CB2        -1.1000   -1.9260    1.8770 c3        1 XLI     -0.097400
     25 CG2        -1.8040   -3.1850    1.3890 c3        1 XLI     -0.068700
     26 CD11       -0.9740   -3.9090    0.3490 c3        1 XLI     -0.092100
     27 CD21       -2.0880   -4.1040    2.5610 c3        1 XLI     -0.092100
     28 CM         -3.0320    0.8180   -0.0240 c3        1 XLI     -0.101400
     29 CA3        -4.4400    1.3690    0.1460 c3        1 XLI     -0.136700
     30 CB3        -4.6880    2.4950   -0.8350 c3        1 XLI     -0.093100
     31 C4         -5.4790    0.2660   -0.0590 c         1 XLI      0.659100
     32 O4         -5.1810   -0.8440   -0.5420 o         1 XLI     -0.614100
     33 C11        -7.8660   -0.3560    0.1360 c3        1 XLI      0.084000
     34 N3         -6.7670    0.5420    0.3580 n         1 XLI     -0.566900
     35 C21        -8.9010    0.1460   -0.8740 c3        1 XLI     -0.105400
     36 C31       -10.0350   -0.8500   -0.9910 c3        1 XLI     -0.078400
     37 C41       -11.0730   -0.3860   -1.9790 c3        1 XLI     -0.093100
     38 H1          8.0540   -2.4510    2.5640 hc        1 XLI      0.068033
     39 H2          8.8350   -1.2300    1.4660 hc        1 XLI      0.068033
     40 H3          7.6540   -0.6870    2.7420 hc        1 XLI      0.068033
     41 H           6.9300    0.2410    0.4230 hn        1 XLI      0.296500
     42 HA          5.5840    0.2660   -1.4520 h1        1 XLI      0.071700
     43 HB2         4.3970   -2.4270   -0.4460 hc        1 XLI      0.068200
     44 HB3         3.8260   -1.4310   -1.8530 hc        1 XLI      0.068200
     45 HG          6.6140   -2.7300   -1.5670 hc        1 XLI      0.065700
     46 HD11        4.1480   -3.4790   -3.2830 hc        1 XLI      0.034533
     47 HD12        5.7740   -4.2770   -3.3270 hc        1 XLI      0.034533
     48 HD13        4.7610   -4.3690   -1.8260 hc        1 XLI      0.034533
     49 HD21        6.7580   -2.1750   -4.0460 hc        1 XLI      0.034533
     50 HD22        5.2580   -1.1750   -3.8810 hc        1 XLI      0.034533
     51 HD23        6.7610   -0.7170   -2.9750 hc        1 XLI      0.034533
     52 H4          3.0010    0.5080   -1.4390 hn        1 XLI      0.324500
     53 HA1         2.1790    1.3250    1.2870 h1        1 XLI      0.098700
     54 HB21        1.3480    2.6530   -1.4110 hc        1 XLI      0.069200
     55 HB31        0.5310    2.9010    0.1870 hc        1 XLI      0.069200
     56 HG2         2.8210    3.6350    1.1370 h1        1 XLI      0.066200
     57 HG3         3.4550    3.6090   -0.5500 h1        1 XLI      0.066200
     58 HE1         3.3710    6.3020    1.2400 h1        1 XLI      0.063700
     59 HE2         3.9590    6.2620   -0.4680 h1        1 XLI      0.063700
     60 HE3         2.6560    7.4290    0.0110 h1        1 XLI      0.063700
     61 H5          0.1010    0.4820    1.8580 hn        1 XLI      0.309500
     62 HA2        -1.2990   -1.1770   -0.1680 h1        1 XLI      0.100700
     63 HB22       -0.0150   -2.1620    2.0370 hc        1 XLI      0.053700
     64 HB32       -1.5260   -1.6130    2.8680 hc        1 XLI      0.053700
     65 HG1        -2.7880   -2.8970    0.9200 hc        1 XLI      0.058700
     66 HD14       -0.0090   -4.2590    0.7910 hc        1 XLI      0.035867
     67 HD15       -1.5300   -4.7980   -0.0340 hc        1 XLI      0.035867
     68 HD16       -0.7440   -3.2370   -0.5120 hc        1 XLI      0.035867
     69 HD24       -2.7640   -3.6030    3.2950 hc        1 XLI      0.035867
     70 HD25       -2.5810   -5.0400    2.2050 hc        1 XLI      0.035867
     71 HD26       -1.1400   -4.3790    3.0820 hc        1 XLI      0.035867
     72 H51        -3.4060   -0.8770    1.2940 h1        1 XLI      0.101700
     73 H52        -2.1410    1.4560    2.2510 ho        1 XLI      0.394000
     74 HM2        -2.3140    1.6750   -0.1160 hc        1 XLI      0.066700
     75 HM3        -2.9780    0.2140   -0.9680 hc        1 XLI      0.066700
     76 HA3        -4.5350    1.7600    1.2000 hc        1 XLI      0.076700
     77 HB1        -5.6990    2.9440   -0.6820 hc        1 XLI      0.043367
     78 HB23       -3.9240    3.2990   -0.6950 hc        1 XLI      0.043367
     79 HB33       -4.6180    2.1220   -1.8860 hc        1 XLI      0.043367
     80 H11        -7.4600   -1.3480   -0.2160 h1        1 XLI      0.062200
     81 H12        -8.3830   -0.5220    1.1260 h1        1 XLI      0.062200
     82 HN2        -6.9900    1.4690    0.6300 hn        1 XLI      0.304500
     83 H21        -9.3070    1.1400   -0.5520 hc        1 XLI      0.043700
     84 H22        -8.4210    0.2880   -1.8770 hc        1 XLI      0.043700
     85 H31        -9.6260   -1.8450   -1.3120 hc        1 XLI      0.042200
     86 H32       -10.5110   -0.9980    0.0150 hc        1 XLI      0.042200
     87 H41       -11.9000   -1.1340   -2.0520 hc        1 XLI      0.034033
     88 H42       -11.5100    0.5920   -1.6630 hc        1 XLI      0.034033
     89 H43       -10.6230   -0.2580   -2.9930 hc        1 XLI      0.034033
@<TRIPOS>BOND
     1    1    2 2   
     2    1    3 1   
     3    1    4 1   
     4    3   38 1   
     5    3   39 1   
     6    3   40 1   
     7    4    5 1   
     8    4   41 1   
     9    5    6 1   
    10    5    8 1   
    11    5   42 1   
    12    6    7 2   
    13    6   12 1   
    14    8    9 1   
    15    8   43 1   
    16    8   44 1   
    17    9   10 1   
    18    9   11 1   
    19    9   45 1   
    20   10   46 1   
    21   10   47 1   
    22   10   48 1   
    23   11   49 1   
    24   11   50 1   
    25   11   51 1   
    26   12   13 1   
    27   12   52 1   
    28   13   14 1   
    29   13   16 1   
    30   13   53 1   
    31   14   15 2   
    32   14   20 1   
    33   16   17 1   
    34   16   54 1   
    35   16   55 1   
    36   17   18 1   
    37   17   56 1   
    38   17   57 1   
    39   18   19 1   
    40   19   58 1   
    41   19   59 1   
    42   19   60 1   
    43   20   21 1   
    44   20   61 1   
    45   21   22 1   
    46   21   24 1   
    47   21   62 1   
    48   22   23 1   
    49   22   28 1   
    50   22   72 1   
    51   23   73 1   
    52   24   25 1   
    53   24   63 1   
    54   24   64 1   
    55   25   26 1   
    56   25   27 1   
    57   25   65 1   
    58   26   66 1   
    59   26   67 1   
    60   26   68 1   
    61   27   69 1   
    62   27   70 1   
    63   27   71 1   
    64   28   29 1   
    65   28   74 1   
    66   28   75 1   
    67   29   30 1   
    68   29   31 1   
    69   29   76 1   
    70   30   77 1   
    71   30   78 1   
    72   30   79 1   
    73   31   32 2   
    74   31   34 1   
    75   33   34 1   
    76   33   35 1   
    77   33   80 1   
    78   33   81 1   
    79   34   82 1   
    80   35   36 1   
    81   35   83 1   
    82   35   84 1   
    83   36   37 1   
    84   36   85 1   
    85   36   86 1   
    86   37   87 1   
    87   37   88 1   
    88   37   89 1   
@<TRIPOS>SUBSTRUCTURE
     1 XLI         1 TEMP              0 ****  ****    0 ROOT
