@<TRIPOS>MOLECULE
XLM
   44    42     1     0     0
SMALL
bcc


@<TRIPOS>ATOM
      1 C1         -0.4740   -0.2430   -0.2140 c2        1 XLM     -0.069900
      2 C2          0.8180    0.0520    0.0370 c2        1 XLM     -0.026100
      3 C3          1.4280   -0.1400    1.3940 c3        1 XLM      0.191300
      4 C4          1.1130    1.0760    2.3010 c3        1 XLM     -0.012900
      5 C5          0.0790    0.7310    3.3520 c         1 XLM      0.565900
      6 O2          1.7000    0.5990   -0.8690 oh        1 XLM     -0.509100
      7 O3          2.8240   -0.3390    1.3500 oh        1 XLM     -0.592800
      8 O4          2.2780    1.5840    2.9170 oh        1 XLM     -0.583800
      9 O5         -0.9940    0.1870    3.0790 o         1 XLM     -0.571100
     10 C1'        -3.7990   -2.3170   -1.0770 c         1 XLM      0.535900
     11 C2'        -2.5080   -1.8810   -1.7420 c3        1 XLM      0.001100
     12 C3'        -2.3620   -0.3520   -1.6270 c3        1 XLM      0.092100
     13 C4'        -2.8220    0.4160   -2.8840 c3        1 XLM      0.182100
     14 C5'        -4.3190    0.3600   -3.0190 cx        1 XLM     -0.199700
     15 C6'        -5.0230    1.3530   -3.9210 cx        1 XLM      0.130100
     16 O1'        -3.0070   -0.8700    1.7040 oh        1 XLM     -0.823000
     17 O2'        -2.3940   -2.3440   -3.0700 oh        1 XLM     -0.575800
     18 O3'        -0.9680   -0.0140   -1.4870 os        1 XLM     -0.351900
     19 O4'        -2.4330    1.7790   -2.7840 oh        1 XLM     -0.598800
     20 O5'        -4.7310   -2.7870   -1.7290 o         1 XLM     -0.527100
     21 O6'        -6.0570    0.9350   -4.7490 oh        1 XLM     -0.559800
     22 H1         -1.1610   -0.6540    0.5440 h4        1 XLM      0.180000
     23 H2          3.0830    2.4130    0.0080 ha        1 XLM      0.002500
     24 H3          2.7230    2.3670    0.5810 ha        1 XLM      0.002500
     25 H4          1.0220   -1.0840    1.8600 h1        1 XLM      0.088700
     26 H5C1        0.7230    1.9390    1.6850 h1        1 XLM      0.116700
     27 H5C2        0.3490    1.0230    4.3910 h4        1 XLM      0.021200
     28 HA          1.3350    0.4630   -1.7560 ho        1 XLM      0.437000
     29 HB          3.2070    0.3350    0.7680 ho        1 XLM      0.438000
     30 HC          2.8350    0.8340    3.1750 ho        1 XLM      0.422000
     31 H1'        -2.5870   -1.3030    2.4540 ho        1 XLM      0.413000
     32 H2'        -3.8360   -2.1740    0.0260 h4        1 XLM      0.047200
     33 H3'        -1.6390   -2.3660   -1.2040 h1        1 XLM      0.104700
     34 H4'        -2.9240    0.0150   -0.7220 h1        1 XLM      0.078700
     35 H5'        -2.3380   -0.0470   -3.7910 h1        1 XLM      0.068700
     36 H6'1       -4.6930   -0.6850   -2.9920 hc        1 XLM      0.089700
     37 H6'2       -4.4360    2.1210   -4.4660 h1        1 XLM      0.127700
     38 H7'1       -6.1590    1.1350   -1.9760 hc        1 XLM      0.083700
     39 H7'2       -2.9680    0.0640    1.9340 ho        1 XLM      0.413000
     40 H7'3       -4.7180    2.2730   -1.8920 hc        1 XLM      0.083700
     41 HD         -3.2690   -2.2810   -3.4820 ho        1 XLM      0.417000
     42 HE         -1.4690    1.7890   -2.7090 ho        1 XLM      0.419000
     43 H6'        -6.5970    0.2980   -4.2610 ho        1 XLM      0.404000
     44 C7'        -5.1980    1.4350   -2.4300 cx        1 XLM     -0.156400
@<TRIPOS>BOND
     1    1    2 2   
     2    1   18 1   
     3    1   22 1   
     4    2    3 1   
     5    2    6 1   
     6    3    4 1   
     7    3    7 1   
     8    3   25 1   
     9    4    5 1   
    10    4    8 1   
    11    4   26 1   
    12    5    9 2   
    13    5   27 1   
    14    6   28 1   
    15    7   29 1   
    16    8   30 1   
    17   10   11 1   
    18   10   20 2   
    19   10   32 1   
    20   11   12 1   
    21   11   17 1   
    22   11   33 1   
    23   12   13 1   
    24   12   18 1   
    25   12   34 1   
    26   13   14 1   
    27   13   19 1   
    28   13   35 1   
    29   14   15 1   
    30   14   36 1   
    31   14   44 1   
    32   15   21 1   
    33   15   37 1   
    34   15   44 1   
    35   16   31 1   
    36   16   39 1   
    37   17   41 1   
    38   19   42 1   
    39   21   43 1   
    40   23   24 1   
    41   38   44 1   
    42   40   44 1   
@<TRIPOS>SUBSTRUCTURE
     1 XLM         1 TEMP              0 ****  ****    0 ROOT
