@<TRIPOS>MOLECULE
XLM
   44    41     1     0     0
SMALL
bcc


@<TRIPOS>ATOM
      1 C1         -2.2310   -1.1750    1.0380 c3        1 XLM      0.098000
      2 C2          2.1110    0.2360   -0.0330 c2        1 XLM     -0.028000
      3 C3          3.1080    0.8690    0.6200 c2        1 XLM     -0.165000
      4 C4          3.0160    1.3900    2.0140 c3        1 XLM      0.013000
      5 C5         -3.1960    0.8970    0.4030 c2        1 XLM     -0.019000
      6 O2          2.2020   -0.2240   -1.3180 oh        1 XLM     -0.264000
      7 O3          4.3240    1.0230   -0.0290 oh        1 XLM     -0.283000
      8 O4          4.2930    1.7700    2.4940 oh        1 XLM     -0.328000
      9 O5         -3.2570   -0.4810    0.3410 os        1 XLM     -0.267000
     10 C1'        -5.1730   -1.1410   -1.4600 c1        1 XLM      0.124000
     11 C2'        -1.2450   -2.8920   -1.1590 c3        1 XLM     -0.052000
     12 C3'        -0.9980   -1.3970   -1.0110 c3        1 XLM     -0.073000
     13 C4'        -3.6890    1.6120   -0.6320 c2        1 XLM     -0.069000
     14 C5'        -4.2710    1.0850   -1.9040 c3        1 XLM     -0.016000
     15 C6'        -3.4260    1.5150   -3.1130 c3        1 XLM     -0.015000
     16 O2'        -2.5230   -3.1900   -1.6850 oh        1 XLM     -0.332000
     17 O3'        -1.0280   -0.9600    0.3490 os        1 XLM     -0.308000
     18 O4'        -3.6220    2.9930   -0.5390 oh        1 XLM     -0.257000
     19 O5'        -4.2450   -0.3680   -1.9290 os        1 XLM     -0.175000
     20 O6'        -4.0990    1.2240   -4.3160 oh        1 XLM     -0.322000
     21 H1         -2.5710   -2.2460    1.0190 h2        1 XLM      0.114500
     22 H2         -2.0630   -0.7770    2.0740 h2        1 XLM      0.114500
     23 H3          1.1270   -0.0090    0.4020 h4        1 XLM      0.189000
     24 H4          2.4090    2.3360    2.0510 h1        1 XLM      0.098000
     25 H5C1       -2.7480    1.3450    1.3010 h4        1 XLM      0.158000
     26 H5C2        2.5530    0.6230    2.6910 h1        1 XLM      0.098000
     27 HA          3.0620    0.0390   -1.6840 ho        1 XLM      0.232000
     28 HB          4.6810    1.8820    0.2470 ho        1 XLM      0.228000
     29 HC          4.8490    0.9810    2.4880 ho        1 XLM      0.210000
     30 H1'        -1.1140   -3.4120   -0.1710 h1        1 XLM      0.091500
     31 H2'        -0.5240   -3.3330   -1.9000 h1        1 XLM      0.091500
     32 H3'        -1.7540   -0.8120   -1.6030 h1        1 XLM      0.119500
     33 H4'         0.0450   -1.1240   -1.3350 h1        1 XLM      0.119500
     34 H5'        -5.3350    1.4320   -2.0310 h1        1 XLM      0.131000
     35 H6'1       -2.4240    1.0130   -3.0760 h1        1 XLM      0.110500
     36 H6'2       -3.3040    2.6310   -3.0950 h1        1 XLM      0.110500
     37 H7'1       -6.4540    0.1670   -4.0580 ha        1 XLM      0.001000
     38 H7'2       -6.2570   -0.1460   -3.4900 ha        1 XLM      0.001000
     39 H7'3       -7.1950   -2.1130   -0.2730 ha        1 XLM      0.009000
     40 HD         -3.1640   -2.5790   -1.2920 ho        1 XLM      0.215000
     41 HE         -4.5220    3.3230   -0.6830 ho        1 XLM      0.216000
     42 H6'        -4.1190    0.2620   -4.4070 ho        1 XLM      0.211000
     43 O1'        -6.2280   -0.4130   -0.9240 os        1 XLM     -0.223000
     44 C7'        -7.2380   -0.9970   -0.3330 c1        1 XLM      0.089000
@<TRIPOS>BOND
     1    1    9 1   
     2    1   17 1   
     3    1   21 1   
     4    1   22 1   
     5    2    3 1   
     6    2    6 1   
     7    2   23 1   
     8    3    4 1   
     9    3    7 1   
    10    4    8 1   
    11    4   24 1   
    12    4   26 1   
    13    5    9 1   
    14    5   13 1   
    15    5   25 1   
    16    6   27 1   
    17    7   28 1   
    18    8   29 1   
    19   10   19 1   
    20   10   43 1   
    21   11   12 1   
    22   11   16 1   
    23   11   30 1   
    24   11   31 1   
    25   12   17 1   
    26   12   32 1   
    27   12   33 1   
    28   13   14 1   
    29   13   18 1   
    30   14   15 1   
    31   14   19 1   
    32   14   34 1   
    33   15   20 1   
    34   15   35 1   
    35   15   36 1   
    36   16   40 1   
    37   18   41 1   
    38   20   42 1   
    39   37   38 1   
    40   39   44 1   
    41   43   44 1   
@<TRIPOS>SUBSTRUCTURE
     1 XLM         1 TEMP              0 ****  ****    0 ROOT
