@<TRIPOS>MOLECULE
XLM
   44    45     1     0     0
SMALL
bcc


@<TRIPOS>ATOM
      1 C1          0.2440    0.0650   -1.6060 c3        1 XLM      0.291900
      2 C2         -0.8540   -0.2240   -2.6550 c3        1 XLM      0.130100
      3 C3         -0.2260   -0.4120   -4.0420 c3        1 XLM      0.154100
      4 C4          0.7430    0.7500   -4.3340 c3        1 XLM      0.065100
      5 C5          1.7580    0.9220   -3.2030 c3        1 XLM      0.104400
      6 O2         -1.4870   -1.4400   -2.3030 oh        1 XLM     -0.591800
      7 O3         -1.2860   -0.3900   -4.9820 oh        1 XLM     -0.583800
      8 O4          1.3990    0.4050   -5.5450 oh        1 XLM     -0.599800
      9 O5          1.1050    1.1400   -1.9610 os        1 XLM     -0.424600
     10 C1'         0.0540   -1.4840    2.6450 c3        1 XLM      0.303900
     11 C2'        -0.1860   -1.2140    1.1450 c3        1 XLM      0.099100
     12 C3'         0.1590    0.2380    0.7790 c3        1 XLM      0.115100
     13 C4'        -0.4510    1.2270    1.7890 c3        1 XLM      0.129100
     14 C5'         0.0170    0.8490    3.1990 c3        1 XLM      0.104100
     15 C6'        -0.6220    1.7520    4.2570 c3        1 XLM      0.140400
     16 O1'         1.4550   -1.5740    2.8270 os        1 XLM     -0.448600
     17 O2'        -1.5450   -1.4310    0.8090 oh        1 XLM     -0.582800
     18 O3'        -0.4170    0.5970   -0.4760 os        1 XLM     -0.402600
     19 O4'         0.0010    2.5440    1.5330 oh        1 XLM     -0.596800
     20 O5'        -0.4130   -0.4800    3.5160 os        1 XLM     -0.443600
     21 O6'        -0.1200    1.4620    5.5440 oh        1 XLM     -0.596800
     22 H1          0.8410   -0.8610   -1.3780 h2        1 XLM      0.056700
     23 H2         -1.5980    0.6180   -2.6770 h1        1 XLM      0.080700
     24 H3          0.3190   -1.3940   -4.0950 h1        1 XLM      0.065700
     25 H4          0.1520    1.6990   -4.4700 h1        1 XLM      0.065700
     26 H5C1        2.3780    1.8460   -3.3540 h1        1 XLM      0.059200
     27 H5C2        2.4250    0.0220   -3.1400 h1        1 XLM      0.059200
     28 HA         -1.9210   -1.2820   -1.4500 ho        1 XLM      0.428000
     29 HB         -0.8820   -0.5540   -5.8450 ho        1 XLM      0.417000
     30 HC          1.9320    1.1670   -5.8010 ho        1 XLM      0.410000
     31 H1'        -0.4780   -2.4190    2.9860 h2        1 XLM      0.074700
     32 H2'         0.4660   -1.9180    0.5530 h1        1 XLM      0.060700
     33 H3'         1.2770    0.3500    0.7480 h1        1 XLM      0.083700
     34 H4'        -1.5740    1.1830    1.7170 h1        1 XLM      0.073700
     35 H5'         1.1380    0.8980    3.2650 h1        1 XLM      0.078700
     36 H6'1       -0.3320    2.8180    4.0520 h1        1 XLM      0.065200
     37 H6'2       -1.7370    1.6390    4.2370 h1        1 XLM      0.065200
     38 H7'1        2.9590   -1.9820    4.0990 h1        1 XLM      0.042367
     39 H7'2        1.4450   -1.3100    4.9020 h1        1 XLM      0.042367
     40 H7'3        1.4720   -3.0460    4.3110 h1        1 XLM      0.042367
     41 HD         -1.7530   -2.3440    1.0460 ho        1 XLM      0.408000
     42 HE         -0.1590    2.7120    0.5940 ho        1 XLM      0.428000
     43 H6'        -0.3230    0.5350    5.7230 ho        1 XLM      0.406000
     44 C7'         1.8410   -2.0080    4.1240 c3        1 XLM      0.120700
@<TRIPOS>BOND
     1    1    2 1   
     2    1    9 1   
     3    1   18 1   
     4    1   22 1   
     5    2    3 1   
     6    2    6 1   
     7    2   23 1   
     8    3    4 1   
     9    3    7 1   
    10    3   24 1   
    11    4    5 1   
    12    4    8 1   
    13    4   25 1   
    14    5    9 1   
    15    5   26 1   
    16    5   27 1   
    17    6   28 1   
    18    7   29 1   
    19    8   30 1   
    20   10   11 1   
    21   10   16 1   
    22   10   20 1   
    23   10   31 1   
    24   11   12 1   
    25   11   17 1   
    26   11   32 1   
    27   12   13 1   
    28   12   18 1   
    29   12   33 1   
    30   13   14 1   
    31   13   19 1   
    32   13   34 1   
    33   14   15 1   
    34   14   20 1   
    35   14   35 1   
    36   15   21 1   
    37   15   36 1   
    38   15   37 1   
    39   16   44 1   
    40   17   41 1   
    41   19   42 1   
    42   21   43 1   
    43   38   44 1   
    44   39   44 1   
    45   40   44 1   
@<TRIPOS>SUBSTRUCTURE
     1 XLM         1 TEMP              0 ****  ****    0 ROOT
