@<TRIPOS>MOLECULE
XLS
   20    19     1     0     0
SMALL
bcc


@<TRIPOS>ATOM
      1 C1          0.4140    0.0170   -2.6990 c         1 XLS      0.561900
      2 C2         -0.2280   -0.4090   -1.3910 c3        1 XLS     -0.004900
      3 C3          0.5770    0.1440   -0.2030 c3        1 XLS      0.119100
      4 C4         -0.0900   -0.2390    1.1280 c3        1 XLS      0.112100
      5 C5          0.9110   -0.0990    2.2790 c3        1 XLS      0.093400
      6 O1          1.5030   -0.4230   -3.0630 o         1 XLS     -0.523100
      7 O2         -1.5910   -0.0310   -1.3940 oh        1 XLS     -0.586800
      8 O3          0.7550    1.5430   -0.3090 oh        1 XLS     -0.591800
      9 O4         -1.1800    0.6570    1.2990 oh        1 XLS     -0.626800
     10 O5          0.1720   -0.3100    3.4710 oh        1 XLS     -0.614800
     11 H1         -0.1810    0.7350   -3.3020 h4        1 XLS      0.014200
     12 H2         -0.2380   -1.5370   -1.3380 h1        1 XLS      0.094700
     13 H3          1.6200   -0.2800   -0.2520 h1        1 XLS      0.100700
     14 H4         -0.4810   -1.2930    1.0830 h1        1 XLS      0.066700
     15 H51         1.3610    0.9300    2.2700 h1        1 XLS      0.045700
     16 H52         1.7210   -0.8690    2.1850 h1        1 XLS      0.045700
     17 HO2        -1.6810    0.7880   -0.8900 ho        1 XLS      0.418000
     18 HO3        -0.0630    1.9750   -0.0270 ho        1 XLS      0.420000
     19 HO4        -1.5240    0.5190    2.1920 ho        1 XLS      0.440000
     20 HO5         0.7630   -0.1120    4.2060 ho        1 XLS      0.415000
@<TRIPOS>BOND
     1    1    2 1   
     2    1    6 2   
     3    1   11 1   
     4    2    3 1   
     5    2    7 1   
     6    2   12 1   
     7    3    4 1   
     8    3    8 1   
     9    3   13 1   
    10    4    5 1   
    11    4    9 1   
    12    4   14 1   
    13    5   10 1   
    14    5   15 1   
    15    5   16 1   
    16    7   17 1   
    17    8   18 1   
    18    9   19 1   
    19   10   20 1   
@<TRIPOS>SUBSTRUCTURE
     1 XLS         1 TEMP              0 ****  ****    0 ROOT
