@<TRIPOS>MOLECULE
XLX
   35    31     1     0     0
SMALL
bcc


@<TRIPOS>ATOM
      1 O13        36.0700  -83.8560  920.8200 o         1 XLX     -0.438000
      2 C12        35.4650  -82.9570  920.1900 c2        1 XLX      0.313000
      3 C11        34.6390  -83.2530  918.9570 c3        1 XLX     -0.236000
      4 N8         35.4930  -81.6560  920.6400 n         1 XLX     -0.413000
      5 C7        -28.3750   78.8170 -869.3590 c1        1 XLX     -0.023000
      6 C6        -28.8210   78.3230 -870.6110 c2        1 XLX     -0.160000
      7 N1        -28.9790   77.1050 -870.9990 n2        1 XLX     -0.218000
      8 C2        -29.5940   76.8390 -872.3000 c3        1 XLX      0.123000
      9 O15       -29.0550   77.6290 -873.3560 os        1 XLX     -0.368000
     10 C3        -29.4190   75.3820 -872.6670 c2        1 XLX     -0.137000
     11 H1         33.5350  -83.3010  919.2390 hc        1 XLX      0.150000
     12 H2         34.9230  -84.2720  918.5810 hc        1 XLX      0.150000
     13 H4         36.1480  -81.4070  921.3370 hn        1 XLX      0.217500
     14 H5        -27.2930   78.9730 -869.2350 ha        1 XLX      0.051000
     15 H6         35.1780  -80.9510  920.0130 hn        1 XLX      0.217500
     16 H7        -28.1770   81.1800 -869.7990 ha        1 XLX      0.003500
     17 H8        -28.8270   81.0970 -869.6190 ha        1 XLX      0.003500
     18 H9        -29.1530   79.2100 -871.2430 h4        1 XLX      0.212000
     19 H10       -30.7090   77.0440 -872.2080 h2        1 XLX      0.109000
     20 H11       -29.6510   74.6780 -871.8520 ha        1 XLX      0.106000
     21 C1        -29.0530   74.9620 -873.8740 c2        1 XLX     -0.229000
     22 C4        -29.7090   78.8460 -873.6660 c2        1 XLX      0.405000
     23 O2        -30.5400   79.2540 -872.8160 o         1 XLX     -0.550500
     24 O1        -29.3000   79.3160 -874.7450 o         1 XLX     -0.550500
     25 C9         34.7330  -82.1950  917.9560 c1        1 XLX     -0.126000
     26 C10        34.0990  -82.3850  916.6900 c3        1 XLX     -0.308000
     27 C13        32.5360  -82.1240  916.8410 c2        1 XLX      0.372000
     28 O4         32.0160  -81.3900  915.9700 o         1 XLX     -0.537000
     29 O3         31.9500  -82.7030  917.7920 o         1 XLX     -0.537000
     30 H3        -28.9770   73.8960 -874.1230 ha        1 XLX      0.110000
     31 H12       -28.8080   75.6630 -874.6850 ha        1 XLX      0.110000
     32 H14        33.0630  -80.2570  919.3990 ha        1 XLX      0.003500
     33 H15        33.0030  -80.7650  918.9500 ha        1 XLX      0.003500
     34 H16        34.1560  -83.4290  916.2790 hc        1 XLX      0.086500
     35 H17        34.4810  -81.6670  915.9220 hc        1 XLX      0.086500
@<TRIPOS>BOND
     1    1    2 1   
     2    2    3 1   
     3    2    4 1   
     4    3   11 1   
     5    3   12 1   
     6    3   25 1   
     7    4   13 1   
     8    4   15 1   
     9    5    6 1   
    10    5   14 1   
    11    6    7 1   
    12    6   18 1   
    13    7    8 1   
    14    8    9 1   
    15    8   10 1   
    16    8   19 1   
    17    9   22 1   
    18   10   20 1   
    19   10   21 1   
    20   16   17 1   
    21   21   30 1   
    22   21   31 1   
    23   22   23 1   
    24   22   24 1   
    25   25   26 1   
    26   26   27 1   
    27   26   34 1   
    28   26   35 1   
    29   27   28 1   
    30   27   29 1   
    31   32   33 1   
@<TRIPOS>SUBSTRUCTURE
     1 XLX         1 TEMP              0 ****  ****    0 ROOT
