@<TRIPOS>MOLECULE
XLX
   35    34     1     0     0
SMALL
bcc


@<TRIPOS>ATOM
      1 O13         1.7110    0.2420    2.4090 o         1 XLX     -0.650100
      2 C12         2.1740    0.3660    1.2530 c         1 XLX      0.659100
      3 C11         3.5580    0.9430    1.0270 c3        1 XLX     -0.151400
      4 N8          1.4310   -0.0000    0.1500 n         1 XLX     -0.570900
      5 C7          0.0870   -0.4910    0.2370 c3        1 XLX      0.071000
      6 C6         -0.9730    0.5400   -0.2400 c3        1 XLX      0.071000
      7 N1         -2.3160    0.0670   -0.0920 n         1 XLX     -0.580900
      8 C2         -3.2110   -0.0380   -1.1420 c         1 XLX      0.660100
      9 O15        -2.8540    0.2460   -2.3070 o         1 XLX     -0.655100
     10 C3         -4.6100   -0.5250   -0.8250 c3        1 XLX     -0.135400
     11 H1          3.4370    1.9980    0.6650 hc        1 XLX      0.058700
     12 H2          4.0650    0.9830    2.0280 hc        1 XLX      0.058700
     13 H4          1.8250    0.1130   -0.7530 hn        1 XLX      0.320500
     14 H5          0.0020   -1.4170   -0.4000 h1        1 XLX      0.057700
     15 H6         -0.1260   -0.7750    1.3070 h1        1 XLX      0.057700
     16 H7         -0.8480    1.4860    0.3620 h1        1 XLX      0.052700
     17 H8         -0.7900    0.7870   -1.3250 h1        1 XLX      0.052700
     18 H9         -2.6290   -0.1500    0.8230 hn        1 XLX      0.314500
     19 H10        -5.1500   -0.6530   -1.8000 hc        1 XLX      0.075700
     20 H11        -4.5620   -1.5340   -0.3300 hc        1 XLX      0.075700
     21 C1         -5.3850    0.4170    0.0620 c3        1 XLX     -0.197400
     22 C4         -6.6960   -0.2370    0.5450 c         1 XLX      0.909600
     23 O2         -6.6840   -1.4680    0.8380 o         1 XLX     -0.849300
     24 O1         -7.7160    0.5020    0.6440 o         1 XLX     -0.849300
     25 C9          4.4150    0.1610    0.0540 c3        1 XLX     -0.068400
     26 C10         5.8480    0.6400    0.0950 c3        1 XLX     -0.195400
     27 C13         6.6750    0.0850   -1.0780 c         1 XLX      0.908600
     28 O4          7.8780   -0.2310   -0.8460 o         1 XLX     -0.852300
     29 O3          6.1320   -0.0030   -2.2170 o         1 XLX     -0.852300
     30 H3         -4.7950    0.6840    0.9750 hc        1 XLX      0.028700
     31 H12        -5.6240    1.3630   -0.4830 hc        1 XLX      0.028700
     32 H14         4.3770   -0.9300    0.3060 hc        1 XLX      0.051200
     33 H15         4.0350    0.2750   -0.9970 hc        1 XLX      0.051200
     34 H16         5.8780    1.7580    0.0270 hc        1 XLX      0.021200
     35 H17         6.3300    0.3420    1.0590 hc        1 XLX      0.021200
@<TRIPOS>BOND
     1    1    2 2   
     2    2    3 1   
     3    2    4 1   
     4    3   11 1   
     5    3   12 1   
     6    3   25 1   
     7    4    5 1   
     8    4   13 1   
     9    5    6 1   
    10    5   14 1   
    11    5   15 1   
    12    6    7 1   
    13    6   16 1   
    14    6   17 1   
    15    7    8 1   
    16    7   18 1   
    17    8    9 2   
    18    8   10 1   
    19   10   19 1   
    20   10   20 1   
    21   10   21 1   
    22   21   22 1   
    23   21   30 1   
    24   21   31 1   
    25   22   23 1   
    26   22   24 1   
    27   25   26 1   
    28   25   32 1   
    29   25   33 1   
    30   26   27 1   
    31   26   34 1   
    32   26   35 1   
    33   27   28 1   
    34   27   29 1   
@<TRIPOS>SUBSTRUCTURE
     1 XLX         1 TEMP              0 ****  ****    0 ROOT
