@<TRIPOS>MOLECULE
XM0
   22    23     1     0     0
SMALL
bcc


@<TRIPOS>ATOM
      1 C1         -0.0000    0.3240    0.1400 ca        1 XM0     -0.105000
      2 C2          1.3930    0.3220    0.1420 ca        1 XM0     -0.105000
      3 C3          2.1090    0.0620    1.3190 ca        1 XM0     -0.091000
      4 C4          1.4000   -0.1890    2.4820 ca        1 XM0     -0.127300
      5 C5         -0.0150   -0.1860    2.4800 ca        1 XM0     -0.127300
      6 C6         -0.7210    0.0680    1.3160 ca        1 XM0     -0.091000
      7 C7         -0.5500   -0.5070    3.8330 c3        1 XM0     -0.049100
      8 C8          0.6890   -0.4460    4.7670 c3        1 XM0      0.116500
      9 C9          1.9310   -0.5120    3.8360 c3        1 XM0     -0.049100
     10 N10         0.6910    0.8200    5.5790 n4        1 XM0     -0.841600
     11 H1         -0.5480    0.5250   -0.7950 ha        1 XM0      0.158000
     12 H2          1.9430    0.5200   -0.7920 ha        1 XM0      0.158000
     13 H6         -1.8210    0.0640    1.3040 ha        1 XM0      0.152000
     14 H3          3.2090    0.0540    1.3100 ha        1 XM0      0.152000
     15 H91C        2.7570    0.1760    4.1440 hc        1 XM0      0.089200
     16 H92C        2.3360   -1.5600    3.8600 hc        1 XM0      0.089200
     17 H71C       -0.9600   -1.5530    3.8560 hc        1 XM0      0.089200
     18 H72C       -1.3740    0.1850    4.1390 hc        1 XM0      0.089200
     19 H8          0.6860   -1.2990    5.5030 hx        1 XM0      0.113700
     20 H101       -0.1460    0.8600    6.1670 hn        1 XM0      0.459467
     21 H102        1.5260    0.8560    6.1700 hn        1 XM0      0.459467
     22 H103        0.6930    1.6290    4.9480 hn        1 XM0      0.459467
@<TRIPOS>BOND
     1    1    2 ar  
     2    1    6 ar  
     3    1   11 1   
     4    2    3 ar  
     5    2   12 1   
     6    3    4 ar  
     7    3   14 1   
     8    4    5 ar  
     9    4    9 1   
    10    5    6 ar  
    11    5    7 1   
    12    6   13 1   
    13    7    8 1   
    14    7   17 1   
    15    7   18 1   
    16    8    9 1   
    17    8   10 1   
    18    8   19 1   
    19    9   15 1   
    20    9   16 1   
    21   10   20 1   
    22   10   21 1   
    23   10   22 1   
@<TRIPOS>SUBSTRUCTURE
     1 XM0         1 TEMP              0 ****  ****    0 ROOT
