@<TRIPOS>MOLECULE
XM1
   52    55     1     0     0
SMALL
bcc


@<TRIPOS>ATOM
      1 C1          0.2100   -0.1970   -0.1110 ca        1 XM1      0.668200
      2 CL1        -0.0710   -5.6560   10.2130 cl        1 XM1     -0.049400
      3 C2          1.5540    0.2440    0.0340 ca        1 XM1     -0.316400
      4 C3          2.4070    0.6850    1.1050 cc        1 XM1     -0.168200
      5 C4          3.6410    1.0040    0.5420 cd        1 XM1     -0.095100
      6 N5         -4.8800   -4.3520    4.2990 n4        1 XM1     -0.843600
      7 N6          3.6220    0.7850   -0.8390 na        1 XM1     -0.274100
      8 C7          2.3500    0.3260   -1.1900 ca        1 XM1      0.451800
      9 N8         -0.2710   -0.5210   -1.3420 nb        1 XM1     -0.762000
     10 C9          0.5760   -0.3930   -2.4080 ca        1 XM1      0.661900
     11 N10         1.8640    0.0030   -2.4290 nb        1 XM1     -0.689000
     12 N11        -0.6290   -0.2350    1.0490 nh        1 XM1     -0.726300
     13 C12        -2.0640   -0.2380    0.8000 c3        1 XM1      0.164300
     14 C13        -2.8680   -0.0930    2.1100 c3        1 XM1      0.075000
     15 N14        -2.4570   -1.0400    3.1380 n         1 XM1     -0.423800
     16 C15        -1.0270   -1.1300    3.3390 c3        1 XM1      0.075000
     17 C16        -0.2320   -1.2470    2.0170 c3        1 XM1      0.164300
     18 C17        -3.3840   -1.8140    3.7720 c         1 XM1      0.647100
     19 O18        -4.5990   -1.7710    3.4350 o         1 XM1     -0.683100
     20 C19        -2.9930   -2.7660    4.9060 c3        1 XM1     -0.149700
     21 C20        -2.4580   -2.0090    6.1220 c3        1 XM1     -0.032100
     22 C21        -4.2230   -3.5580    5.3740 c3        1 XM1      0.112800
     23 C22        -1.8790   -2.9350    7.1340 ca        1 XM1     -0.132300
     24 C23        -0.6960   -3.6310    6.8560 ca        1 XM1     -0.121500
     25 C24        -0.1310   -4.4760    7.8070 ca        1 XM1     -0.116000
     26 C25        -0.7510   -4.6280    9.0530 ca        1 XM1      0.028400
     27 C26        -1.9270   -3.9270    9.3460 ca        1 XM1     -0.116000
     28 C27        -2.4850   -3.0850    8.3860 ca        1 XM1     -0.121500
     29 H3          2.1290    0.7800    2.1500 ha        1 XM1      0.159000
     30 H4          4.5470    1.3780    1.0250 h4        1 XM1      0.180000
     31 HN5        -5.6630   -4.8820    4.6870 hn        1 XM1      0.467467
     32 HN5A       -4.2150   -4.9980    3.8680 hn        1 XM1      0.467467
     33 H9          0.1350   -0.6600   -3.3930 h5        1 XM1      0.062100
     34 H12        -2.3120    0.6470    0.1500 h1        1 XM1      0.064700
     35 H12A       -2.4020   -1.1720    0.2660 h1        1 XM1      0.064700
     36 H13        -2.7220    0.9450    2.5290 h1        1 XM1      0.073950
     37 H13A       -3.9590   -0.2340    1.8700 h1        1 XM1      0.073950
     38 H15        -0.7630   -2.0280    3.9640 h1        1 XM1      0.073950
     39 H15A       -0.6920   -0.2010    3.8870 h1        1 XM1      0.073950
     40 H16        -0.3640   -2.2900    1.6070 h1        1 XM1      0.064700
     41 H16A        0.8580   -1.0990    2.2600 h1        1 XM1      0.064700
     42 H19        -2.2040   -3.4800    4.5360 hc        1 XM1      0.087700
     43 H20        -1.6620   -1.2850    5.7950 hc        1 XM1      0.081200
     44 H20A       -3.2850   -1.3980    6.5740 hc        1 XM1      0.081200
     45 H21        -3.9100   -4.2590    6.2020 hx        1 XM1      0.121200
     46 H21A       -4.9980   -2.8330    5.7670 hx        1 XM1      0.121200
     47 H23        -0.1950   -3.4960    5.8850 ha        1 XM1      0.136000
     48 H24         0.8040   -5.0140    7.5830 ha        1 XM1      0.163000
     49 H26        -2.4040   -4.0310   10.3330 ha        1 XM1      0.163000
     50 H27        -3.3980   -2.5190    8.6300 ha        1 XM1      0.136000
     51 HN6         4.3630    0.9520   -1.4700 hn        1 XM1      0.322700
     52 H53        -5.2340   -3.6970    3.5740 hn        1 XM1      0.467467
@<TRIPOS>BOND
     1    1    3 ar  
     2    1    9 ar  
     3    1   12 1   
     4    2   26 1   
     5    3    4 1   
     6    3    8 ar  
     7    4    5 2   
     8    4   29 1   
     9    5    7 1   
    10    5   30 1   
    11    6   22 1   
    12    6   31 1   
    13    6   32 1   
    14    6   52 1   
    15    7    8 1   
    16    7   51 1   
    17    8   11 ar  
    18    9   10 ar  
    19   10   11 ar  
    20   10   33 1   
    21   12   13 1   
    22   12   17 1   
    23   13   14 1   
    24   13   34 1   
    25   13   35 1   
    26   14   15 1   
    27   14   36 1   
    28   14   37 1   
    29   15   16 1   
    30   15   18 1   
    31   16   17 1   
    32   16   38 1   
    33   16   39 1   
    34   17   40 1   
    35   17   41 1   
    36   18   19 2   
    37   18   20 1   
    38   20   21 1   
    39   20   22 1   
    40   20   42 1   
    41   21   23 1   
    42   21   43 1   
    43   21   44 1   
    44   22   45 1   
    45   22   46 1   
    46   23   24 ar  
    47   23   28 ar  
    48   24   25 ar  
    49   24   47 1   
    50   25   26 ar  
    51   25   48 1   
    52   26   27 ar  
    53   27   28 ar  
    54   27   49 1   
    55   28   50 1   
@<TRIPOS>SUBSTRUCTURE
     1 XM1         1 TEMP              0 ****  ****    0 ROOT
