@<TRIPOS>MOLECULE
XM1
   52    55     1     0     0
SMALL
bcc


@<TRIPOS>ATOM
      1 C1          0.2090   -0.2080   -0.1160 ca        1 XM1      0.668200
      2 Cl1        -0.0670   -5.6180   10.2350 cl        1 XM1     -0.049400
      3 C2          1.5520    0.2390    0.0290 ca        1 XM1     -0.316400
      4 C3          2.4000    0.6890    1.1000 cc        1 XM1     -0.168200
      5 C4          3.6340    1.0110    0.5380 cd        1 XM1     -0.095100
      6 N5         -4.8690   -4.3650    4.3040 nz        1 XM1     -0.843600
      7 N6          3.6180    0.7860   -0.8420 na        1 XM1     -0.274100
      8 C7          2.3500    0.3190   -1.1940 ca        1 XM1      0.451800
      9 N8         -0.2680   -0.5410   -1.3470 nb        1 XM1     -0.762000
     10 C9          0.5810   -0.4130   -2.4110 ca        1 XM1      0.661900
     11 N10         1.8670   -0.0120   -2.4320 nb        1 XM1     -0.689000
     12 N11        -0.6310   -0.2440    1.0430 nh        1 XM1     -0.726300
     13 C12        -2.0660   -0.2560    0.7910 c3        1 XM1      0.164300
     14 C13        -2.8720   -0.1070    2.0990 c3        1 XM1      0.075000
     15 N14        -2.4600   -1.0480    3.1320 n         1 XM1     -0.423800
     16 C15        -1.0290   -1.1300    3.3370 c3        1 XM1      0.075000
     17 C16        -0.2320   -1.2500    2.0160 c3        1 XM1      0.164300
     18 C17        -3.3840   -1.8230    3.7680 c         1 XM1      0.647100
     19 O18        -4.5990   -1.7870    3.4290 o         1 XM1     -0.682100
     20 C19        -2.9910   -2.7680    4.9070 c3        1 XM1     -0.149700
     21 C20        -2.4620   -2.0020    6.1210 c3        1 XM1     -0.032100
     22 C21        -4.2190   -3.5620    5.3770 c3        1 XM1      0.112800
     23 C22        -1.8810   -2.9210    7.1380 ca        1 XM1     -0.132300
     24 C23        -0.6940   -3.6120    6.8670 ca        1 XM1     -0.121500
     25 C24        -0.1280   -4.4500    7.8230 ca        1 XM1     -0.116000
     26 C25        -0.7490   -4.5980    9.0690 ca        1 XM1      0.028400
     27 C26        -1.9290   -3.9010    9.3550 ca        1 XM1     -0.116000
     28 C27        -2.4890   -3.0670    8.3900 ca        1 XM1     -0.121500
     29 H3          2.1200    0.7880    2.1440 ha        1 XM1      0.159000
     30 H4          4.5380    1.3920    1.0200 h4        1 XM1      0.180000
     31 HN5        -5.2250   -3.7160    3.5750 hn        1 XM1      0.467467
     32 HN5A       -4.2000   -5.0100    3.8780 hn        1 XM1      0.467467
     33 H9          0.1430   -0.6870   -3.3960 h5        1 XM1      0.062100
     34 H12        -2.3170    0.6260    0.1360 h1        1 XM1      0.064700
     35 H12A       -2.3990   -1.1930    0.2600 h1        1 XM1      0.064700
     36 H13        -2.7320    0.9330    2.5130 h1        1 XM1      0.073950
     37 H13A       -3.9630   -0.2550    1.8570 h1        1 XM1      0.073950
     38 H15        -0.7630   -2.0240    3.9660 h1        1 XM1      0.073950
     39 H15A       -0.7000   -0.1970    3.8800 h1        1 XM1      0.073950
     40 H16         0.8580   -1.0960    2.2600 h1        1 XM1      0.064700
     41 H16A       -0.3580   -2.2960    1.6110 h1        1 XM1      0.064700
     42 H19        -2.1980   -3.4790    4.5430 hc        1 XM1      0.087700
     43 H20        -1.6690   -1.2760    5.7910 hc        1 XM1      0.081200
     44 H20A       -3.2930   -1.3920    6.5680 hc        1 XM1      0.081200
     45 H21        -3.9040   -4.2590    6.2080 hx        1 XM1      0.121200
     46 H21A       -4.9970   -2.8400    5.7640 hx        1 XM1      0.121200
     47 H23        -0.1920   -3.4800    5.8960 ha        1 XM1      0.136000
     48 H24         0.8110   -4.9850    7.6040 ha        1 XM1      0.163000
     49 H26        -2.4080   -4.0030   10.3420 ha        1 XM1      0.163000
     50 H27        -3.4050   -2.5040    8.6300 ha        1 XM1      0.136000
     51 HN6         4.3600    0.9530   -1.4730 hn        1 XM1      0.322700
     52 H53        -5.6510   -4.8970    4.6940 hn        1 XM1      0.467467
@<TRIPOS>BOND
     1    1    3 ar  
     2    1    9 ar  
     3    1   12 1   
     4    2   26 1   
     5    3    4 1   
     6    3    8 ar  
     7    4    5 2   
     8    4   29 1   
     9    5    7 1   
    10    5   30 1   
    11    6   22 1   
    12    6   31 1   
    13    6   32 1   
    14    6   52 1   
    15    7    8 1   
    16    7   51 1   
    17    8   11 ar  
    18    9   10 ar  
    19   10   11 ar  
    20   10   33 1   
    21   12   13 1   
    22   12   17 1   
    23   13   14 1   
    24   13   34 1   
    25   13   35 1   
    26   14   15 1   
    27   14   36 1   
    28   14   37 1   
    29   15   16 1   
    30   15   18 1   
    31   16   17 1   
    32   16   38 1   
    33   16   39 1   
    34   17   40 1   
    35   17   41 1   
    36   18   19 2   
    37   18   20 1   
    38   20   21 1   
    39   20   22 1   
    40   20   42 1   
    41   21   23 1   
    42   21   43 1   
    43   21   44 1   
    44   22   45 1   
    45   22   46 1   
    46   23   24 ar  
    47   23   28 ar  
    48   24   25 ar  
    49   24   47 1   
    50   25   26 ar  
    51   25   48 1   
    52   26   27 ar  
    53   27   28 ar  
    54   27   49 1   
    55   28   50 1   
@<TRIPOS>SUBSTRUCTURE
     1 XM1         1 TEMP              0 ****  ****    0 ROOT
