@<TRIPOS>MOLECULE
XM1
   51    54     1     0     0
SMALL
bcc


@<TRIPOS>ATOM
      1 C1          4.1880    0.0100    0.1490 ca        1 XM1      0.693200
      2 CL1        -6.9330    2.8540    0.5440 cl        1 XM1     -0.091400
      3 C2          4.5730    1.3480   -0.1660 ca        1 XM1     -0.327400
      4 C3          4.0420    2.4370   -0.9420 cc        1 XM1     -0.153200
      5 C4          4.9510    3.4880   -0.8540 cd        1 XM1     -0.117100
      6 N5         -2.1670   -2.9610    2.3210 n3        1 XM1     -0.917800
      7 N6          6.0440    3.1230   -0.0590 na        1 XM1     -0.281100
      8 C7          5.8500    1.8080    0.3710 ca        1 XM1      0.450800
      9 N8          5.0130   -0.7630    0.9120 nb        1 XM1     -0.766000
     10 C9          6.1840   -0.2110    1.3440 ca        1 XM1      0.664900
     11 N10         6.6730    1.0290    1.1420 nb        1 XM1     -0.714000
     12 N11         2.9840   -0.5110   -0.4030 nh        1 XM1     -0.731300
     13 C12         2.8290   -1.9610   -0.3790 c3        1 XM1      0.159300
     14 C13         1.5840   -2.4200   -1.1720 c3        1 XM1      0.082000
     15 N14         0.3730   -1.7060   -0.8180 n         1 XM1     -0.465800
     16 C15         0.5360   -0.2740   -0.7840 c3        1 XM1      0.082000
     17 C16         1.7760    0.1860    0.0200 c3        1 XM1      0.159300
     18 C17        -0.6880   -2.3850   -0.2300 c         1 XM1      0.661100
     19 O18        -0.6430   -3.6300   -0.1400 o         1 XM1     -0.616100
     20 C19        -1.9230   -1.6220    0.2420 c3        1 XM1     -0.126700
     21 C20        -2.7160   -1.1170   -0.9590 c3        1 XM1     -0.036100
     22 C21        -2.8070   -2.5500    1.0950 c3        1 XM1      0.169800
     23 C22        -3.7670   -0.1370   -0.5670 ca        1 XM1     -0.080300
     24 C23        -3.4100    1.1510   -0.1500 ca        1 XM1     -0.119000
     25 C24        -4.3860    2.0820    0.1970 ca        1 XM1     -0.120500
     26 C25        -5.7360    1.7230    0.1240 ca        1 XM1      0.017400
     27 C26        -6.1070    0.4410   -0.2910 ca        1 XM1     -0.120500
     28 C27        -5.1210   -0.4830   -0.6340 ca        1 XM1     -0.119000
     29 H3          3.1180    2.4300   -1.5130 ha        1 XM1      0.161000
     30 H4          4.9090    4.4830   -1.3020 h4        1 XM1      0.172000
     31 HN5        -2.7880   -3.5400    2.8510 hn        1 XM1      0.357800
     32 HN5A       -1.3290   -3.4760    2.1230 hn        1 XM1      0.357800
     33 H9          6.8180   -0.8860    1.9590 h5        1 XM1      0.053100
     34 H12         3.7330   -2.4210   -0.8660 h1        1 XM1      0.058200
     35 H12A        2.7580   -2.3560    0.6750 h1        1 XM1      0.058200
     36 H13         1.7660   -2.2560   -2.2720 h1        1 XM1      0.065950
     37 H13A        1.4480   -3.5240   -0.9910 h1        1 XM1      0.065950
     38 H15         0.6420    0.0830   -1.8500 h1        1 XM1      0.065950
     39 H15A       -0.3610    0.2330   -0.3370 h1        1 XM1      0.065950
     40 H16         1.5770    0.0260    1.1190 h1        1 XM1      0.058200
     41 H16A        1.9120    1.2890   -0.1530 h1        1 XM1      0.058200
     42 H19        -1.6070   -0.7510    0.8820 hc        1 XM1      0.081700
     43 H20        -2.0180   -0.6230   -1.6890 hc        1 XM1      0.062200
     44 H20A       -3.1800   -1.9930   -1.4860 hc        1 XM1      0.062200
     45 H21        -3.1110   -3.4240    0.4460 h1        1 XM1      0.039700
     46 H21A       -3.7420   -1.9770    1.3610 h1        1 XM1      0.039700
     47 H23        -2.3470    1.4320   -0.0940 ha        1 XM1      0.135500
     48 H24        -4.0960    3.0910    0.5250 ha        1 XM1      0.148500
     49 H26        -7.1690    0.1600   -0.3480 ha        1 XM1      0.148500
     50 H27        -5.4140   -1.4930   -0.9610 ha        1 XM1      0.135500
     51 HN6         6.8280    3.6830    0.1520 hn        1 XM1      0.313700
@<TRIPOS>BOND
     1    1    3 ar  
     2    1    9 ar  
     3    1   12 1   
     4    2   26 1   
     5    3    4 1   
     6    3    8 ar  
     7    4    5 2   
     8    4   29 1   
     9    5    7 1   
    10    5   30 1   
    11    6   22 1   
    12    6   31 1   
    13    6   32 1   
    14    7    8 1   
    15    7   51 1   
    16    8   11 ar  
    17    9   10 ar  
    18   10   11 ar  
    19   10   33 1   
    20   12   13 1   
    21   12   17 1   
    22   13   14 1   
    23   13   34 1   
    24   13   35 1   
    25   14   15 1   
    26   14   36 1   
    27   14   37 1   
    28   15   16 1   
    29   15   18 1   
    30   16   17 1   
    31   16   38 1   
    32   16   39 1   
    33   17   40 1   
    34   17   41 1   
    35   18   19 2   
    36   18   20 1   
    37   20   21 1   
    38   20   22 1   
    39   20   42 1   
    40   21   23 1   
    41   21   43 1   
    42   21   44 1   
    43   22   45 1   
    44   22   46 1   
    45   23   24 ar  
    46   23   28 ar  
    47   24   25 ar  
    48   24   47 1   
    49   25   26 ar  
    50   25   48 1   
    51   26   27 ar  
    52   27   28 ar  
    53   27   49 1   
    54   28   50 1   
@<TRIPOS>SUBSTRUCTURE
     1 XM1         1 TEMP              0 ****  ****    0 ROOT
