@<TRIPOS>MOLECULE
XM1
   52    55     1     0     0
SMALL
bcc


@<TRIPOS>ATOM
      1 C1          0.2100   -0.2060   -0.1150 ca        1 XM1      0.668200
      2 CL1        -0.0720   -5.6290   10.2300 cl        1 XM1     -0.049400
      3 C2          1.5540    0.2380    0.0290 ca        1 XM1     -0.316400
      4 C3          2.4040    0.6840    1.1000 cc        1 XM1     -0.168200
      5 C4          3.6380    1.0040    0.5370 cd        1 XM1     -0.095100
      6 N5         -4.8750   -4.3570    4.3050 n4        1 XM1     -0.843600
      7 N6          3.6210    0.7810   -0.8430 na        1 XM1     -0.274100
      8 C7          2.3500    0.3190   -1.1940 ca        1 XM1      0.451800
      9 N8         -0.2690   -0.5350   -1.3460 nb        1 XM1     -0.762000
     10 C9          0.5780   -0.4070   -2.4110 ca        1 XM1      0.661900
     11 N10         1.8660   -0.0090   -2.4330 nb        1 XM1     -0.689000
     12 N11        -0.6300   -0.2420    1.0440 nh        1 XM1     -0.726300
     13 C12        -2.0650   -0.2490    0.7940 c3        1 XM1      0.164300
     14 C13        -2.8690   -0.1010    2.1030 c3        1 XM1      0.075000
     15 N14        -2.4580   -1.0440    3.1340 n         1 XM1     -0.423800
     16 C15        -1.0270   -1.1310    3.3370 c3        1 XM1      0.075000
     17 C16        -0.2320   -1.2510    2.0150 c3        1 XM1      0.164300
     18 C17        -3.3840   -1.8180    3.7700 c         1 XM1      0.647100
     19 O18        -4.5990   -1.7780    3.4320 o         1 XM1     -0.683100
     20 C19        -2.9920   -2.7650    4.9080 c3        1 XM1     -0.149700
     21 C20        -2.4590   -2.0020    6.1220 c3        1 XM1     -0.032100
     22 C21        -4.2210   -3.5570    5.3780 c3        1 XM1      0.112800
     23 C22        -1.8810   -2.9240    7.1380 ca        1 XM1     -0.132300
     24 C23        -0.6960   -3.6180    6.8640 ca        1 XM1     -0.121500
     25 C24        -0.1310   -4.4590    7.8190 ca        1 XM1     -0.116000
     26 C25        -0.7520   -4.6070    9.0660 ca        1 XM1      0.028400
     27 C26        -1.9290   -3.9070    9.3540 ca        1 XM1     -0.116000
     28 C27        -2.4880   -3.0690    8.3900 ca        1 XM1     -0.121500
     29 H3          2.1260    0.7810    2.1450 ha        1 XM1      0.159000
     30 H4          4.5440    1.3810    1.0190 h4        1 XM1      0.180000
     31 HN5        -5.6580   -4.8870    4.6940 hn        1 XM1      0.467467
     32 HN5A       -4.2080   -5.0030    3.8770 hn        1 XM1      0.467467
     33 H9          0.1380   -0.6780   -3.3960 h5        1 XM1      0.062100
     34 H12        -2.4010   -1.1850    0.2620 h1        1 XM1      0.064700
     35 H12A       -2.3140    0.6340    0.1410 h1        1 XM1      0.064700
     36 H13        -2.7260    0.9380    2.5180 h1        1 XM1      0.073950
     37 H13A       -3.9600   -0.2450    1.8620 h1        1 XM1      0.073950
     38 H15        -0.7630   -2.0270    3.9640 h1        1 XM1      0.073950
     39 H15A       -0.6950   -0.1990    3.8810 h1        1 XM1      0.073950
     40 H16        -0.3610   -2.2950    1.6090 h1        1 XM1      0.064700
     41 H16A        0.8590   -1.1000    2.2590 h1        1 XM1      0.064700
     42 H19        -2.2010   -3.4790    4.5420 hc        1 XM1      0.087700
     43 H20        -3.2880   -1.3910    6.5710 hc        1 XM1      0.081200
     44 H20A       -1.6640   -1.2780    5.7920 hc        1 XM1      0.081200
     45 H21        -4.9970   -2.8330    5.7670 hx        1 XM1      0.121200
     46 H21A       -3.9070   -4.2550    6.2080 hx        1 XM1      0.121200
     47 H23        -0.1940   -3.4870    5.8930 ha        1 XM1      0.136000
     48 H24         0.8050   -4.9970    7.5990 ha        1 XM1      0.163000
     49 H26        -2.4080   -4.0080   10.3410 ha        1 XM1      0.163000
     50 H27        -3.4020   -2.5050    8.6310 ha        1 XM1      0.136000
     51 HN6         4.3620    0.9480   -1.4740 hn        1 XM1      0.322700
     52 H53        -5.2300   -3.7050    3.5770 hn        1 XM1      0.467467
@<TRIPOS>BOND
     1    1    3 ar  
     2    1    9 ar  
     3    1   12 1   
     4    2   26 1   
     5    3    4 1   
     6    3    8 ar  
     7    4    5 2   
     8    4   29 1   
     9    5    7 1   
    10    5   30 1   
    11    6   22 1   
    12    6   31 1   
    13    6   32 1   
    14    6   52 1   
    15    7    8 1   
    16    7   51 1   
    17    8   11 ar  
    18    9   10 ar  
    19   10   11 ar  
    20   10   33 1   
    21   12   13 1   
    22   12   17 1   
    23   13   14 1   
    24   13   34 1   
    25   13   35 1   
    26   14   15 1   
    27   14   36 1   
    28   14   37 1   
    29   15   16 1   
    30   15   18 1   
    31   16   17 1   
    32   16   38 1   
    33   16   39 1   
    34   17   40 1   
    35   17   41 1   
    36   18   19 2   
    37   18   20 1   
    38   20   21 1   
    39   20   22 1   
    40   20   42 1   
    41   21   23 1   
    42   21   43 1   
    43   21   44 1   
    44   22   45 1   
    45   22   46 1   
    46   23   24 ar  
    47   23   28 ar  
    48   24   25 ar  
    49   24   47 1   
    50   25   26 ar  
    51   25   48 1   
    52   26   27 ar  
    53   27   28 ar  
    54   27   49 1   
    55   28   50 1   
@<TRIPOS>SUBSTRUCTURE
     1 XM1         1 TEMP              0 ****  ****    0 ROOT
