@<TRIPOS>MOLECULE
XM5
   28    27     1     0     0
SMALL
bcc


@<TRIPOS>ATOM
      1 O15        -3.6510   -0.0580   -0.7140 o         1 XM5     -0.358000
      2 C9         -2.4180    0.0690   -0.7370 c1        1 XM5      0.357000
      3 N10        -1.6760    0.2070    0.5000 n3        1 XM5     -0.250000
      4 C14        -2.3700    0.3420    1.7470 c3        1 XM5     -0.087000
      5 C3         -0.1550    0.1190    0.4840 c2        1 XM5      0.148000
      6 C4          0.5650    0.0940    1.7100 c1        1 XM5     -0.070000
      7 C5          1.9650    0.1120    1.7010 c1        1 XM5      0.072000
      8 O13         2.4080    0.1750    3.0430 os        1 XM5     -0.213000
      9 C12         1.2840    0.1370    3.8690 c3        1 XM5      0.099000
     10 O11         0.1430    0.0350    3.0520 os        1 XM5     -0.220000
     11 C6          2.6630    0.1540    0.4800 c1        1 XM5     -0.158000
     12 C1          1.9440    0.1800   -0.7490 c1        1 XM5     -0.047000
     13 C2          0.5420    0.1620   -0.7430 c2        1 XM5     -0.132000
     14 C7         -0.2230    0.1000   -2.0480 c2        1 XM5      0.169000
     15 C8         -1.6960    0.0670   -2.0330 c1        1 XM5     -0.326000
     16 O16         0.4800    0.2290   -3.2970 os        1 XM5     -0.208000
     17 C17         0.3340   -0.8650   -4.1400 c3        1 XM5     -0.079000
     18 H14        -3.3330    0.3740    1.5860 h1        1 XM5      0.102667
     19 H14A       -2.1660   -0.3970    2.2980 h1        1 XM5      0.102667
     20 H14B       -2.1040    1.1160    2.1630 h1        1 XM5      0.102667
     21 H12         1.2360    1.0080    4.4330 h2        1 XM5      0.113000
     22 H12A        1.3380   -0.6500    4.4710 h2        1 XM5      0.113000
     23 H6          3.6790    0.2370    0.4790 ha        1 XM5      0.162000
     24 H1          2.4450    0.2560   -1.6270 ha        1 XM5      0.160000
     25 H8         -2.2010    0.1440   -2.8830 ha        1 XM5      0.170000
     26 H17         0.0030   -1.5910   -3.6550 h1        1 XM5      0.093000
     27 H17A       -0.2800   -0.6460   -4.8440 h1        1 XM5      0.093000
     28 H17B        1.2420   -1.1100   -4.5440 h1        1 XM5      0.093000
@<TRIPOS>BOND
     1    1    2 1   
     2    2    3 1   
     3    3    4 1   
     4    3    5 1   
     5    4   18 1   
     6    4   19 1   
     7    4   20 1   
     8    5    6 1   
     9    5   13 1   
    10    6   10 1   
    11    7    8 1   
    12    7   11 1   
    13    8    9 1   
    14    9   10 1   
    15    9   21 1   
    16    9   22 1   
    17   11   23 1   
    18   12   13 1   
    19   12   24 1   
    20   13   14 1   
    21   14   15 1   
    22   14   16 1   
    23   15   25 1   
    24   16   17 1   
    25   17   26 1   
    26   17   27 1   
    27   17   28 1   
@<TRIPOS>SUBSTRUCTURE
     1 XM5         1 TEMP              0 ****  ****    0 ROOT
