@<TRIPOS>MOLECULE
XM5
   28    30     1     0     0
SMALL
bcc


@<TRIPOS>ATOM
      1 O15        -2.1480   -2.9860    0.0150 o         1 XM5     -0.633500
      2 C9         -1.6960   -1.8250    0.0010 c         1 XM5      0.718700
      3 N10        -0.2960   -1.6270   -0.0340 n         1 XM5     -0.347000
      4 C14         0.5930   -2.7630   -0.0520 c3        1 XM5      0.068300
      5 C3          0.2410   -0.3460   -0.0510 ca        1 XM5      0.140600
      6 C4          1.6200   -0.0840   -0.0850 ca        1 XM5     -0.024900
      7 C5          2.1400    1.2250   -0.1010 ca        1 XM5      0.117100
      8 O13         3.5260    1.1730   -0.1350 os        1 XM5     -0.329900
      9 C12         3.8950   -0.2280   -0.1400 c3        1 XM5      0.321200
     10 O11         2.6750   -1.0010   -0.1080 os        1 XM5     -0.336900
     11 C6          1.3310    2.3530   -0.0850 ca        1 XM5     -0.158000
     12 C1         -0.0430    2.1190   -0.0510 ca        1 XM5     -0.047000
     13 C2         -0.5880    0.8270   -0.0340 ca        1 XM5     -0.143800
     14 C7         -2.0250    0.6120    0.0020 cc        1 XM5      0.224900
     15 C8         -2.5520   -0.6400    0.0180 cd        1 XM5     -0.345200
     16 O16        -2.7610    1.7740    0.0160 os        1 XM5     -0.323900
     17 C17        -4.1790    1.6190    0.0510 c3        1 XM5      0.110700
     18 H14        -0.0060   -3.7120   -0.0350 h1        1 XM5      0.063367
     19 H14A        1.2250   -2.7370   -0.9800 h1        1 XM5      0.063367
     20 H14B        1.2690   -2.7320    0.8440 h1        1 XM5      0.063367
     21 H12         4.4370   -0.4490   -1.0920 h2        1 XM5      0.073700
     22 H12A        4.4830   -0.4440    0.7860 h2        1 XM5      0.073700
     23 H6          1.7520    3.3660   -0.0980 ha        1 XM5      0.162000
     24 H1         -0.7350    2.9780   -0.0360 ha        1 XM5      0.160000
     25 H8         -3.6300   -0.8500    0.0450 ha        1 XM5      0.170000
     26 H17        -4.5350    1.0760   -0.8580 h1        1 XM5      0.053700
     27 H17A       -4.4900    1.0810    0.9790 h1        1 XM5      0.053700
     28 H17B       -4.5520    2.6740    0.0570 h1        1 XM5      0.053700
@<TRIPOS>BOND
     1    1    2 2   
     2    2    3 1   
     3    2   15 1   
     4    3    4 1   
     5    3    5 1   
     6    4   18 1   
     7    4   19 1   
     8    4   20 1   
     9    5    6 ar  
    10    5   13 ar  
    11    6    7 ar  
    12    6   10 1   
    13    7    8 1   
    14    7   11 ar  
    15    8    9 1   
    16    9   10 1   
    17    9   21 1   
    18    9   22 1   
    19   11   12 ar  
    20   11   23 1   
    21   12   13 ar  
    22   12   24 1   
    23   13   14 1   
    24   14   15 2   
    25   14   16 1   
    26   15   25 1   
    27   16   17 1   
    28   17   26 1   
    29   17   27 1   
    30   17   28 1   
@<TRIPOS>SUBSTRUCTURE
     1 XM5         1 TEMP              0 ****  ****    0 ROOT
