@<TRIPOS>MOLECULE
XM5
   28    30     1     0     0
SMALL
bcc


@<TRIPOS>ATOM
      1 O15        -0.1890    0.0190    0.0200 o         1 XM5     -0.633500
      2 C9          1.0570    0.0000   -0.0040 c         1 XM5      0.718700
      3 N10         1.7730   -0.0600    1.2140 n         1 XM5     -0.347000
      4 C14         1.0610   -0.0990    2.4680 c3        1 XM5      0.068300
      5 C3          3.1620   -0.0820    1.2210 ca        1 XM5      0.140600
      6 C4          3.9300   -0.1410    2.3950 ca        1 XM5     -0.024900
      7 C5          5.3370   -0.1630    2.3770 ca        1 XM5      0.117100
      8 O13         5.8170   -0.2220    3.6780 os        1 XM5     -0.329900
      9 C12         4.6630   -0.2390    4.5520 c3        1 XM5      0.321200
     10 O11         3.4840   -0.1870    3.7200 os        1 XM5     -0.336900
     11 C6          6.0730   -0.1270    1.2000 ca        1 XM5     -0.158000
     12 C1          5.3330   -0.0680    0.0200 ca        1 XM5     -0.047000
     13 C2          3.9300   -0.0450    0.0090 ca        1 XM5     -0.143800
     14 C7          3.1840    0.0160   -1.2370 cc        1 XM5      0.224900
     15 C8          1.8250    0.0380   -1.2470 cd        1 XM5     -0.345200
     16 O16         3.9780    0.0490   -2.3600 os        1 XM5     -0.323900
     17 C17         3.2950    0.1100   -3.6110 c3        1 XM5      0.110700
     18 H14        -0.0450   -0.0730    2.2760 h1        1 XM5      0.063367
     19 H14A        1.3230   -1.0380    3.0240 h1        1 XM5      0.063367
     20 H14B        1.3520    0.7850    3.0980 h1        1 XM5      0.063367
     21 H12         4.6620   -1.2020    5.1200 h2        1 XM5      0.073700
     22 H12A        4.6910    0.6750    5.1950 h2        1 XM5      0.073700
     23 H6          7.1690   -0.1440    1.2020 ha        1 XM5      0.162000
     24 H1          5.8630   -0.0370   -0.9470 ha        1 XM5      0.160000
     25 H8          1.2210    0.0840   -2.1630 ha        1 XM5      0.170000
     26 H17         2.6830    1.0420   -3.6760 h1        1 XM5      0.053700
     27 H17A        2.6540   -0.7940   -3.7500 h1        1 XM5      0.053700
     28 H17B        4.1280    0.1270   -4.3580 h1        1 XM5      0.053700
@<TRIPOS>BOND
     1    1    2 2   
     2    2    3 1   
     3    2   15 1   
     4    3    4 1   
     5    3    5 1   
     6    4   18 1   
     7    4   19 1   
     8    4   20 1   
     9    5    6 ar  
    10    5   13 ar  
    11    6    7 ar  
    12    6   10 1   
    13    7    8 1   
    14    7   11 ar  
    15    8    9 1   
    16    9   10 1   
    17    9   21 1   
    18    9   22 1   
    19   11   12 ar  
    20   11   23 1   
    21   12   13 ar  
    22   12   24 1   
    23   13   14 1   
    24   14   15 2   
    25   14   16 1   
    26   15   25 1   
    27   16   17 1   
    28   17   26 1   
    29   17   27 1   
    30   17   28 1   
@<TRIPOS>SUBSTRUCTURE
     1 XM5         1 TEMP              0 ****  ****    0 ROOT
