@<TRIPOS>MOLECULE
XMA
   67    64     1     0     0
SMALL
bcc


@<TRIPOS>ATOM
      1 C1          0.3930   -0.7150    0.4330 c1        1 XMA     -0.009000
      2 C2          1.6790   -0.2180    0.8140 c2        1 XMA     -1.144000
      3 C3         -0.5050    0.1240    2.5910 c2        1 XMA      0.000000
      4 C4         -0.0430    1.3830    2.7710 c2        1 XMA     -0.168000
      5 C5          1.9170    0.4470    1.9480 c1        1 XMA      0.407000
      6 C6         -0.7870   -0.4100    1.2210 c3        1 XMA     -0.215000
      7 C8         -0.9580    1.5900   -1.3040 c1        1 XMA      0.082000
      8 C9         -0.7130   -0.7570    3.6660 c1        1 XMA     -0.129000
      9 C10        -0.3660    1.7160   -2.4500 c2        1 XMA     -0.522000
     10 C11        -0.9030   -1.5080    4.5810 c1        1 XMA     -0.159000
     11 S12         2.7380   -0.5850   -0.4780 s6        1 XMA      2.901000
     12 O13         4.0320   -0.1950   -0.0540 o         1 XMA     -0.932500
     13 O14         2.2450    0.0530   -1.6240 o         1 XMA     -0.932500
     14 C15         2.0730   -3.6770   -2.5050 c2        1 XMA      0.282000
     15 O16         2.0490   -3.1780   -3.6420 o         1 XMA     -0.334000
     16 C17         1.6120   -2.8690   -1.2760 c3        1 XMA     -0.031000
     17 N18         2.6880   -2.2110   -0.5880 n3        1 XMA     -0.790000
     18 C19         5.0040   -3.1640   -0.6740 c2        1 XMA      0.173000
     19 C20         5.5460   -1.8940   -1.1760 c1        1 XMA     -0.018000
     20 O21         6.5270   -1.3430   -0.5180 os        1 XMA     -0.132000
     21 C22         6.9390   -0.0400   -1.0120 c3        1 XMA     -0.066000
     22 C23         3.6710   -3.0240    0.0720 c3        1 XMA     -0.062000
     23 N24         2.4810   -4.9790   -2.2650 ns        1 XMA     -0.328000
     24 C25         3.1530   -5.7400   -3.2070 c2        1 XMA      0.029000
     25 C26         9.8560   -5.3470   -2.0650 c2        1 XMA      0.088000
     26 N27         6.4810   -6.5270   -3.1190 n7        1 XMA     -0.181000
     27 C28         7.8730   -6.3510   -3.0230 c2        1 XMA      0.128000
     28 C29         8.4210   -5.4660   -2.1230 c2        1 XMA     -0.327000
     29 C30         5.9620   -7.4150   -3.9570 c1        1 XMA     -0.097000
     30 C31         8.7860   -7.1410   -3.9090 c3        1 XMA     -0.253000
     31 C32         3.0630   -7.0990   -0.5710 c1        1 XMA     -0.087000
     32 C33         3.6660   -6.9780   -2.9970 c2        1 XMA     -0.255000
     33 O34         5.4500   -4.2790   -0.9760 o         1 XMA     -0.327000
     34 C35         4.4930   -7.6180   -4.0580 c3        1 XMA     -0.159000
     35 N36        10.7050   -6.0260   -2.8180 n2        1 XMA     -0.237000
     36 C37        10.2420   -6.9100   -3.7310 c1        1 XMA     -0.026000
     37 C38         3.5120   -7.7870   -1.7590 c3        1 XMA     -0.182000
     38 H1         -1.3570    0.3580    0.5940 hc        1 XMA      0.183000
     39 H4          0.0280    2.0990    1.9380 ha        1 XMA      0.143500
     40 H5          0.2160    1.7770    3.7640 ha        1 XMA      0.143500
     41 H8         -1.4410   -1.3260    1.2700 hc        1 XMA      0.183000
     42 H9          0.5470    1.1120   -2.6790 ha        1 XMA      0.220500
     43 H10        -0.6520    2.3750   -3.2810 ha        1 XMA      0.220500
     44 H171        0.8920   -2.0790   -1.6550 h1        1 XMA      0.130500
     45 H172        1.0500   -3.5410   -0.5650 h1        1 XMA      0.130500
     46 H201        1.4520   -0.2740   -4.0710 ha        1 XMA      0.003250
     47 H202        1.5020   -0.8580   -3.7310 ha        1 XMA      0.003250
     48 H221        7.1020   -0.0920   -2.1140 h1        1 XMA      0.110000
     49 H222        6.1370    0.6920   -0.7500 h1        1 XMA      0.110000
     50 H223        7.8870    0.1550   -0.4560 h1        1 XMA      0.110000
     51 H231        3.9230   -2.5610    1.0730 h1        1 XMA      0.120000
     52 H232        3.2640   -4.0590    0.2650 h1        1 XMA      0.120000
     53 H251        2.4250   -5.3590   -1.3280 hn        1 XMA      0.278000
     54 H252        3.2720   -5.2410   -4.1930 h4        1 XMA      0.162000
     55 H29         7.8060   -4.8520   -1.4480 ha        1 XMA      0.164000
     56 H301        6.9740   -2.5600   -2.9420 ha        1 XMA      0.003250
     57 H302        6.9050   -3.1940   -2.7060 ha        1 XMA      0.003250
     58 H31         8.5950   -8.2470   -3.7760 hc        1 XMA      0.180500
     59 H321        5.9330   -5.9360   -2.5090 hn        1 XMA      0.212000
     60 H322        3.2180   -7.6250    0.3820 ha        1 XMA      0.054000
     61 H351        4.1980   -7.2480   -5.0810 hc        1 XMA      0.125500
     62 H352        4.3300   -8.7320   -4.0590 hc        1 XMA      0.125500
     63 H37         8.5420   -6.9350   -4.9940 hc        1 XMA      0.180500
     64 H381        4.4660   -8.3690   -1.5830 hc        1 XMA      0.126000
     65 H382        2.7050   -8.5710   -1.9470 hc        1 XMA      0.126000
     66 Cl7        -1.1560   -2.5060    5.7940 cl        1 XMA      0.188000
     67 H26        10.2810   -4.6310   -1.3330 h4        1 XMA      0.150000
@<TRIPOS>BOND
     1    1    2 1   
     2    1    6 1   
     3    2    5 1   
     4    2   11 1   
     5    3    4 1   
     6    3    6 1   
     7    3    8 1   
     8    4   39 1   
     9    4   40 1   
    10    6   38 1   
    11    6   41 1   
    12    7    9 1   
    13    8   10 1   
    14    9   42 1   
    15    9   43 1   
    16   10   66 1   
    17   11   12 1   
    18   11   13 1   
    19   11   17 1   
    20   14   15 1   
    21   14   16 1   
    22   14   23 1   
    23   16   17 1   
    24   16   44 1   
    25   16   45 1   
    26   17   22 1   
    27   18   19 1   
    28   18   22 1   
    29   18   33 1   
    30   19   20 1   
    31   20   21 1   
    32   21   48 1   
    33   21   49 1   
    34   21   50 1   
    35   22   51 1   
    36   22   52 1   
    37   23   24 1   
    38   23   53 1   
    39   24   32 1   
    40   24   54 1   
    41   25   28 1   
    42   25   35 1   
    43   25   67 1   
    44   26   27 1   
    45   26   29 1   
    46   26   59 1   
    47   27   28 1   
    48   27   30 1   
    49   28   55 1   
    50   29   34 1   
    51   30   36 1   
    52   30   58 1   
    53   30   63 1   
    54   31   37 1   
    55   31   60 1   
    56   32   34 1   
    57   32   37 1   
    58   34   61 1   
    59   34   62 1   
    60   35   36 1   
    61   37   64 1   
    62   37   65 1   
    63   46   47 1   
    64   56   57 1   
@<TRIPOS>SUBSTRUCTURE
     1 XMA         1 TEMP              0 ****  ****    0 ROOT
