@<TRIPOS>MOLECULE
XMA
   67    72     1     0     0
SMALL
bcc


@<TRIPOS>ATOM
      1 C1          0.9590    0.2900    4.2750 ca        1 XMA      0.034000
      2 C2          1.2390   -0.5290    3.2000 ca        1 XMA     -0.383500
      3 C3         -1.0050   -1.0530    4.8390 ca        1 XMA      0.020000
      4 C4         -0.7010   -1.8960    3.7350 ca        1 XMA     -0.131000
      5 C5          0.3890   -1.6390    2.9440 ca        1 XMA     -0.045000
      6 C6         -0.1590    0.0520    5.1140 ca        1 XMA     -0.077000
      7 C8         -0.4510    0.8930    6.2230 ca        1 XMA     -0.089000
      8 C9         -2.1300   -1.2940    5.6730 ca        1 XMA     -0.132000
      9 C10        -1.5400    0.6470    7.0200 ca        1 XMA     -0.130000
     10 C11        -2.3860   -0.4590    6.7370 ca        1 XMA      0.044400
     11 S12         2.5860   -0.2660    2.2260 sy        1 XMA      1.516200
     12 O13         3.0070   -1.4980    1.6860 o         1 XMA     -0.651800
     13 O14         3.5460    0.4660    2.9580 o         1 XMA     -0.651800
     14 C15         2.5970    2.4870   -0.6140 c         1 XMA      0.678500
     15 O16         2.9010    3.6690   -0.8520 o         1 XMA     -0.611500
     16 C17         2.4250    2.0400    0.8410 c3        1 XMA      0.147800
     17 N18         1.9970    0.6820    1.0260 n3        1 XMA     -0.811500
     18 C19         1.7490    0.2890   -1.4130 c3        1 XMA      0.265200
     19 C20         2.6830   -0.9280   -1.6600 c3        1 XMA      0.124400
     20 O21         1.8810   -2.0970   -1.5460 os        1 XMA     -0.420600
     21 C22         2.6130   -3.2210   -1.0750 c3        1 XMA      0.100700
     22 C23         1.1140    0.1870    0.0070 c3        1 XMA      0.212800
     23 N24         2.4630    1.5580   -1.6500 n         1 XMA     -0.443800
     24 C25         2.1200    2.0220   -2.9870 c3        1 XMA      0.044000
     25 C26        -4.7810   -0.4780   -6.1690 ca        1 XMA      0.413700
     26 N27        -1.2940    0.5330   -5.2620 nh        1 XMA     -0.642000
     27 C28        -2.4060   -0.0240   -5.9290 ca        1 XMA      0.181600
     28 C29        -3.7160    0.0080   -5.3950 ca        1 XMA     -0.293300
     29 C30        -0.1150   -0.3190   -5.1710 c3        1 XMA      0.190800
     30 C31        -2.2590   -0.5700   -7.2290 ca        1 XMA     -0.293300
     31 C32        -1.5710    1.2630   -4.0350 c3        1 XMA      0.190800
     32 C33         0.8780    1.1940   -3.4210 c3        1 XMA      0.130800
     33 O34         0.6570    0.2360   -2.3570 os        1 XMA     -0.407600
     34 C35         1.1300    0.4450   -4.7240 c3        1 XMA     -0.082400
     35 N36        -4.6440   -0.9960   -7.4030 nb        1 XMA     -0.687000
     36 C37        -3.3940   -1.0330   -7.9060 ca        1 XMA      0.413700
     37 C38        -0.3670    2.0640   -3.5420 c3        1 XMA     -0.082400
     38 H1          1.6220    1.1440    4.5060 ha        1 XMA      0.156000
     39 H4         -1.3540   -2.7590    3.5320 ha        1 XMA      0.146000
     40 H5          0.6380   -2.3070    2.1000 ha        1 XMA      0.155000
     41 H8          0.2150    1.7460    6.4310 ha        1 XMA      0.146000
     42 H9         -2.7810   -2.1540    5.4510 ha        1 XMA      0.155000
     43 H10        -1.7690    1.2960    7.8800 ha        1 XMA      0.155000
     44 H171        1.6650    2.7480    1.2870 h1        1 XMA      0.092700
     45 H172        3.4140    2.2080    1.3650 h1        1 XMA      0.092700
     46 H201        3.1060   -0.8910   -2.6980 h1        1 XMA      0.052700
     47 H202        3.5100   -0.9250   -0.9030 h1        1 XMA      0.052700
     48 H221        1.8640   -4.0520   -1.0750 h1        1 XMA      0.046367
     49 H222        3.4550   -3.4570   -1.7710 h1        1 XMA      0.046367
     50 H223        3.0010   -3.0320   -0.0420 h1        1 XMA      0.046367
     51 H231        0.1490    0.7700    0.0060 h1        1 XMA      0.080200
     52 H232        0.8780   -0.9000    0.1950 h1        1 XMA      0.080200
     53 H251        1.9100    3.1260   -2.9930 h1        1 XMA      0.079700
     54 H252        2.9900    1.8170   -3.6690 h1        1 XMA      0.079700
     55 H29        -3.9220    0.3980   -4.3900 ha        1 XMA      0.143500
     56 H301       -0.2900   -1.1600   -4.4360 h1        1 XMA      0.050450
     57 H302        0.0880   -0.7710   -6.1810 h1        1 XMA      0.050450
     58 H31        -1.2790   -0.6210   -7.7230 ha        1 XMA      0.143500
     59 H321       -1.8890    0.5620   -3.2080 h1        1 XMA      0.050450
     60 H322       -2.4130    1.9830   -4.2370 h1        1 XMA      0.050450
     61 H351        1.4390    1.1830   -5.5070 hc        1 XMA      0.060950
     62 H352        1.9590   -0.2960   -4.5810 hc        1 XMA      0.060950
     63 H37        -3.3000   -1.4600   -8.9210 h4        1 XMA      0.019100
     64 H381       -0.6240    2.5010   -2.5440 hc        1 XMA      0.060950
     65 H382       -0.1450    2.9040   -4.2520 hc        1 XMA      0.060950
     66 CL7        -3.7270   -0.7360    7.7400 cl        1 XMA     -0.077400
     67 H26        -5.8110   -0.4560   -5.7700 h4        1 XMA      0.019100
@<TRIPOS>BOND
     1    1    2 ar  
     2    1    6 ar  
     3    1   38 1   
     4    2    5 ar  
     5    2   11 1   
     6    3    4 ar  
     7    3    6 ar  
     8    3    8 ar  
     9    4    5 ar  
    10    4   39 1   
    11    5   40 1   
    12    6    7 ar  
    13    7    9 ar  
    14    7   41 1   
    15    8   10 ar  
    16    8   42 1   
    17    9   10 ar  
    18    9   43 1   
    19   10   66 1   
    20   11   12 2   
    21   11   13 2   
    22   11   17 1   
    23   14   15 2   
    24   14   16 1   
    25   14   23 1   
    26   16   17 1   
    27   16   44 1   
    28   16   45 1   
    29   17   22 1   
    30   18   19 1   
    31   18   22 1   
    32   18   23 1   
    33   18   33 1   
    34   19   20 1   
    35   19   46 1   
    36   19   47 1   
    37   20   21 1   
    38   21   48 1   
    39   21   49 1   
    40   21   50 1   
    41   22   51 1   
    42   22   52 1   
    43   23   24 1   
    44   24   32 1   
    45   24   53 1   
    46   24   54 1   
    47   25   28 ar  
    48   25   35 ar  
    49   25   67 1   
    50   26   27 1   
    51   26   29 1   
    52   26   31 1   
    53   27   28 ar  
    54   27   30 ar  
    55   28   55 1   
    56   29   34 1   
    57   29   56 1   
    58   29   57 1   
    59   30   36 ar  
    60   30   58 1   
    61   31   37 1   
    62   31   59 1   
    63   31   60 1   
    64   32   33 1   
    65   32   34 1   
    66   32   37 1   
    67   34   61 1   
    68   34   62 1   
    69   35   36 ar  
    70   36   63 1   
    71   37   64 1   
    72   37   65 1   
@<TRIPOS>SUBSTRUCTURE
     1 XMA         1 TEMP              0 ****  ****    0 ROOT
