@<TRIPOS>MOLECULE
XMA
   67    65     1     0     0
SMALL
bcc


@<TRIPOS>ATOM
      1 C1         -0.3280   -0.3140    0.3250 c2        1 XMA     -0.051000
      2 C2          1.0050   -0.9190    0.3090 c2        1 XMA     -1.072000
      3 C3         -0.2420   -0.1220    2.7520 c2        1 XMA      0.090000
      4 C4          0.1460   -1.3620    3.1540 c2        1 XMA     -0.189000
      5 C5          1.5140   -1.4520    1.4240 c1        1 XMA      0.274000
      6 C6         -0.9130    0.0780    1.4690 c2        1 XMA     -0.170000
      7 C8         -3.8420    1.7750    1.1320 c1        1 XMA      0.151000
      8 C9          0.0270    1.0280    3.5150 c1        1 XMA     -0.124000
      9 C10        -4.8190    2.5960    0.8740 c2        1 XMA     -0.539000
     10 C11         0.2510    2.0140    4.1600 c1        1 XMA     -0.149000
     11 S12         1.8110   -0.8190   -1.1730 s6        1 XMA      2.867000
     12 O13         2.9750   -0.0520   -0.9960 o         1 XMA     -0.917500
     13 O14         0.9160   -0.3980   -2.1710 o         1 XMA     -0.917500
     14 C15         2.5050   -3.9020   -3.3850 c2        1 XMA      0.280000
     15 O16         2.9130   -3.3140   -4.4040 o         1 XMA     -0.350000
     16 C17         1.5510   -3.1960   -2.4020 c3        1 XMA     -0.043000
     17 N18         2.2490   -2.3850   -1.4420 n3        1 XMA     -0.814000
     18 C19         4.6440   -3.1630   -1.2650 c2        1 XMA      0.225000
     19 C20         5.1330   -2.0100   -2.0940 c3        1 XMA     -0.092000
     20 O21         6.5320   -2.1840   -2.3050 os        1 XMA     -0.274000
     21 C22         7.0580   -1.2270   -3.2130 c3        1 XMA     -0.077000
     22 C23         3.2520   -3.0300   -0.6450 c3        1 XMA     -0.075000
     23 N24         2.8760   -5.1920   -3.0610 n         1 XMA     -0.327000
     24 C25         3.8680   -5.8810   -3.7450 c2        1 XMA      0.010000
     25 C26         9.9500   -4.4010   -1.3410 c2        1 XMA      0.088000
     26 N27         7.0820   -6.2160   -2.8840 n3        1 XMA     -0.174000
     27 C28         8.3820   -5.8390   -2.4900 c2        1 XMA      0.116000
     28 C29         8.5970   -4.7180   -1.7250 c2        1 XMA     -0.314000
     29 C30         6.8920   -7.2350   -3.7080 c1        1 XMA     -0.105000
     30 C31         9.5530   -6.6720   -2.9060 c3        1 XMA     -0.251000
     31 C32         2.9890   -7.3310   -1.3210 c1        1 XMA     -0.088000
     32 C33         4.3840   -7.0810   -3.3840 c2        1 XMA     -0.234000
     33 O34         5.3090   -4.1780   -1.0410 o         1 XMA     -0.293000
     34 C35         5.5320   -7.6440   -4.1500 c3        1 XMA     -0.161000
     35 N36        11.0190   -5.1050   -1.6730 n2        1 XMA     -0.239000
     36 C37        10.8870   -6.2130   -2.4380 c1        1 XMA     -0.030000
     37 C38         3.9340   -7.9190   -2.2410 c3        1 XMA     -0.186000
     38 H1         -0.8250   -0.1840   -0.6530 ha        1 XMA      0.170000
     39 H4         -0.2280   -2.2770    2.6640 ha        1 XMA      0.144500
     40 H5          0.7220   -1.5220    4.0750 ha        1 XMA      0.144500
     41 H8         -1.8950    0.5910    1.4820 ha        1 XMA      0.201000
     42 H9         -5.7980    2.5640    1.3800 ha        1 XMA      0.197000
     43 H10        -4.7550    3.4020    0.1230 ha        1 XMA      0.197000
     44 H171        0.9090   -3.9570   -1.8700 h1        1 XMA      0.125500
     45 H172        0.8780   -2.5360   -3.0280 h1        1 XMA      0.125500
     46 H201        4.9510   -1.0360   -1.5580 h1        1 XMA      0.127500
     47 H202        4.5880   -2.0100   -3.0800 h1        1 XMA      0.127500
     48 H221        6.5760   -1.3320   -4.2170 h1        1 XMA      0.080667
     49 H222        6.9060   -0.1910   -2.8220 h1        1 XMA      0.080667
     50 H223        8.1470   -1.4730   -3.2710 h1        1 XMA      0.080667
     51 H231        3.3940   -2.4420    0.3150 h1        1 XMA      0.124500
     52 H232        2.9070   -4.0680   -0.3570 h1        1 XMA      0.124500
     53 H251        2.5100   -5.6330   -2.2230 hn        1 XMA      0.284000
     54 H252        4.2510   -5.3530   -4.6450 h4        1 XMA      0.162000
     55 H29         7.7800   -4.0480   -1.4020 ha        1 XMA      0.183000
     56 H301        7.4740   -2.4400    0.2440 ha        1 XMA      0.001000
     57 H302        6.8240   -2.5070    0.0630 ha        1 XMA      0.001000
     58 H31         9.4180   -7.7370   -2.5550 hc        1 XMA      0.178000
     59 H321        6.3400   -5.6460   -2.5020 hn        1 XMA      0.209000
     60 H322        2.7990   -7.8910   -0.3940 ha        1 XMA      0.057000
     61 H351        5.4650   -7.3650   -5.2400 hc        1 XMA      0.124500
     62 H352        5.5150   -8.7690   -4.1030 hc        1 XMA      0.124500
     63 H37         9.5950   -6.7400   -4.0330 hc        1 XMA      0.178000
     64 H381        4.8470   -8.3070   -1.6950 hc        1 XMA      0.132500
     65 H382        3.4180   -8.8440   -2.6620 hc        1 XMA      0.132500
     66 CL7         0.5470    3.3210    5.0180 cl        1 XMA      0.188000
     67 H26        10.1030   -3.4970   -0.7170 h4        1 XMA      0.152000
@<TRIPOS>BOND
     1    1    2 1   
     2    1    6 1   
     3    1   38 1   
     4    2    5 1   
     5    2   11 1   
     6    3    4 1   
     7    3    6 1   
     8    3    8 1   
     9    4   39 1   
    10    4   40 1   
    11    6   41 1   
    12    7    9 1   
    13    8   10 1   
    14    9   42 1   
    15    9   43 1   
    16   10   66 1   
    17   11   12 1   
    18   11   13 1   
    19   11   17 1   
    20   14   15 1   
    21   14   16 1   
    22   14   23 1   
    23   16   17 1   
    24   16   44 1   
    25   16   45 1   
    26   17   22 1   
    27   18   19 1   
    28   18   22 1   
    29   18   33 1   
    30   19   20 1   
    31   19   46 1   
    32   19   47 1   
    33   20   21 1   
    34   21   48 1   
    35   21   49 1   
    36   21   50 1   
    37   22   51 1   
    38   22   52 1   
    39   23   24 1   
    40   23   53 1   
    41   24   32 1   
    42   24   54 1   
    43   25   28 1   
    44   25   35 1   
    45   25   67 1   
    46   26   27 1   
    47   26   29 1   
    48   26   59 1   
    49   27   28 1   
    50   27   30 1   
    51   28   55 1   
    52   29   34 1   
    53   30   36 1   
    54   30   58 1   
    55   30   63 1   
    56   31   37 1   
    57   31   60 1   
    58   32   34 1   
    59   32   37 1   
    60   34   61 1   
    61   34   62 1   
    62   35   36 1   
    63   37   64 1   
    64   37   65 1   
    65   56   57 1   
@<TRIPOS>SUBSTRUCTURE
     1 XMA         1 TEMP              0 ****  ****    0 ROOT
