@<TRIPOS>MOLECULE
XMB
   77    80     1     0     0
SMALL
bcc


@<TRIPOS>ATOM
      1 C1         -0.2700    0.0300   -0.3980 c         1 XMB      0.646100
      2 O2         -0.7280    1.1890   -0.4740 o         1 XMB     -0.583100
      3 N3         -1.0600   -1.0760   -0.2370 n         1 XMB     -0.437800
      4 C4         -2.5140   -0.9300   -0.2930 c3        1 XMB      0.112000
      5 C5         -3.1470   -1.6080   -1.4980 c3        1 XMB     -0.350100
      6 S6         -2.8070   -3.2760   -1.6590 s6        1 XMB      1.342000
      7 O7         -3.1470   -3.7040   -2.9330 o         1 XMB     -0.615300
      8 O8         -3.2520   -3.9550   -0.5280 o         1 XMB     -0.615300
      9 C9         -0.5930   -2.4460   -0.3220 c3        1 XMB      0.112000
     10 C10        -1.0810   -3.1760   -1.5620 c3        1 XMB     -0.350100
     11 C11         5.1800   -2.0170    5.0090 ca        1 XMB      0.130000
     12 C12         4.0060   -1.2420    4.8280 ca        1 XMB     -0.675500
     13 C13         4.1240   -3.3480    6.7660 ca        1 XMB      0.092000
     14 C14         2.9320   -2.5780    6.5850 ca        1 XMB     -0.104000
     15 C15         2.8760   -1.5780    5.6660 ca        1 XMB     -0.045000
     16 C16         5.2600   -3.0430    5.9470 ca        1 XMB     -0.112000
     17 C17         6.4600   -3.8020    6.1260 ca        1 XMB     -0.052000
     18 C18         4.2060   -4.3760    7.7210 ca        1 XMB     -0.165000
     19 C19         6.5220   -4.7980    7.0630 ca        1 XMB     -0.124000
     20 C20         5.3880   -5.0940    7.8730 ca        1 XMB      0.123400
     21 Cl21        5.4950   -6.3180    9.0130 cl        1 XMB      0.034600
     22 S22         3.9120   -0.0770    3.8560 s4        1 XMB      1.685300
     23 O23         2.7840    0.6780    3.8020 o         1 XMB     -0.437900
     24 N24         3.0300   -0.7960    1.3670 n8        1 XMB     -0.982800
     25 C25         1.2860   -0.1110   -0.3750 c3        1 XMB      0.003500
     26 C26         1.7100   -0.2800    1.1080 c3        1 XMB      0.116800
     27 N27         1.9000    1.1060   -1.0060 ny        1 XMB     -0.765000
     28 O28         4.9960    0.2430    3.1020 o         1 XMB     -0.437900
     29 C29         2.0680    0.9710   -2.4870 c3        1 XMB      0.103800
     30 C30         1.8890    7.4080   -7.1050 ca        1 XMB      0.422700
     31 N31         2.5090    4.2790   -5.1840 nh        1 XMB     -0.643000
     32 C32         2.7140    5.3860   -6.0520 ca        1 XMB      0.146600
     33 C33         1.6990    6.3620   -6.1890 ca        1 XMB     -0.279800
     34 C34         3.4150    3.1570   -5.3440 c3        1 XMB      0.189800
     35 C35         3.8690    5.5290   -6.8490 ca        1 XMB     -0.279800
     36 C36         2.2680    4.6190   -3.7920 c3        1 XMB      0.189800
     37 C37         2.6660    2.2280   -3.1300 c3        1 XMB     -0.088700
     38 C38         2.9180    1.9140   -4.6010 c3        1 XMB     -0.087900
     39 N39         2.9870    7.5470   -7.8730 nb        1 XMB     -0.654000
     40 C40         3.9480    6.6150   -7.7380 ca        1 XMB      0.422700
     41 C41         1.7370    3.4240   -2.9940 c3        1 XMB     -0.087900
     42 H41        -2.9240   -1.3960    0.6520 h1        1 XMB      0.085700
     43 H42        -2.7810    0.1660   -0.2920 h1        1 XMB      0.085700
     44 H51        -4.2610   -1.4560   -1.3910 h1        1 XMB      0.135200
     45 H52        -2.8830   -1.0470   -2.4340 h1        1 XMB      0.135200
     46 H91         0.5280   -2.4910   -0.2700 h1        1 XMB      0.085700
     47 H92        -0.9960   -2.9870    0.5900 h1        1 XMB      0.085700
     48 H101       -0.6530   -4.2160   -1.5270 h1        1 XMB      0.135200
     49 H102       -0.6570   -2.7150   -2.4900 h1        1 XMB      0.135200
     50 H14         2.0560   -2.8110    7.2190 ha        1 XMB      0.184000
     51 H15         1.9520   -0.9820    5.5480 ha        1 XMB      0.168000
     52 H17         7.3380   -3.5670    5.5000 ha        1 XMB      0.167000
     53 H18         3.3280   -4.6030    8.3510 ha        1 XMB      0.186000
     54 H19         7.4500   -5.3820    7.2050 ha        1 XMB      0.191000
     55 H24         3.1030   -1.7660    1.1210 hn        1 XMB      0.386300
     56 H25         1.6110   -0.9990   -0.9930 hx        1 XMB      0.119700
     57 H261        0.9640   -0.9870    1.5810 h1        1 XMB      0.116200
     58 H262        1.6060    0.7120    1.6450 h1        1 XMB      0.116200
     59 H27         1.2710    1.9170   -0.8290 hn        1 XMB      0.465800
     60 H291        1.0480    0.7700   -2.9260 hx        1 XMB      0.105700
     61 H292        2.7400    0.0880   -2.6870 hx        1 XMB      0.105700
     62 H30         1.1110    8.1840   -7.2360 h4        1 XMB      0.035600
     63 H33         0.7660    6.3080   -5.6140 ha        1 XMB      0.143500
     64 H341        3.4790    2.9090   -6.4420 h1        1 XMB      0.057950
     65 H342        4.4560    3.4000   -4.9770 h1        1 XMB      0.057950
     66 H35         4.7050    4.8190   -6.8000 ha        1 XMB      0.143500
     67 H361        3.2100    4.9900   -3.2890 h1        1 XMB      0.057950
     68 H362        1.5040    5.4450   -3.7500 h1        1 XMB      0.057950
     69 H37         3.6530    2.4710   -2.6450 hc        1 XMB      0.065700
     70 H381        1.9720    1.5450   -5.0790 hc        1 XMB      0.058200
     71 H382        3.6960    1.1130   -4.6960 hc        1 XMB      0.058200
     72 H40         4.8390    6.7480   -8.3800 h4        1 XMB      0.035600
     73 H411        1.6540    3.7460   -1.9230 hc        1 XMB      0.058200
     74 H412        0.7110    3.1550   -3.3590 hc        1 XMB      0.058200
     75 H242        3.7460   -0.2830    0.8850 hn        1 XMB      0.386300
     76 H272        2.8060    1.3060   -0.5760 hn        1 XMB      0.465800
     77 H11         6.0690   -1.7870    4.3880 ha        1 XMB      0.169000
@<TRIPOS>BOND
     1    1    2 2   
     2    1    3 1   
     3    1   25 1   
     4    3    4 1   
     5    3    9 1   
     6    4    5 1   
     7    4   42 1   
     8    4   43 1   
     9    5    6 1   
    10    5   44 1   
    11    5   45 1   
    12    6    7 2   
    13    6    8 2   
    14    6   10 1   
    15    9   10 1   
    16    9   46 1   
    17    9   47 1   
    18   10   48 1   
    19   10   49 1   
    20   11   12 ar  
    21   11   16 ar  
    22   11   77 1   
    23   12   15 ar  
    24   12   22 1   
    25   13   14 ar  
    26   13   16 ar  
    27   13   18 ar  
    28   14   15 ar  
    29   14   50 1   
    30   15   51 1   
    31   16   17 ar  
    32   17   19 ar  
    33   17   52 1   
    34   18   20 ar  
    35   18   53 1   
    36   19   20 ar  
    37   19   54 1   
    38   20   21 1   
    39   22   23 1   
    40   22   28 1   
    41   24   26 1   
    42   24   55 1   
    43   24   75 1   
    44   25   26 1   
    45   25   27 1   
    46   25   56 1   
    47   26   57 1   
    48   26   58 1   
    49   27   29 1   
    50   27   59 1   
    51   27   76 1   
    52   29   37 1   
    53   29   60 1   
    54   29   61 1   
    55   30   33 ar  
    56   30   39 ar  
    57   30   62 1   
    58   31   32 1   
    59   31   34 1   
    60   31   36 1   
    61   32   33 ar  
    62   32   35 ar  
    63   33   63 1   
    64   34   38 1   
    65   34   64 1   
    66   34   65 1   
    67   35   40 ar  
    68   35   66 1   
    69   36   41 1   
    70   36   67 1   
    71   36   68 1   
    72   37   38 1   
    73   37   41 1   
    74   37   69 1   
    75   38   70 1   
    76   38   71 1   
    77   39   40 ar  
    78   40   72 1   
    79   41   73 1   
    80   41   74 1   
@<TRIPOS>SUBSTRUCTURE
     1 XMB         1 TEMP              0 ****  ****    0 ROOT
