@<TRIPOS>MOLECULE
XMB
   77    80     1     0     0
SMALL
bcc


@<TRIPOS>ATOM
      1 C1         -0.2650    0.0280   -0.4170 c         1 XMB      0.646100
      2 O2         -0.7300    1.1850   -0.4950 o         1 XMB     -0.583100
      3 N3         -1.0480   -1.0830   -0.2630 n         1 XMB     -0.437800
      4 C4         -2.5030   -0.9470   -0.3280 c3        1 XMB      0.112000
      5 C5         -3.1240   -1.6290   -1.5370 c3        1 XMB     -0.350100
      6 S6         -2.7710   -3.2940   -1.6980 s6        1 XMB      1.342000
      7 O7         -3.1000   -3.7230   -2.9750 o         1 XMB     -0.615300
      8 O8         -3.2190   -3.9770   -0.5700 o         1 XMB     -0.615300
      9 C9         -0.5720   -2.4500   -0.3460 c3        1 XMB      0.112000
     10 C10        -1.0460   -3.1810   -1.5900 c3        1 XMB     -0.350100
     11 C11         5.1670   -1.9870    5.0200 ca        1 XMB      0.130000
     12 C12         3.9880   -1.2220    4.8330 ca        1 XMB     -0.675500
     13 C13         4.1130   -3.3310    6.7680 ca        1 XMB      0.092000
     14 C14         2.9150   -2.5720    6.5810 ca        1 XMB     -0.104000
     15 C15         2.8560   -1.5710    5.6630 ca        1 XMB     -0.045000
     16 C16         5.2510   -3.0140    5.9560 ca        1 XMB     -0.112000
     17 C17         6.4570   -3.7620    6.1410 ca        1 XMB     -0.052000
     18 C18         4.1990   -4.3610    7.7210 ca        1 XMB     -0.165000
     19 C19         6.5220   -4.7610    7.0760 ca        1 XMB     -0.124000
     20 C20         5.3860   -5.0690    7.8780 ca        1 XMB      0.123400
     21 CL21        5.4970   -6.2940    9.0160 cl        1 XMB      0.034600
     22 S22         3.8890   -0.0560    3.8630 s4        1 XMB      1.685300
     23 O23         2.7550    0.6890    3.8040 o         1 XMB     -0.437900
     24 N24         3.0290   -0.7760    1.3670 n3        1 XMB     -0.982800
     25 C25         1.2920   -0.1020   -0.3850 c3        1 XMB      0.003500
     26 C26         1.7080   -0.2700    1.1010 c3        1 XMB      0.116800
     27 N27         1.9010    1.1200   -1.0110 n4        1 XMB     -0.765000
     28 O28         4.9750    0.2760    3.1170 o         1 XMB     -0.437900
     29 C29         2.0820    0.9880   -2.4910 c3        1 XMB      0.103800
     30 C30         1.8890    7.4260   -7.1060 ca        1 XMB      0.422700
     31 N31         2.5170    4.3000   -5.1820 nh        1 XMB     -0.643000
     32 C32         2.7210    5.4100   -6.0480 ca        1 XMB      0.146600
     33 C33         1.7000    6.3770   -6.1930 ca        1 XMB     -0.279800
     34 C34         3.4340    3.1850   -5.3360 c3        1 XMB      0.189800
     35 C35         3.8820    5.5620   -6.8360 ca        1 XMB     -0.279800
     36 C36         2.2640    4.6370   -3.7920 c3        1 XMB      0.189800
     37 C37         2.6740    2.2490   -3.1280 c3        1 XMB     -0.088700
     38 C38         2.9400    1.9380   -4.5980 c3        1 XMB     -0.087900
     39 N39         2.9920    7.5740   -7.8650 nb        1 XMB     -0.654000
     40 C40         3.9590    6.6490   -7.7230 ca        1 XMB      0.422700
     41 C41         1.7350    3.4380   -2.9980 c3        1 XMB     -0.087900
     42 H41        -2.7780    0.1470   -0.3280 h1        1 XMB      0.085700
     43 H42        -2.9160   -1.4170    0.6140 h1        1 XMB      0.085700
     44 H51        -2.8570   -1.0640   -2.4710 h1        1 XMB      0.135200
     45 H52        -4.2400   -1.4840   -1.4370 h1        1 XMB      0.135200
     46 H91         0.5500   -2.4870   -0.2880 h1        1 XMB      0.085700
     47 H92        -0.9760   -2.9950    0.5630 h1        1 XMB      0.085700
     48 H101       -0.6120   -4.2190   -1.5540 h1        1 XMB      0.135200
     49 H102       -0.6200   -2.7170   -2.5160 h1        1 XMB      0.135200
     50 H14         2.0380   -2.8150    7.2080 ha        1 XMB      0.184000
     51 H15         1.9270   -0.9830    5.5410 ha        1 XMB      0.168000
     52 H17         7.3370   -3.5180    5.5210 ha        1 XMB      0.167000
     53 H18         3.3180   -4.5970    8.3440 ha        1 XMB      0.186000
     54 H19         7.4550   -5.3360    7.2230 ha        1 XMB      0.191000
     55 H24         3.1110   -1.7460    1.1200 hn        1 XMB      0.386300
     56 H25         1.6260   -0.9870   -1.0020 hx        1 XMB      0.119700
     57 H261        0.9630   -0.9820    1.5680 h1        1 XMB      0.116200
     58 H262        1.5930    0.7210    1.6380 h1        1 XMB      0.116200
     59 H27         1.2650    1.9270   -0.8370 hn        1 XMB      0.465800
     60 H291        2.7610    0.1100   -2.6860 hx        1 XMB      0.105700
     61 H292        1.0660    0.7790   -2.9370 hx        1 XMB      0.105700
     62 H30         1.1060    8.1950   -7.2430 h4        1 XMB      0.035600
     63 H33         0.7620    6.3160   -5.6250 ha        1 XMB      0.143500
     64 H341        3.5080    2.9390   -6.4340 h1        1 XMB      0.057950
     65 H342        4.4700    3.4360   -4.9610 h1        1 XMB      0.057950
     66 H35         4.7220    4.8580   -6.7800 ha        1 XMB      0.143500
     67 H361        3.1980    5.0160   -3.2820 h1        1 XMB      0.057950
     68 H362        1.4930    5.4580   -3.7560 h1        1 XMB      0.057950
     69 H37         3.6560    2.4990   -2.6350 hc        1 XMB      0.065700
     70 H381        2.0010    1.5620   -5.0820 hc        1 XMB      0.058200
     71 H382        3.7240    1.1430   -4.6870 hc        1 XMB      0.058200
     72 H40         4.8540    6.7890   -8.3580 h4        1 XMB      0.035600
     73 H411        0.7140    3.1610   -3.3720 hc        1 XMB      0.058200
     74 H412        1.6420    3.7590   -1.9280 hc        1 XMB      0.058200
     75 H242        3.7450   -0.2580    0.8910 hn        1 XMB      0.386300
     76 H272        2.8030    1.3260   -0.5740 hn        1 XMB      0.465800
     77 H11         6.0590   -1.7470    4.4040 ha        1 XMB      0.169000
@<TRIPOS>BOND
     1    1    2 2   
     2    1    3 1   
     3    1   25 1   
     4    3    4 1   
     5    3    9 1   
     6    4    5 1   
     7    4   42 1   
     8    4   43 1   
     9    5    6 1   
    10    5   44 1   
    11    5   45 1   
    12    6    7 2   
    13    6    8 2   
    14    6   10 1   
    15    9   10 1   
    16    9   46 1   
    17    9   47 1   
    18   10   48 1   
    19   10   49 1   
    20   11   12 ar  
    21   11   16 ar  
    22   11   77 1   
    23   12   15 ar  
    24   12   22 1   
    25   13   14 ar  
    26   13   16 ar  
    27   13   18 ar  
    28   14   15 ar  
    29   14   50 1   
    30   15   51 1   
    31   16   17 ar  
    32   17   19 ar  
    33   17   52 1   
    34   18   20 ar  
    35   18   53 1   
    36   19   20 ar  
    37   19   54 1   
    38   20   21 1   
    39   22   23 1   
    40   22   28 1   
    41   24   26 1   
    42   24   55 1   
    43   24   75 1   
    44   25   26 1   
    45   25   27 1   
    46   25   56 1   
    47   26   57 1   
    48   26   58 1   
    49   27   29 1   
    50   27   59 1   
    51   27   76 1   
    52   29   37 1   
    53   29   60 1   
    54   29   61 1   
    55   30   33 ar  
    56   30   39 ar  
    57   30   62 1   
    58   31   32 1   
    59   31   34 1   
    60   31   36 1   
    61   32   33 ar  
    62   32   35 ar  
    63   33   63 1   
    64   34   38 1   
    65   34   64 1   
    66   34   65 1   
    67   35   40 ar  
    68   35   66 1   
    69   36   41 1   
    70   36   67 1   
    71   36   68 1   
    72   37   38 1   
    73   37   41 1   
    74   37   69 1   
    75   38   70 1   
    76   38   71 1   
    77   39   40 ar  
    78   40   72 1   
    79   41   73 1   
    80   41   74 1   
@<TRIPOS>SUBSTRUCTURE
     1 XMB         1 TEMP              0 ****  ****    0 ROOT
