@<TRIPOS>MOLECULE
XMB
   75    69     1     0     0
SMALL
bcc


@<TRIPOS>ATOM
      1 C1         -3.2010   -0.4140    0.5360 c1        1 XMB      0.307000
      2 O2         -3.8050    0.6210    0.5190 o         1 XMB     -0.356000
      3 N3         -3.9310   -1.6870    0.6130 n2        1 XMB     -0.314000
      4 C4         -5.4530   -1.7390    0.6700 c3        1 XMB     -0.008000
      5 C5         -6.0990   -2.6440   -0.3920 c3        1 XMB     -0.893000
      6 S6         -5.3850   -4.1890   -0.3250 s4        1 XMB      2.025800
      7 O7         -5.8920   -5.0000   -1.4190 o         1 XMB     -0.537900
      8 O8         -5.7120   -4.8140    0.9160 o         1 XMB     -0.537900
      9 C9         -3.2150   -3.0340    0.6380 c3        1 XMB      0.010000
     10 C10        -3.6990   -4.0310   -0.4220 c2        1 XMB     -0.898000
     11 C11         2.4090   -1.0750    5.2340 c1        1 XMB     -0.079000
     12 C12         2.3760   -0.6120    3.9170 c1        1 XMB     -0.835000
     13 C13         4.5130   -2.1620    4.8230 c1        1 XMB     -0.029000
     14 C14         4.4780   -1.6940    3.4900 c1        1 XMB     -0.079000
     15 C15         3.4040   -0.9200    3.0500 c1        1 XMB     -0.050000
     16 C16         3.4930   -1.8570    5.6800 c1        1 XMB     -0.029000
     17 C17         3.5600   -2.2680    7.0280 c1        1 XMB     -0.079000
     18 C18         5.6340   -2.8910    5.2890 c1        1 XMB     -0.079000
     19 C19         4.6630   -2.9840    7.4830 c1        1 XMB     -0.129000
     20 C20         5.6990   -3.2940    6.6120 c1        1 XMB     -0.032000
     21 CL21        7.0640   -4.2180    7.1660 cl        1 XMB      0.004000
     22 S22         1.0350    0.3830    3.2460 s4        1 XMB      2.084800
     23 O23         0.1720    0.8750    4.2930 o         1 XMB     -0.549400
     24 N24         0.1610   -0.5100    2.0950 n2        1 XMB     -0.895000
     25 C25        -1.6840   -0.4030    0.6050 c3        1 XMB     -0.047000
     26 C26        -1.2560   -0.3840    2.0230 c3        1 XMB     -0.038000
     27 N27        -1.1750    0.7860   -0.0720 n3        1 XMB     -0.324000
     28 O28         1.5320    1.6310    2.6820 o         1 XMB     -0.549400
     29 C29        -1.1190    0.5430   -1.5010 c3        1 XMB     -0.053000
     30 C30         2.8350    5.7930   -5.3770 c1        1 XMB     -0.048000
     31 N31         0.4610    2.9860   -4.6840 n3        1 XMB     -0.245000
     32 C32         1.2000    4.0540   -5.3940 c2        1 XMB      0.101000
     33 C33         2.0210    4.8950   -4.6960 c1        1 XMB     -0.238000
     34 C34         1.4130    2.1290   -3.9480 c3        1 XMB     -0.046500
     35 C35         1.1810    4.0980   -6.7620 c2        1 XMB     -0.221000
     36 C36        -0.5670    3.5880   -3.8070 c3        1 XMB     -0.046500
     37 C37        -0.3200    1.6950   -2.1990 c3        1 XMB     -0.122000
     38 C38         0.7160    1.0930   -3.0910 c3        1 XMB     -0.153500
     39 N39         2.8130    5.8350   -6.7490 n1        1 XMB     -0.161000
     40 C40         1.9960    4.9970   -7.4420 c1        1 XMB     -0.053000
     41 C41        -1.2740    2.5550   -2.9450 c3        1 XMB     -0.153500
     42 H41        -5.7190   -2.0630    1.5600 h1        1 XMB      0.123000
     43 H42        -5.7900   -0.8530    0.5580 h1        1 XMB      0.123000
     44 H51        -6.1380   -2.2510   -1.3170 h1        1 XMB      0.169000
     45 H52        -7.0760   -2.7270   -0.1880 h1        1 XMB      0.169000
     46 H91        -2.2310   -2.8740    0.4980 h1        1 XMB      0.106500
     47 H92        -3.3430   -3.4360    1.5240 h1        1 XMB      0.106500
     48 H101       -3.3860   -3.8350   -1.3100 ha        1 XMB      0.172000
     49 H102       -3.2720   -4.9080   -0.2660 ha        1 XMB      0.172000
     50 H11         1.6910   -0.8600    5.8370 ha        1 XMB      0.152250
     51 H14         5.1940   -1.9070    2.8880 ha        1 XMB      0.152250
     52 H15         3.3800   -0.5980    2.1340 ha        1 XMB      0.150000
     53 H17         2.8400   -2.0520    7.6340 ha        1 XMB      0.152250
     54 H18         6.3440   -3.1050    4.6920 ha        1 XMB      0.152250
     55 H19         4.7090   -3.2650    8.4100 ha        1 XMB      0.156000
     56 H24         0.5980   -1.0430    1.5080 hn        1 XMB      0.242000
     57 H25        -1.3290   -1.2120    0.1630 h1        1 XMB      0.107000
     58 H261       -1.6720   -1.1260    2.4980 h1        1 XMB      0.118500
     59 H262       -1.5240    0.4480    2.4290 h1        1 XMB      0.118500
     60 H27        -0.3300    0.9800    0.2400 hn        1 XMB      0.199000
     61 H291       -0.6830   -0.2970   -1.6660 h1        1 XMB      0.062000
     62 H292       -2.0270    0.5140   -1.8610 h1        1 XMB      0.062000
     63 H30         3.4140    6.3860   -4.8870 ha        1 XMB      0.157000
     64 H33         2.0360    4.8640   -3.6950 ha        1 XMB      0.145000
     65 H341        1.9840    1.6750   -4.5850 h1        1 XMB      0.082500
     66 H342        1.9780    2.7050   -3.3630 h1        1 XMB      0.082500
     67 H35         0.6010    3.5040   -7.2550 ha        1 XMB      0.142000
     68 H361       -0.1430    4.2400   -3.2290 h1        1 XMB      0.082500
     69 H362       -1.2330    4.0460   -4.3660 h1        1 XMB      0.082500
     70 H37         0.1230    2.2320   -1.5180 hc        1 XMB      0.127000
     71 H381        1.4000    0.6240   -2.5260 hc        1 XMB      0.089250
     72 H382        0.2750    0.4200   -3.6920 hc        1 XMB      0.089250
     73 H40         1.9800    5.0270   -8.4180 ha        1 XMB      0.156000
     74 H411       -1.8590    3.0240   -2.2940 hc        1 XMB      0.089250
     75 H412       -1.8290    1.9900   -3.5170 hc        1 XMB      0.089250
@<TRIPOS>BOND
     1    1    2 1   
     2    1   25 1   
     3    3    4 1   
     4    3    9 1   
     5    4    5 1   
     6    4   42 1   
     7    4   43 1   
     8    5    6 1   
     9    5   44 1   
    10    5   45 1   
    11    6    7 1   
    12    6    8 1   
    13    9   10 1   
    14    9   46 1   
    15    9   47 1   
    16   10   48 1   
    17   10   49 1   
    18   11   16 1   
    19   11   50 1   
    20   12   15 1   
    21   12   22 1   
    22   13   14 1   
    23   13   18 1   
    24   14   51 1   
    25   15   52 1   
    26   16   17 1   
    27   17   53 1   
    28   18   54 1   
    29   19   20 1   
    30   19   55 1   
    31   20   21 1   
    32   22   23 1   
    33   22   28 1   
    34   24   26 1   
    35   24   56 1   
    36   25   26 1   
    37   25   27 1   
    38   25   57 1   
    39   26   58 1   
    40   26   59 1   
    41   27   29 1   
    42   27   60 1   
    43   29   37 1   
    44   29   61 1   
    45   29   62 1   
    46   30   39 1   
    47   30   63 1   
    48   31   32 1   
    49   31   34 1   
    50   31   36 1   
    51   32   33 1   
    52   32   35 1   
    53   33   64 1   
    54   34   38 1   
    55   34   65 1   
    56   34   66 1   
    57   35   40 1   
    58   35   67 1   
    59   36   41 1   
    60   36   68 1   
    61   36   69 1   
    62   37   38 1   
    63   37   41 1   
    64   37   70 1   
    65   38   71 1   
    66   38   72 1   
    67   40   73 1   
    68   41   74 1   
    69   41   75 1   
@<TRIPOS>SUBSTRUCTURE
     1 XMB         1 TEMP              0 ****  ****    0 ROOT
