@<TRIPOS>MOLECULE
XMB
   77    80     1     0     0
SMALL
bcc


@<TRIPOS>ATOM
      1 C1         -0.2600    0.0230   -0.3980 c         1 XMB      0.646100
      2 O2         -0.7200    1.1810   -0.4770 o         1 XMB     -0.583100
      3 N3         -1.0470   -1.0850   -0.2380 n         1 XMB     -0.437800
      4 C4         -2.5020   -0.9420   -0.2960 c3        1 XMB      0.112000
      5 C5         -3.1310   -1.6250   -1.5010 c3        1 XMB     -0.350100
      6 S6         -2.7850   -3.2920   -1.6590 s6        1 XMB      1.342000
      7 O7         -3.1220   -3.7220   -2.9340 o         1 XMB     -0.615300
      8 O8         -3.2300   -3.9700   -0.5280 o         1 XMB     -0.615300
      9 C9         -0.5760   -2.4530   -0.3190 c3        1 XMB      0.112000
     10 C10        -1.0590   -3.1860   -1.5590 c3        1 XMB     -0.350100
     11 C11         5.1810   -2.0000    5.0250 ca        1 XMB      0.130000
     12 C12         4.0110   -1.2220    4.8370 ca        1 XMB     -0.675500
     13 C13         4.1180   -3.3160    6.7890 ca        1 XMB      0.092000
     14 C14         2.9290   -2.5430    6.6010 ca        1 XMB     -0.104000
     15 C15         2.8780   -1.5490    5.6760 ca        1 XMB     -0.045000
     16 C16         5.2560   -3.0200    5.9690 ca        1 XMB     -0.112000
     17 C17         6.4540   -3.7820    6.1540 ca        1 XMB     -0.052000
     18 C18         4.1960   -4.3380    7.7500 ca        1 XMB     -0.165000
     19 C19         6.5110   -4.7730    7.0980 ca        1 XMB     -0.124000
     20 C20         5.3740   -5.0590    7.9080 ca        1 XMB      0.123400
     21 CL21        5.4750   -6.2770    9.0560 cl        1 XMB      0.034600
     22 S22         3.9210   -0.0620    3.8570 s4        1 XMB      1.685300
     23 O23         2.7970    0.6960    3.7980 o         1 XMB     -0.437900
     24 N24         3.0400   -0.7920    1.3710 n3        1 XMB     -0.982800
     25 C25         1.2960   -0.1140   -0.3740 c3        1 XMB      0.003500
     26 C26         1.7190   -0.2780    1.1110 c3        1 XMB      0.116800
     27 N27         1.9080    1.1040   -1.0060 n4        1 XMB     -0.765000
     28 O28         5.0080    0.2500    3.1030 o         1 XMB     -0.437900
     29 C29         2.0730    0.9690   -2.4880 c3        1 XMB      0.103800
     30 C30         1.8880    7.4110   -7.0990 ca        1 XMB      0.422700
     31 N31         2.5090    4.2790   -5.1830 nh        1 XMB     -0.643000
     32 C32         2.7120    5.3870   -6.0510 ca        1 XMB      0.146600
     33 C33         1.6990    6.3640   -6.1840 ca        1 XMB     -0.279800
     34 C34         3.4130    3.1550   -5.3480 c3        1 XMB      0.189800
     35 C35         3.8650    5.5280   -6.8520 ca        1 XMB     -0.279800
     36 C36         2.2740    4.6180   -3.7900 c3        1 XMB      0.189800
     37 C37         2.6690    2.2260   -3.1310 c3        1 XMB     -0.088700
     38 C38         2.9160    1.9130   -4.6040 c3        1 XMB     -0.087900
     39 N39         2.9830    7.5490   -7.8700 nb        1 XMB     -0.654000
     40 C40         3.9430    6.6150   -7.7400 ca        1 XMB      0.422700
     41 C41         1.7430    3.4230   -2.9910 c3        1 XMB     -0.087900
     42 H41        -2.7720    0.1530   -0.2980 h1        1 XMB      0.085700
     43 H42        -2.9120   -1.4090    0.6490 h1        1 XMB      0.085700
     44 H51        -4.2450   -1.4750   -1.3960 h1        1 XMB      0.135200
     45 H52        -2.8660   -1.0640   -2.4380 h1        1 XMB      0.135200
     46 H91         0.5450   -2.4950   -0.2650 h1        1 XMB      0.085700
     47 H92        -0.9790   -2.9940    0.5930 h1        1 XMB      0.085700
     48 H101       -0.6350   -2.7250   -2.4870 h1        1 XMB      0.135200
     49 H102       -0.6290   -4.2250   -1.5220 h1        1 XMB      0.135200
     50 H14         2.0520   -2.7690    7.2350 ha        1 XMB      0.184000
     51 H15         1.9560   -0.9500    5.5530 ha        1 XMB      0.168000
     52 H17         7.3330   -3.5550    5.5270 ha        1 XMB      0.167000
     53 H18         3.3160   -4.5580    8.3800 ha        1 XMB      0.186000
     54 H19         7.4370   -5.3590    7.2440 ha        1 XMB      0.191000
     55 H24         3.1130   -1.7640    1.1300 hn        1 XMB      0.386300
     56 H25         1.6240   -1.0020   -0.9890 hx        1 XMB      0.119700
     57 H261        0.9730   -0.9850    1.5840 h1        1 XMB      0.116200
     58 H262        1.6130    0.7150    1.6450 h1        1 XMB      0.116200
     59 H27         1.2790    1.9150   -0.8270 hn        1 XMB      0.465800
     60 H291        1.0510    0.7690   -2.9240 hx        1 XMB      0.105700
     61 H292        2.7420    0.0860   -2.6890 hx        1 XMB      0.105700
     62 H30         1.1110    8.1890   -7.2260 h4        1 XMB      0.035600
     63 H33         0.7680    6.3120   -5.6040 ha        1 XMB      0.143500
     64 H341        3.4720    2.9090   -6.4460 h1        1 XMB      0.057950
     65 H342        4.4550    3.3960   -4.9840 h1        1 XMB      0.057950
     66 H35         4.6990    4.8170   -6.8060 ha        1 XMB      0.143500
     67 H361        1.5110    5.4450   -3.7450 h1        1 XMB      0.057950
     68 H362        3.2170    4.9870   -3.2900 h1        1 XMB      0.057950
     69 H37         3.6590    2.4660   -2.6500 hc        1 XMB      0.065700
     70 H381        3.6910    1.1100   -4.7030 hc        1 XMB      0.058200
     71 H382        1.9680    1.5460   -5.0780 hc        1 XMB      0.058200
     72 H40         4.8320    6.7470   -8.3850 h4        1 XMB      0.035600
     73 H411        1.6650    3.7440   -1.9200 hc        1 XMB      0.058200
     74 H412        0.7150    3.1560   -3.3530 hc        1 XMB      0.058200
     75 H242        3.7560   -0.2800    0.8880 hn        1 XMB      0.386300
     76 H272        2.8150    1.3040   -0.5780 hn        1 XMB      0.465800
     77 H11         6.0720   -1.7770    4.4020 ha        1 XMB      0.169000
@<TRIPOS>BOND
     1    1    2 2   
     2    1    3 1   
     3    1   25 1   
     4    3    4 1   
     5    3    9 1   
     6    4    5 1   
     7    4   42 1   
     8    4   43 1   
     9    5    6 1   
    10    5   44 1   
    11    5   45 1   
    12    6    7 2   
    13    6    8 2   
    14    6   10 1   
    15    9   10 1   
    16    9   46 1   
    17    9   47 1   
    18   10   48 1   
    19   10   49 1   
    20   11   12 ar  
    21   11   16 ar  
    22   11   77 1   
    23   12   15 ar  
    24   12   22 1   
    25   13   14 ar  
    26   13   16 ar  
    27   13   18 ar  
    28   14   15 ar  
    29   14   50 1   
    30   15   51 1   
    31   16   17 ar  
    32   17   19 ar  
    33   17   52 1   
    34   18   20 ar  
    35   18   53 1   
    36   19   20 ar  
    37   19   54 1   
    38   20   21 1   
    39   22   23 1   
    40   22   28 1   
    41   24   26 1   
    42   24   55 1   
    43   24   75 1   
    44   25   26 1   
    45   25   27 1   
    46   25   56 1   
    47   26   57 1   
    48   26   58 1   
    49   27   29 1   
    50   27   59 1   
    51   27   76 1   
    52   29   37 1   
    53   29   60 1   
    54   29   61 1   
    55   30   33 ar  
    56   30   39 ar  
    57   30   62 1   
    58   31   32 1   
    59   31   34 1   
    60   31   36 1   
    61   32   33 ar  
    62   32   35 ar  
    63   33   63 1   
    64   34   38 1   
    65   34   64 1   
    66   34   65 1   
    67   35   40 ar  
    68   35   66 1   
    69   36   41 1   
    70   36   67 1   
    71   36   68 1   
    72   37   38 1   
    73   37   41 1   
    74   37   69 1   
    75   38   70 1   
    76   38   71 1   
    77   39   40 ar  
    78   40   72 1   
    79   41   73 1   
    80   41   74 1   
@<TRIPOS>SUBSTRUCTURE
     1 XMB         1 TEMP              0 ****  ****    0 ROOT
