@<TRIPOS>MOLECULE
XMB
   75    79     1     0     0
SMALL
bcc


@<TRIPOS>ATOM
      1 C1          0.5460   -2.6810   -0.8030 c         1 XMB      0.614100
      2 O2          1.2930   -2.4030   -1.7610 o         1 XMB     -0.586100
      3 N3         -0.0520   -3.9420   -0.7410 n         1 XMB     -0.469800
      4 C4          0.3640   -4.9690   -1.6760 c3        1 XMB      0.112000
      5 C5          1.3060   -6.0090   -1.0700 c3        1 XMB     -0.354100
      6 S6          0.7330   -6.7830    0.3340 s6        1 XMB      1.331000
      7 O7          1.8110   -7.3650    1.0100 o         1 XMB     -0.646300
      8 O8         -0.3590   -7.5990    0.0210 o         1 XMB     -0.646300
      9 C9         -0.6860   -4.4630    0.4450 c3        1 XMB      0.112000
     10 C10         0.1900   -5.4320    1.2360 c3        1 XMB     -0.354100
     11 C11        -3.7290    2.7710    0.8410 ca        1 XMB      0.024000
     12 C12        -2.9030    2.1240   -0.0540 ca        1 XMB     -0.373500
     13 C13        -5.4300    3.0750   -0.8900 ca        1 XMB      0.016000
     14 C14        -4.5650    2.4160   -1.8060 ca        1 XMB     -0.134000
     15 C15        -3.3400    1.9580   -1.3950 ca        1 XMB     -0.042000
     16 C16        -5.0030    3.2590    0.4500 ca        1 XMB     -0.076000
     17 C17        -5.8590    3.9280    1.3690 ca        1 XMB     -0.090000
     18 C18        -6.7070    3.5580   -1.2870 ca        1 XMB     -0.131000
     19 C19        -7.0880    4.3880    0.9710 ca        1 XMB     -0.131000
     20 C20        -7.5120    4.1980   -0.3710 ca        1 XMB      0.041400
     21 CL21       -9.0400    4.7780   -0.8330 cl        1 XMB     -0.080400
     22 S22        -1.3700    1.5630    0.4000 sy        1 XMB      1.521200
     23 O23        -0.5070    1.6810   -0.7100 o         1 XMB     -0.652800
     24 N24        -1.6680   -0.0030    0.7200 n3        1 XMB     -0.898100
     25 C25         0.2100   -1.6040    0.2560 c3        1 XMB      0.098500
     26 C26        -1.2160   -1.0770   -0.1030 c3        1 XMB      0.235800
     27 N27         1.1570   -0.5140    0.3310 n3        1 XMB     -0.823200
     28 O28        -1.0140    2.2240    1.5930 o         1 XMB     -0.652800
     29 C29         2.4800   -0.8950    0.7840 c3        1 XMB      0.169800
     30 C30         8.8620    3.3620   -1.3920 ca        1 XMB      0.414200
     31 N31         6.0910    1.4140    0.1510 nh        1 XMB     -0.644000
     32 C32         7.2160    2.2500    0.0080 ca        1 XMB      0.186600
     33 C33         7.6890    2.6060   -1.2810 ca        1 XMB     -0.296800
     34 C34         5.7930    0.9450    1.4940 c3        1 XMB      0.192800
     35 C35         7.9780    2.7030    1.1120 ca        1 XMB     -0.296800
     36 C36         4.9130    1.7810   -0.6210 c3        1 XMB      0.192800
     37 C37         3.4750    0.2740    0.7820 c3        1 XMB     -0.067700
     38 C38         4.7330   -0.1540    1.5210 c3        1 XMB     -0.082400
     39 N39         9.5940    3.7870   -0.3430 nb        1 XMB     -0.690000
     40 C40         9.1430    3.4500    0.8790 ca        1 XMB      0.414200
     41 C41         3.8360    0.6980   -0.6310 c3        1 XMB     -0.082400
     42 H41        -0.5660   -5.4960   -2.0420 h1        1 XMB      0.077450
     43 H42         0.8670   -4.4850   -2.5620 h1        1 XMB      0.077450
     44 H51         1.4980   -6.7700   -1.8760 h1        1 XMB      0.127450
     45 H52         2.3050   -5.5260   -0.8870 h1        1 XMB      0.127450
     46 H91        -1.0200   -3.6290    1.1190 h1        1 XMB      0.077450
     47 H92        -1.6160   -5.0190    0.1170 h1        1 XMB      0.077450
     48 H101       -0.4190   -5.7830    2.1130 h1        1 XMB      0.127450
     49 H102        1.0550   -4.8750    1.6830 h1        1 XMB      0.127450
     50 H14        -4.8960    2.2880   -2.8480 ha        1 XMB      0.144000
     51 H15        -2.6570    1.4670   -2.1110 ha        1 XMB      0.150000
     52 H17        -5.5150    4.0710    2.4050 ha        1 XMB      0.144000
     53 H18        -7.0300    3.4100   -2.3290 ha        1 XMB      0.154000
     54 H19        -7.7530    4.9070    1.6790 ha        1 XMB      0.154000
     55 H24        -2.0260   -0.2880    1.5990 hn        1 XMB      0.445800
     56 H25         0.1920   -2.0840    1.2780 h1        1 XMB      0.071700
     57 H261       -1.9290   -1.9460   -0.0190 h1        1 XMB      0.066200
     58 H262       -1.2020   -0.7330   -1.1790 h1        1 XMB      0.066200
     59 H27         1.1980   -0.0120   -0.5420 hn        1 XMB      0.402800
     60 H291        2.3810   -1.2750    1.8410 h1        1 XMB      0.034200
     61 H292        2.9110   -1.7320    0.1570 h1        1 XMB      0.034200
     62 H30         9.2470    3.6470   -2.3880 h4        1 XMB      0.018600
     63 H33         7.1680    2.2860   -2.1930 ha        1 XMB      0.143000
     64 H341        5.4450    1.7960    2.1520 h1        1 XMB      0.041700
     65 H342        6.7430    0.5280    1.9350 h1        1 XMB      0.041700
     66 H35         7.6820    2.4890    2.1470 ha        1 XMB      0.143000
     67 H361        4.4580    2.7330   -0.2150 h1        1 XMB      0.041700
     68 H362        5.2240    1.9770   -1.6850 h1        1 XMB      0.041700
     69 H37         3.0200    1.1510    1.3210 hc        1 XMB      0.070700
     70 H381        4.4940   -0.3780    2.5930 hc        1 XMB      0.055450
     71 H382        5.1440   -1.0890    1.0570 hc        1 XMB      0.055450
     72 H40         9.7510    3.8070    1.7300 h4        1 XMB      0.018600
     73 H411        4.1910   -0.1920   -1.2140 hc        1 XMB      0.055450
     74 H412        2.9390    1.1190   -1.1560 hc        1 XMB      0.055450
     75 H11        -3.3970    2.9320    1.8830 ha        1 XMB      0.157000
@<TRIPOS>BOND
     1    1    2 2   
     2    1    3 1   
     3    1   25 1   
     4    3    4 1   
     5    3    9 1   
     6    4    5 1   
     7    4   42 1   
     8    4   43 1   
     9    5    6 1   
    10    5   44 1   
    11    5   45 1   
    12    6    7 2   
    13    6    8 2   
    14    6   10 1   
    15    9   10 1   
    16    9   46 1   
    17    9   47 1   
    18   10   48 1   
    19   10   49 1   
    20   11   12 ar  
    21   11   16 ar  
    22   11   75 1   
    23   12   15 ar  
    24   12   22 1   
    25   13   14 ar  
    26   13   16 ar  
    27   13   18 ar  
    28   14   15 ar  
    29   14   50 1   
    30   15   51 1   
    31   16   17 ar  
    32   17   19 ar  
    33   17   52 1   
    34   18   20 ar  
    35   18   53 1   
    36   19   20 ar  
    37   19   54 1   
    38   20   21 1   
    39   22   23 2   
    40   22   24 1   
    41   22   28 2   
    42   24   26 1   
    43   24   55 1   
    44   25   26 1   
    45   25   27 1   
    46   25   56 1   
    47   26   57 1   
    48   26   58 1   
    49   27   29 1   
    50   27   59 1   
    51   29   37 1   
    52   29   60 1   
    53   29   61 1   
    54   30   33 ar  
    55   30   39 ar  
    56   30   62 1   
    57   31   32 1   
    58   31   34 1   
    59   31   36 1   
    60   32   33 ar  
    61   32   35 ar  
    62   33   63 1   
    63   34   38 1   
    64   34   64 1   
    65   34   65 1   
    66   35   40 ar  
    67   35   66 1   
    68   36   41 1   
    69   36   67 1   
    70   36   68 1   
    71   37   38 1   
    72   37   41 1   
    73   37   69 1   
    74   38   70 1   
    75   38   71 1   
    76   39   40 ar  
    77   40   72 1   
    78   41   73 1   
    79   41   74 1   
@<TRIPOS>SUBSTRUCTURE
     1 XMB         1 TEMP              0 ****  ****    0 ROOT
