@<TRIPOS>MOLECULE
XMC
   76    74     1     0     0
SMALL
bcc


@<TRIPOS>ATOM
      1 C1          0.2920   -0.2380   -1.5830 c2        1 XMC     -0.063000
      2 C2          1.6780   -0.2900   -2.0570 c2        1 XMC     -1.087000
      3 C3          0.9530   -1.1230    0.5900 c2        1 XMC      0.072000
      4 C4          1.6880   -2.2240    0.2860 c2        1 XMC     -0.181000
      5 C5          2.5630   -1.0650   -1.4220 c1        1 XMC      0.315000
      6 C6         -0.0510   -0.6080   -0.3400 c2        1 XMC     -0.160000
      7 C8         -3.3160   -0.2530    0.5530 c1        1 XMC      0.149000
      8 C9          1.1420   -0.4030    1.7830 c1        1 XMC     -0.122000
      9 C10        -4.5640   -0.0460    0.8610 c2        1 XMC     -0.537000
     10 C11         1.2950    0.2150    2.7990 c1        1 XMC     -0.155000
     11 S12         1.9920    0.6560   -3.4110 s6        1 XMC      2.886000
     12 O13         3.0020    0.0130   -4.1740 o         1 XMC     -0.947500
     13 C14         2.4830    4.5060   -3.0750 c2        1 XMC      0.303000
     14 O15         1.7720    5.5130   -3.2560 o         1 XMC     -0.356000
     15 C16         1.8170    3.2160   -2.5830 c3        1 XMC     -0.036000
     16 N17         2.6000    2.0290   -2.7950 n3        1 XMC     -0.835000
     17 C18         4.6860    3.3700   -3.1160 c3        1 XMC      0.005000
     18 C19         5.9370    3.6730   -2.2470 c2        1 XMC      0.283000
     19 O20         5.8010    3.8370   -1.0120 o         1 XMC     -0.409000
     20 N21         7.1840    3.7110   -2.8030 ns        1 XMC     -0.377000
     21 C22         8.4550    5.0340    2.0380 c2        1 XMC     -0.230000
     22 C23         8.4210    4.6910    0.7510 c2        1 XMC     -0.058000
     23 O24         9.6680    4.6780    0.0660 os        1 XMC     -0.138000
     24 C25         7.4540    3.6310   -4.2020 c3        1 XMC     -0.101000
     25 C26         9.6210    4.3660   -1.2060 c1        1 XMC     -0.074000
     26 C27         3.9760    2.1810   -2.4050 c3        1 XMC     -0.026000
     27 N28         3.8540    4.5440   -3.2760 n         1 XMC     -0.315000
     28 O29         0.7950    0.9150   -4.1040 o         1 XMC     -0.947500
     29 C30         4.4590    5.7210   -3.8610 c3        1 XMC     -0.024000
     30 C31         6.3960   -1.9660   -9.5150 c2        1 XMC      0.111000
     31 N32         4.6520   -0.9390   -6.4200 n7        1 XMC     -0.308000
     32 C33         4.9590   -1.4970   -7.6160 c2        1 XMC      0.161000
     33 C34         6.1740   -1.3050   -8.2820 c2        1 XMC     -0.411000
     34 C35         6.3800    6.8520   -6.6210 c2        1 XMC     -0.220000
     35 C36         3.9420   -2.3950   -8.2760 c3        1 XMC     -0.260000
     36 C37         5.5220   -0.0640   -5.6700 c3        1 XMC     -0.111000
     37 C38         4.5620    5.6910   -5.3910 c3        1 XMC     -0.163000
     38 C39         5.2830    6.8960   -5.8690 c2        1 XMC     -0.161000
     39 N40         5.5270   -2.7790  -10.1310 n2        1 XMC     -0.263000
     40 C41         4.3370   -3.0120   -9.5790 c1        1 XMC     -0.067000
     41 C42         5.4910    1.3650   -5.8810 c1        1 XMC     -0.094000
     42 H1         -0.4620    0.1180   -2.3100 ha        1 XMC      0.170000
     43 H4          1.4300   -2.8840   -0.5590 ha        1 XMC      0.145500
     44 H5          2.4940   -2.5860    0.9390 ha        1 XMC      0.145500
     45 H8         -1.0910   -0.5190    0.0340 ha        1 XMC      0.202000
     46 H9         -5.3940   -0.1360    0.1400 ha        1 XMC      0.197500
     47 H10        -4.9070    0.2400    1.8690 ha        1 XMC      0.197500
     48 H161        0.8290    3.1250   -3.1240 h1        1 XMC      0.133000
     49 H162        1.6160    3.3610   -1.4810 h1        1 XMC      0.133000
     50 H18         5.0050    3.0220   -4.1490 h1        1 XMC      0.122000
     51 H221        7.9640    3.9250   -2.1860 hn        1 XMC      0.282000
     52 H222        7.5310    5.0640    2.6290 ha        1 XMC      0.135500
     53 H231        9.3800    5.2970    2.5650 ha        1 XMC      0.135500
     54 H232        7.5490    4.4120    0.1360 h4        1 XMC      0.204000
     55 H251        8.5660    3.5930   -4.3500 h1        1 XMC      0.088667
     56 H252        7.0540    4.5330   -4.7440 h1        1 XMC      0.088667
     57 H261        6.9980    2.7080   -4.6620 h1        1 XMC      0.088667
     58 H262       10.6680    4.3980   -1.6000 ha        1 XMC      0.052000
     59 H271        4.0340    2.3430   -1.2870 h1        1 XMC      0.118500
     60 H272        4.5480    1.2450   -2.6670 h1        1 XMC      0.118500
     61 H301        5.4900    5.8450   -3.4250 h1        1 XMC      0.109500
     62 H302        3.8410    6.6170   -3.5590 h1        1 XMC      0.109500
     63 H34         6.9620   -0.6580   -7.8810 ha        1 XMC      0.132000
     64 H351        6.8490    5.9100   -6.9360 ha        1 XMC      0.112500
     65 H352        6.8830    7.7610   -6.9760 ha        1 XMC      0.112500
     66 H36         3.6780   -3.2470   -7.5870 hc        1 XMC      0.150500
     67 H371        3.7440   -1.0910   -6.0320 hn        1 XMC      0.259000
     68 H372        6.6010   -0.4010   -5.7760 h1        1 XMC      0.170500
     69 H38         5.0800    4.7550   -5.7290 hc        1 XMC      0.095500
     70 H391        3.5290    5.6820   -5.8340 hc        1 XMC      0.095500
     71 H392        4.8350    7.8570   -5.5650 ha        1 XMC      0.125000
     72 H41         2.9930   -1.8190   -8.4720 hc        1 XMC      0.150500
     73 H421        5.2490   -0.1860   -4.5650 h1        1 XMC      0.170500
     74 H422        4.8120    1.7990   -6.6270 ha        1 XMC      0.070000
     75 Cl7         1.4990    1.0350    4.1480 cl        1 XMC      0.187000
     76 H31         7.3670   -1.8040  -10.0260 h4        1 XMC      0.142000
@<TRIPOS>BOND
     1    1    2 1   
     2    1    6 1   
     3    1   42 1   
     4    2    5 1   
     5    2   11 1   
     6    3    4 1   
     7    3    6 1   
     8    3    8 1   
     9    4   43 1   
    10    4   44 1   
    11    6   45 1   
    12    7    9 1   
    13    8   10 1   
    14    9   46 1   
    15    9   47 1   
    16   10   75 1   
    17   11   12 1   
    18   11   16 1   
    19   11   28 1   
    20   13   14 1   
    21   13   15 1   
    22   13   27 1   
    23   15   16 1   
    24   15   48 1   
    25   15   49 1   
    26   16   26 1   
    27   17   18 1   
    28   17   26 1   
    29   17   27 1   
    30   17   50 1   
    31   18   19 1   
    32   18   20 1   
    33   20   24 1   
    34   20   51 1   
    35   21   22 1   
    36   21   52 1   
    37   21   53 1   
    38   22   23 1   
    39   22   54 1   
    40   23   25 1   
    41   24   55 1   
    42   24   56 1   
    43   24   57 1   
    44   25   58 1   
    45   26   59 1   
    46   26   60 1   
    47   27   29 1   
    48   29   37 1   
    49   29   61 1   
    50   29   62 1   
    51   30   33 1   
    52   30   39 1   
    53   30   76 1   
    54   31   32 1   
    55   31   36 1   
    56   31   67 1   
    57   32   33 1   
    58   32   35 1   
    59   33   63 1   
    60   34   38 1   
    61   34   64 1   
    62   34   65 1   
    63   35   40 1   
    64   35   66 1   
    65   35   72 1   
    66   36   41 1   
    67   36   68 1   
    68   36   73 1   
    69   37   38 1   
    70   37   69 1   
    71   37   70 1   
    72   38   71 1   
    73   39   40 1   
    74   41   74 1   
@<TRIPOS>SUBSTRUCTURE
     1 XMC         1 TEMP              0 ****  ****    0 ROOT
