@<TRIPOS>MOLECULE
XMC
   76    75     1     0     0
SMALL
bcc


@<TRIPOS>ATOM
      1 C1          0.1770    1.2170    0.9680 c1        1 XMC     -0.009000
      2 C2          1.4160    0.5220    1.1390 c2        1 XMC     -1.144000
      3 C3         -0.3960    0.6390    3.3240 c2        1 XMC      0.017000
      4 C4          0.6620    1.1030    4.0300 c2        1 XMC     -0.188000
      5 C5          1.8970    0.1470    2.3290 c1        1 XMC      0.407000
      6 C6         -0.8060    1.2720    2.0300 c3        1 XMC     -0.221000
      7 C8         -2.3950   -0.4600   -0.2040 c1        1 XMC      0.106000
      8 C9         -1.1430   -0.4710    3.7500 c1        1 XMC     -0.133000
      9 C10        -2.0240   -1.0270   -1.3120 c2        1 XMC     -0.531000
     10 C11        -1.7910   -1.4140    4.1100 c1        1 XMC     -0.144000
     11 S12         2.0750    0.3230   -0.4190 s6        1 XMC      2.908000
     12 O13         3.3180   -0.3260   -0.2750 o         1 XMC     -0.936500
     13 C14         1.6290    3.5160   -2.6610 c2        1 XMC      0.303000
     14 O15         0.7070    4.0410   -3.3150 o         1 XMC     -0.355000
     15 C16         1.2760    2.6880   -1.4220 c3        1 XMC     -0.021000
     16 N17         2.3320    1.8370   -0.9450 n3        1 XMC     -0.822000
     17 C18         4.0260    3.0140   -2.3320 c3        1 XMC      0.015000
     18 C19         5.2590    3.9120   -2.0660 c2        1 XMC      0.282000
     19 O20         5.1450    5.1150   -1.7600 o         1 XMC     -0.356000
     20 N21         6.5140    3.3450   -2.0860 n         1 XMC     -0.375000
     21 C22        10.2470    4.4430   -3.2100 c2        1 XMC     -0.262000
     22 C23         9.6570    3.4990   -2.4700 c2        1 XMC     -0.055000
     23 O24         9.1580    2.3730   -3.1120 os        1 XMC     -0.228000
     24 C25         6.8010    2.0230   -2.5710 c3        1 XMC     -0.077000
     25 C26         8.2550    1.5900   -2.3370 c3        1 XMC     -0.031000
     26 C27         3.6200    2.4700   -0.9310 c3        1 XMC     -0.026000
     27 N28         2.9570    3.7030   -3.0200 n         1 XMC     -0.318000
     28 O29         1.1370   -0.3440   -1.2240 o         1 XMC     -0.936500
     29 C30         3.2920    4.4650   -4.2020 c3        1 XMC     -0.029000
     30 C31         8.5950   -0.3550   -9.9990 c2        1 XMC      0.114000
     31 N32         5.8880    1.6810   -8.4970 n3        1 XMC     -0.332000
     32 C33         6.8380    1.1820   -9.3350 c2        1 XMC      0.155000
     33 C34         7.6550    0.0950   -9.0310 c2        1 XMC     -0.398000
     34 C35         3.7040    4.1570   -7.8290 c2        1 XMC     -0.248000
     35 C36         7.0140    1.8310  -10.6850 c3        1 XMC     -0.265000
     36 C37         5.6080    1.1730   -7.1750 c3        1 XMC     -0.118000
     37 C38         3.7100    3.6140   -5.4070 c3        1 XMC     -0.170000
     38 C39         4.0050    4.4820   -6.5730 c2        1 XMC     -0.151000
     39 N40         8.7820    0.1840  -11.2060 n2        1 XMC     -0.257000
     40 C41         8.0530    1.2380  -11.5830 c1        1 XMC     -0.050000
     41 C42         6.3390    1.6580   -6.0220 c1        1 XMC     -0.083000
     42 H1         -1.1050    2.3480    2.1930 hc        1 XMC      0.189500
     43 H4          1.1850    2.0310    3.7540 ha        1 XMC      0.139500
     44 H5          1.0030    0.6250    4.9580 ha        1 XMC      0.139500
     45 H8         -1.7300    0.7560    1.5930 hc        1 XMC      0.189500
     46 H9         -0.9700   -0.9470   -1.6620 ha        1 XMC      0.214500
     47 H10        -2.6550   -1.6140   -1.9930 ha        1 XMC      0.214500
     48 H161        0.3710    2.0580   -1.6750 h1        1 XMC      0.136000
     49 H162        0.9730    3.4260   -0.6210 h1        1 XMC      0.136000
     50 H18         4.3350    2.1420   -2.9890 h1        1 XMC      0.107000
     51 H221        7.2870    3.9700   -1.9980 hn        1 XMC      0.235000
     52 H222       10.7020    5.3230   -2.7430 ha        1 XMC      0.130500
     53 H231       10.3180    4.3800   -4.3020 ha        1 XMC      0.130500
     54 H232        9.5700    3.5190   -1.3730 h4        1 XMC      0.132000
     55 H251        8.5210    1.6110   -1.2490 h1        1 XMC      0.104500
     56 H252        6.5860    1.9540   -3.6830 h1        1 XMC      0.108500
     57 H261        6.1420    1.2800   -2.0360 h1        1 XMC      0.108500
     58 H262        8.3840    0.5490   -2.7410 h1        1 XMC      0.104500
     59 H271        4.4090    1.7290   -0.6100 h1        1 XMC      0.118000
     60 H272        3.6140    3.3340   -0.2040 h1        1 XMC      0.118000
     61 H301        4.1310    5.1740   -3.9420 h1        1 XMC      0.119500
     62 H302        2.3910    5.0810   -4.4910 h1        1 XMC      0.119500
     63 H34         7.6040   -0.4290   -8.0690 ha        1 XMC      0.135000
     64 H351        3.9390    4.8140   -8.6760 ha        1 XMC      0.114000
     65 H352        3.1740    3.2310   -8.0920 ha        1 XMC      0.114000
     66 H36         7.2890    2.9160  -10.5580 hc        1 XMC      0.152000
     67 H371        5.3890    2.4960   -8.7830 hn        1 XMC      0.237000
     68 H372        5.7290    0.0400   -7.1620 h1        1 XMC      0.164000
     69 H38         4.6360    3.0220   -5.1510 hc        1 XMC      0.093000
     70 H391        2.9010    2.8770   -5.6550 hc        1 XMC      0.093000
     71 H392        4.5130    5.4330   -6.3370 ha        1 XMC      0.131000
     72 H41         6.0450    1.7960  -11.2590 hc        1 XMC      0.152000
     73 H421        4.5080    1.3740   -6.9550 h1        1 XMC      0.164000
     74 H422        7.1720    2.3610   -6.1490 ha        1 XMC      0.078000
     75 CL7        -2.6540   -2.6640    4.5830 cl        1 XMC      0.190000
     76 H31         9.2320   -1.2250   -9.7390 h4        1 XMC      0.148000
@<TRIPOS>BOND
     1    1    2 1   
     2    1    6 1   
     3    2    5 1   
     4    2   11 1   
     5    3    4 1   
     6    3    6 1   
     7    3    8 1   
     8    4   43 1   
     9    4   44 1   
    10    6   42 1   
    11    6   45 1   
    12    7    9 1   
    13    8   10 1   
    14    9   46 1   
    15    9   47 1   
    16   10   75 1   
    17   11   12 1   
    18   11   16 1   
    19   11   28 1   
    20   13   14 1   
    21   13   15 1   
    22   13   27 1   
    23   15   16 1   
    24   15   48 1   
    25   15   49 1   
    26   16   26 1   
    27   17   18 1   
    28   17   26 1   
    29   17   27 1   
    30   17   50 1   
    31   18   19 1   
    32   18   20 1   
    33   20   24 1   
    34   20   51 1   
    35   21   22 1   
    36   21   52 1   
    37   21   53 1   
    38   22   23 1   
    39   22   54 1   
    40   23   25 1   
    41   24   25 1   
    42   24   56 1   
    43   24   57 1   
    44   25   55 1   
    45   25   58 1   
    46   26   59 1   
    47   26   60 1   
    48   27   29 1   
    49   29   37 1   
    50   29   61 1   
    51   29   62 1   
    52   30   33 1   
    53   30   39 1   
    54   30   76 1   
    55   31   32 1   
    56   31   36 1   
    57   31   67 1   
    58   32   33 1   
    59   32   35 1   
    60   33   63 1   
    61   34   38 1   
    62   34   64 1   
    63   34   65 1   
    64   35   40 1   
    65   35   66 1   
    66   35   72 1   
    67   36   41 1   
    68   36   68 1   
    69   36   73 1   
    70   37   38 1   
    71   37   69 1   
    72   37   70 1   
    73   38   71 1   
    74   39   40 1   
    75   41   74 1   
@<TRIPOS>SUBSTRUCTURE
     1 XMC         1 TEMP              0 ****  ****    0 ROOT
