@<TRIPOS>MOLECULE
XMC
   76    81     1     0     0
SMALL
bcc


@<TRIPOS>ATOM
      1 C1          1.5780   -0.4810   -4.4740 ca        1 XMC      0.033000
      2 C2          0.5290   -0.8870   -3.6750 ca        1 XMC     -0.386500
      3 C3          0.1090   -0.3910   -6.4270 ca        1 XMC      0.020000
      4 C4         -0.9620   -0.8200   -5.5960 ca        1 XMC     -0.131000
      5 C5         -0.7530   -1.0600   -4.2630 ca        1 XMC     -0.043000
      6 C6          1.3970   -0.2240   -5.8570 ca        1 XMC     -0.077000
      7 C8          2.4760    0.1950   -6.6850 ca        1 XMC     -0.088000
      8 C9         -0.0800   -0.1320   -7.8110 ca        1 XMC     -0.132000
      9 C10         2.2790    0.4410   -8.0200 ca        1 XMC     -0.129000
     10 C11         0.9850    0.2750   -8.5840 ca        1 XMC      0.045400
     11 S12         0.7480   -1.2240   -2.0410 sy        1 XMC      1.514200
     12 O13        -0.1540   -2.2390   -1.6550 o         1 XMC     -0.648800
     13 C14         1.0850    1.8450    0.3830 c         1 XMC      0.696500
     14 O15         1.9850    2.6030    0.7900 o         1 XMC     -0.629500
     15 C16         1.2100    1.2420   -1.0220 c3        1 XMC      0.151800
     16 N17         0.3000    0.1690   -1.3040 n3        1 XMC     -0.811500
     17 C18        -1.0720    0.6800    0.7130 c3        1 XMC      0.043700
     18 C19        -2.4880    1.2590    0.9700 c         1 XMC      0.637100
     19 O20        -2.6990    2.4850    0.8960 o         1 XMC     -0.586100
     20 N21        -3.5410    0.3890    1.2100 n         1 XMC     -0.469800
     21 C22        -4.8130    0.9440    1.6340 c3        1 XMC      0.052500
     22 C23        -6.0060    0.0540    1.2680 c3        1 XMC      0.116900
     23 O24        -5.8000   -1.2920    1.6810 os        1 XMC     -0.406600
     24 C25        -3.3680   -1.0280    1.4320 c3        1 XMC      0.052500
     25 C26        -4.6270   -1.8490    1.1060 c3        1 XMC      0.116900
     26 C27        -1.0290    0.4010   -0.8190 c3        1 XMC      0.213800
     27 N28        -0.0120    1.5470    1.1750 n         1 XMC     -0.458800
     28 O29         2.1190   -1.4560   -1.8120 o         1 XMC     -0.648800
     29 C30        -0.0850    2.0790    2.5190 c3        1 XMC      0.102000
     30 C31         1.8970   -2.4050    8.8160 ca        1 XMC      0.414200
     31 N32         1.2650    0.0940    6.1300 nh        1 XMC     -0.643000
     32 C33         1.8170   -0.5370    7.2640 ca        1 XMC      0.183600
     33 C34         1.3990   -1.8400    7.6360 ca        1 XMC     -0.295800
     34 C35         1.6020    1.4950    5.9360 c3        1 XMC      0.191800
     35 C36         2.7340    0.1080    8.1290 ca        1 XMC     -0.295800
     36 C37         1.2610   -0.6850    4.9010 c3        1 XMC      0.191800
     37 C38         0.8240    1.3840    3.5450 c3        1 XMC     -0.090700
     38 C39         0.7640    2.1650    4.8480 c3        1 XMC     -0.077400
     39 N40         2.7630   -1.7900    9.6450 nb        1 XMC     -0.688000
     40 C41         3.1600   -0.5540    9.2900 ca        1 XMC      0.414200
     41 C42         0.4140   -0.0550    3.7950 c3        1 XMC     -0.077400
     42 H1          2.5900   -0.3630   -4.0420 ha        1 XMC      0.158000
     43 H4         -1.9580   -0.9590   -6.0450 ha        1 XMC      0.145000
     44 H5         -1.5790   -1.4140   -3.6220 ha        1 XMC      0.148000
     45 H8          3.4740    0.3170   -6.2340 ha        1 XMC      0.146000
     46 H9         -1.0840   -0.2630   -8.2450 ha        1 XMC      0.155000
     47 H10         3.1110    0.7650   -8.6640 ha        1 XMC      0.156000
     48 H161        2.2750    0.8760   -1.1270 h1        1 XMC      0.090200
     49 H162        1.0460    2.0960   -1.7430 h1        1 XMC      0.090200
     50 H18        -0.9560   -0.2960    1.2780 h1        1 XMC      0.067700
     51 H221       -4.7970    1.0840    2.7530 h1        1 XMC      0.061200
     52 H222       -4.9510    1.9550    1.1550 h1        1 XMC      0.061200
     53 H231       -6.9160    0.3860    1.8340 h1        1 XMC      0.060450
     54 H232       -6.2050    0.0850    0.1640 h1        1 XMC      0.060450
     55 H251       -2.5420   -1.4250    0.7780 h1        1 XMC      0.061200
     56 H252       -3.0900   -1.2080    2.5110 h1        1 XMC      0.061200
     57 H261       -4.5420   -2.8680    1.5680 h1        1 XMC      0.060450
     58 H262       -4.7580   -1.9380   -0.0050 h1        1 XMC      0.060450
     59 H271       -1.4770    1.2910   -1.3520 h1        1 XMC      0.076200
     60 H272       -1.6710   -0.5040   -1.0220 h1        1 XMC      0.076200
     61 H301        0.2190    3.1670    2.4710 h1        1 XMC      0.067200
     62 H302       -1.1520    2.0280    2.8750 h1        1 XMC      0.067200
     63 H34         0.6800   -2.4080    7.0310 ha        1 XMC      0.143500
     64 H351        2.6940    1.6170    5.6750 h1        1 XMC      0.042200
     65 H352        1.4120    2.0350    6.9080 h1        1 XMC      0.042200
     66 H36         3.1240    1.1110    7.9150 ha        1 XMC      0.143500
     67 H371        2.3140   -0.8140    4.5130 h1        1 XMC      0.042200
     68 H372        0.8490   -1.7080    5.1230 h1        1 XMC      0.042200
     69 H38         1.8830    1.4030    3.1590 hc        1 XMC      0.074700
     70 H391        1.1630    3.2010    4.6930 hc        1 XMC      0.050200
     71 H392       -0.3000    2.2520    5.1880 hc        1 XMC      0.050200
     72 H41         3.8710   -0.0620    9.9780 h4        1 XMC      0.019100
     73 H421       -0.6710   -0.0970    4.0740 hc        1 XMC      0.050200
     74 H422        0.5580   -0.6680    2.8680 hc        1 XMC      0.050200
     75 CL7         0.7720    0.5890  -10.2390 cl        1 XMC     -0.076400
     76 H31         1.5810   -3.4190    9.1230 h4        1 XMC      0.019100
@<TRIPOS>BOND
     1    1    2 ar  
     2    1    6 ar  
     3    1   42 1   
     4    2    5 ar  
     5    2   11 1   
     6    3    4 ar  
     7    3    6 ar  
     8    3    8 ar  
     9    4    5 ar  
    10    4   43 1   
    11    5   44 1   
    12    6    7 ar  
    13    7    9 ar  
    14    7   45 1   
    15    8   10 ar  
    16    8   46 1   
    17    9   10 ar  
    18    9   47 1   
    19   10   75 1   
    20   11   12 2   
    21   11   16 1   
    22   11   28 2   
    23   13   14 2   
    24   13   15 1   
    25   13   27 1   
    26   15   16 1   
    27   15   48 1   
    28   15   49 1   
    29   16   26 1   
    30   17   18 1   
    31   17   26 1   
    32   17   27 1   
    33   17   50 1   
    34   18   19 2   
    35   18   20 1   
    36   20   21 1   
    37   20   24 1   
    38   21   22 1   
    39   21   51 1   
    40   21   52 1   
    41   22   23 1   
    42   22   53 1   
    43   22   54 1   
    44   23   25 1   
    45   24   25 1   
    46   24   55 1   
    47   24   56 1   
    48   25   57 1   
    49   25   58 1   
    50   26   59 1   
    51   26   60 1   
    52   27   29 1   
    53   29   37 1   
    54   29   61 1   
    55   29   62 1   
    56   30   33 ar  
    57   30   39 ar  
    58   30   76 1   
    59   31   32 1   
    60   31   34 1   
    61   31   36 1   
    62   32   33 ar  
    63   32   35 ar  
    64   33   63 1   
    65   34   38 1   
    66   34   64 1   
    67   34   65 1   
    68   35   40 ar  
    69   35   66 1   
    70   36   41 1   
    71   36   67 1   
    72   36   68 1   
    73   37   38 1   
    74   37   41 1   
    75   37   69 1   
    76   38   70 1   
    77   38   71 1   
    78   39   40 ar  
    79   40   72 1   
    80   41   73 1   
    81   41   74 1   
@<TRIPOS>SUBSTRUCTURE
     1 XMC         1 TEMP              0 ****  ****    0 ROOT
