@<TRIPOS>MOLECULE
XMC
   76    73     1     0     0
SMALL
bcc


@<TRIPOS>ATOM
      1 C1          1.7840    0.5360   -0.5340 c1        1 XMC     -0.009000
      2 C2          2.3700   -0.1970   -1.6170 c2        1 XMC     -1.158000
      3 C3          2.8960   -1.0220    1.0540 c2        1 XMC      0.013000
      4 C4          4.2010   -0.9740    0.6990 c2        1 XMC     -0.183000
      5 C5          3.3520   -1.0980   -1.4390 c1        1 XMC      0.436000
      6 C6          1.9920    0.1540    0.8450 c3        1 XMC     -0.219000
      7 C8         -1.1970   -0.0410    0.4910 c1        1 XMC      0.108000
      8 C9          2.3160   -2.1750    1.6090 c1        1 XMC     -0.137000
      9 C10        -1.9740    0.0490   -0.5450 c2        1 XMC     -0.531000
     10 C11         1.8170   -3.1520    2.0910 c1        1 XMC     -0.142000
     11 S12         1.6390    0.3560   -3.0180 s6        1 XMC      2.911000
     12 O13         2.1300   -0.3560   -4.1230 o         1 XMC     -0.928000
     13 C14         1.8980    4.4540   -3.2540 c2        1 XMC      0.307000
     14 O15         1.1440    5.4450   -3.2100 o         1 XMC     -0.350000
     15 C16         1.3270    3.0950   -2.8320 c3        1 XMC     -0.106000
     16 N17         2.1790    1.9600   -3.1180 n3        1 XMC     -0.607000
     17 C18         4.0990    3.4080   -3.6650 c3        1 XMC     -0.036000
     18 C19         5.2180    3.5240   -2.5990 c2        1 XMC      0.309000
     19 O20         5.0870    4.2600   -1.5910 o         1 XMC     -0.411000
     20 N21         6.3690    2.8040   -2.7610 n         1 XMC     -0.360000
     21 C22         7.9410    7.4140   -0.3810 c2        1 XMC     -0.218000
     22 C23         7.1050    6.3850   -0.2580 c2        1 XMC     -0.134000
     23 O24         7.5510    5.1000   -0.6710 os        1 XMC     -0.068000
     24 C25         6.6240    1.9330   -3.8600 c3        1 XMC     -0.085000
     25 C26         7.0270    4.0240   -0.2030 c1        1 XMC     -0.042000
     26 C27         3.4520    2.0750   -3.4390 c1        1 XMC     -0.090000
     27 N28         3.2040    4.5470   -3.7030 n         1 XMC     -0.319000
     28 O29         0.2440    0.3600   -2.9070 o         1 XMC     -0.928000
     29 C30         3.7760    5.8320   -4.0460 c3        1 XMC     -0.025000
     30 C31         7.3590   -2.2010   -5.9120 c2        1 XMC      0.112000
     31 N32         4.3770   -0.5300   -7.3290 n3        1 XMC     -0.315000
     32 C33         5.3830   -1.4090   -7.0780 c2        1 XMC      0.160000
     33 C34         6.3180   -1.2480   -6.0540 c2        1 XMC     -0.405000
     34 C35         4.2460    8.2230   -6.6940 c2        1 XMC     -0.214000
     35 C36         5.5300   -2.6170   -7.9690 c3        1 XMC     -0.264000
     36 C37         4.0770    0.6140   -6.4960 c3        1 XMC     -0.132000
     37 C38         3.9970    6.0320   -5.5500 c3        1 XMC     -0.152000
     38 C39         4.6620    7.3360   -5.7930 c2        1 XMC     -0.165000
     39 N40         7.5400   -3.2740   -6.6900 n2        1 XMC     -0.260000
     40 C41         6.6880   -3.5200   -7.6880 c1        1 XMC     -0.056000
     41 C42         4.9980    1.7240   -6.4180 c1        1 XMC     -0.091000
     42 H1          2.3710    1.0540    1.4130 hc        1 XMC      0.192500
     43 H4          4.6810   -0.0420    0.3620 ha        1 XMC      0.143500
     44 H5          4.8700   -1.8400    0.8050 ha        1 XMC      0.143500
     45 H8          0.9430   -0.0490    1.2550 hc        1 XMC      0.192500
     46 H9         -3.0650   -0.0840   -0.5570 ha        1 XMC      0.213000
     47 H10        -1.5580    0.2770   -1.5520 ha        1 XMC      0.213000
     48 H161        0.3340    2.9680   -3.3530 h1        1 XMC      0.147500
     49 H162        1.1360    3.1440   -1.7190 h1        1 XMC      0.147500
     50 H18         4.5860    3.3210   -4.7020 h1        1 XMC      0.192000
     51 H221        7.0770    2.9150   -2.0540 hn        1 XMC      0.274000
     52 H222        7.6340    8.4320   -0.1120 ha        1 XMC      0.130000
     53 H231        8.9660    7.3020   -0.7570 ha        1 XMC      0.130000
     54 H232        6.0650    6.4120    0.0950 h4        1 XMC      0.153000
     55 H251        7.5080    1.2850   -3.6200 h1        1 XMC      0.085667
     56 H252        6.8480    2.5190   -4.7950 h1        1 XMC      0.085667
     57 H261        5.7310    1.2760   -4.0620 h1        1 XMC      0.085667
     58 H262        6.2320    4.0810    0.5690 ha        1 XMC      0.040000
     59 H271        4.5350   -0.5720   -3.4330 ha        1 XMC      0.008500
     60 H272        4.5400   -1.2470   -3.5180 ha        1 XMC      0.008500
     61 H301        4.7630    5.9350   -3.5080 h1        1 XMC      0.111000
     62 H302        3.0870    6.6440   -3.6720 h1        1 XMC      0.111000
     63 H34         6.2630   -0.4090   -5.3470 ha        1 XMC      0.131000
     64 H351        4.7700    9.1720   -6.8650 ha        1 XMC      0.113000
     65 H352        3.3560    8.0660   -7.3180 ha        1 XMC      0.113000
     66 H36         5.6300   -2.2970   -9.0440 hc        1 XMC      0.152500
     67 H371        3.7090   -0.7770   -8.0240 hn        1 XMC      0.233000
     68 H372        3.9150    0.2810   -5.4050 h1        1 XMC      0.183000
     69 H38         4.6480    5.2130   -5.9590 hc        1 XMC      0.092500
     70 H391        3.0140    5.9790   -6.0880 hc        1 XMC      0.092500
     71 H392        5.5560    7.5260   -5.1760 ha        1 XMC      0.121000
     72 H41         4.6060   -3.2590   -7.8950 hc        1 XMC      0.152500
     73 H421        3.0740    1.0320   -6.8230 h1        1 XMC      0.183000
     74 H422        5.9720    1.6680   -6.9220 ha        1 XMC      0.071000
     75 CL7         1.1490   -4.4480    2.7290 cl        1 XMC      0.193000
     76 H31         8.0910   -2.0550   -5.0920 h4        1 XMC      0.143000
@<TRIPOS>BOND
     1    1    2 1   
     2    1    6 1   
     3    2    5 1   
     4    2   11 1   
     5    3    4 1   
     6    3    6 1   
     7    3    8 1   
     8    4   43 1   
     9    4   44 1   
    10    6   42 1   
    11    6   45 1   
    12    7    9 1   
    13    8   10 1   
    14    9   46 1   
    15    9   47 1   
    16   10   75 1   
    17   11   12 1   
    18   11   16 1   
    19   11   28 1   
    20   13   14 1   
    21   13   15 1   
    22   13   27 1   
    23   15   16 1   
    24   15   48 1   
    25   15   49 1   
    26   16   26 1   
    27   17   18 1   
    28   17   26 1   
    29   17   27 1   
    30   17   50 1   
    31   18   19 1   
    32   18   20 1   
    33   20   24 1   
    34   20   51 1   
    35   21   22 1   
    36   21   52 1   
    37   21   53 1   
    38   22   23 1   
    39   22   54 1   
    40   23   25 1   
    41   24   55 1   
    42   24   56 1   
    43   24   57 1   
    44   25   58 1   
    45   27   29 1   
    46   29   37 1   
    47   29   61 1   
    48   29   62 1   
    49   30   33 1   
    50   30   39 1   
    51   30   76 1   
    52   31   32 1   
    53   31   36 1   
    54   31   67 1   
    55   32   33 1   
    56   32   35 1   
    57   33   63 1   
    58   34   38 1   
    59   34   64 1   
    60   34   65 1   
    61   35   40 1   
    62   35   66 1   
    63   35   72 1   
    64   36   41 1   
    65   36   68 1   
    66   36   73 1   
    67   37   38 1   
    68   37   69 1   
    69   37   70 1   
    70   38   71 1   
    71   39   40 1   
    72   41   74 1   
    73   59   60 1   
@<TRIPOS>SUBSTRUCTURE
     1 XMC         1 TEMP              0 ****  ****    0 ROOT
