@<TRIPOS>MOLECULE
XMD
   70    67     1     0     0
SMALL
bcc


@<TRIPOS>ATOM
      1 C1          1.5150    0.5240   -1.6170 c2        1 XMD     -0.018000
      2 C2          2.8260   -0.1280   -1.4200 c2        1 XMD     -1.072000
      3 C3          1.4780    0.9850    0.8080 c2        1 XMD      0.034000
      4 C4          2.4570    1.9200    0.7500 c2        1 XMD     -0.175000
      5 C5          3.5780    0.3080   -0.4030 c1        1 XMD      0.340000
      6 C6          0.6590    0.6250   -0.3930 c3        1 XMD     -0.094000
      7 C8          1.1490    1.0320   -2.7670 c1        1 XMD     -0.153000
      8 C9          1.1850    0.2880    1.9940 c1        1 XMD     -0.127000
      9 C10         0.7770    1.4880   -3.9220 c2        1 XMD     -0.133000
     10 C11         0.9290   -0.3030    3.0050 c1        1 XMD     -0.160000
     11 S12         3.2390   -1.3640   -2.4790 s6        1 XMD      2.870000
     12 O13         4.5990   -1.6970   -2.2840 o         1 XMD     -0.942000
     13 C14         1.9550   -5.1860   -3.4570 c1        1 XMD     -0.071000
     14 C15         1.4350   -5.4900   -4.7960 c2        1 XMD      0.285000
     15 O16         1.2110   -4.3790   -5.5590 oh        1 XMD     -0.325000
     16 C17        -0.5190   -5.9070   -8.1400 c2        1 XMD     -0.230000
     17 C18        -1.1910   -4.7670   -8.0460 c2        1 XMD     -0.230000
     18 O19         1.0170   -6.5680   -5.2360 o         1 XMD     -0.371000
     19 C20         0.9650   -2.7520   -2.4310 c3        1 XMD     -0.086000
     20 N21         2.3220   -2.6210   -1.9730 n3        1 XMD     -0.815000
     21 C22         3.5330   -4.8220   -1.7370 c2        1 XMD      0.311000
     22 O23         4.3520   -5.4990   -1.1170 o         1 XMD     -0.258000
     23 C24         2.8280   -3.6220   -1.0910 c3        1 XMD     -0.003000
     24 N25         3.2150   -5.1660   -3.1130 n         1 XMD     -0.155000
     25 O26         2.9080   -1.0340   -3.8120 o         1 XMD     -0.942000
     26 C27         4.3520   -5.4890   -3.9790 c3        1 XMD     -0.101000
     27 C28         4.9980    1.6570   -8.6170 c2        1 XMD     -0.006000
     28 N29         3.5580   -1.1100   -6.7930 n3        1 XMD     -0.288000
     29 C30         4.6840   -0.5250   -7.4140 c2        1 XMD      0.017000
     30 C31         4.4240    0.4450   -8.4890 c2        1 XMD     -0.133000
     31 C32         7.3260   -3.9920   -5.4460 c2        1 XMD     -0.204000
     32 C33         5.9520   -0.9170   -7.1540 c2        1 XMD     -0.289000
     33 C34         2.4400   -0.2350   -6.4860 c3        1 XMD     -0.130000
     34 C35         5.0070   -4.2630   -4.6170 c3        1 XMD     -0.160000
     35 C36         6.1850   -4.6760   -5.4190 c2        1 XMD     -0.171000
     36 N37         5.8880    2.2370   -7.7520 n2        1 XMD     -0.303000
     37 C38         6.6540    2.7540   -7.0110 c1        1 XMD      0.134000
     38 C39         1.2550   -0.8260   -5.8910 c1        1 XMD     -0.071000
     39 H1         -0.1370    1.4060   -0.5420 hc        1 XMD      0.117000
     40 H4          2.6190    2.5350   -0.1490 ha        1 XMD      0.144000
     41 H5          3.0820    2.1680    1.6190 ha        1 XMD      0.144000
     42 H8          0.1380   -0.3570   -0.2290 hc        1 XMD      0.117000
     43 H9          0.9770    2.5230   -4.2360 ha        1 XMD      0.164500
     44 H10         0.2670    0.8450   -4.6690 ha        1 XMD      0.164500
     45 H14         0.5040   -3.7130   -2.0790 h1        1 XMD      0.101000
     46 H171        0.6970   -4.6250   -6.3510 ho        1 XMD      0.252000
     47 H172       -0.1790   -6.3160   -9.1010 ha        1 XMD      0.116000
     48 H181       -0.2590   -6.5210   -7.2630 ha        1 XMD      0.116000
     49 H182       -1.5390   -4.3600   -7.0870 ha        1 XMD      0.116000
     50 H183       -1.4510   -4.1560   -8.9210 ha        1 XMD      0.116000
     51 H201        0.9410   -2.7540   -3.5580 h1        1 XMD      0.101000
     52 H202        0.3540   -1.8890   -2.0460 h1        1 XMD      0.101000
     53 H241        1.9960   -4.0600   -0.4650 h1        1 XMD      0.136500
     54 H242        3.5970   -3.1620   -0.3980 h1        1 XMD      0.136500
     55 H271        5.1170   -6.0450   -3.3640 h1        1 XMD      0.122000
     56 H272        3.9810   -6.1780   -4.7900 h1        1 XMD      0.122000
     57 H31         3.7030    0.1190   -9.2610 ha        1 XMD      0.150000
     58 H321        3.8140   -1.6630   -5.9950 hn        1 XMD      0.190000
     59 H322        8.1760   -4.3000   -6.0690 ha        1 XMD      0.119000
     60 H33         6.2050   -1.6540   -6.3810 ha        1 XMD      0.122500
     61 H341        7.4890   -3.0810   -4.8530 ha        1 XMD      0.119000
     62 H342        2.1270    0.3000   -7.4330 h1        1 XMD      0.135000
     63 H35         4.2700   -3.7500   -5.2950 hc        1 XMD      0.110500
     64 H361        5.3070   -3.5230   -3.8240 hc        1 XMD      0.110500
     65 H362        6.0480   -5.5870   -6.0250 ha        1 XMD      0.122000
     66 H38         6.7980   -0.5300   -7.7310 ha        1 XMD      0.122500
     67 H391        2.7180    0.5700   -5.7230 h1        1 XMD      0.135000
     68 H392        1.2820   -1.8820   -5.5820 ha        1 XMD      0.069000
     69 CL7         0.5870   -1.0870    4.3460 cl        1 XMD      0.187000
     70 H28         4.7580    2.3020   -9.4890 h4        1 XMD      0.146000
@<TRIPOS>BOND
     1    1    2 1   
     2    1    6 1   
     3    1    7 1   
     4    2    5 1   
     5    2   11 1   
     6    3    4 1   
     7    3    6 1   
     8    3    8 1   
     9    4   40 1   
    10    4   41 1   
    11    6   39 1   
    12    6   42 1   
    13    7    9 1   
    14    8   10 1   
    15    9   43 1   
    16    9   44 1   
    17   10   69 1   
    18   11   12 1   
    19   11   20 1   
    20   11   25 1   
    21   13   14 1   
    22   13   24 1   
    23   14   15 1   
    24   14   18 1   
    25   15   46 1   
    26   16   17 1   
    27   16   47 1   
    28   16   48 1   
    29   17   49 1   
    30   17   50 1   
    31   19   20 1   
    32   19   45 1   
    33   19   51 1   
    34   19   52 1   
    35   20   23 1   
    36   21   22 1   
    37   21   23 1   
    38   21   24 1   
    39   23   53 1   
    40   23   54 1   
    41   24   26 1   
    42   26   34 1   
    43   26   55 1   
    44   26   56 1   
    45   27   30 1   
    46   27   36 1   
    47   27   70 1   
    48   28   29 1   
    49   28   33 1   
    50   28   58 1   
    51   29   30 1   
    52   29   32 1   
    53   30   57 1   
    54   31   35 1   
    55   31   59 1   
    56   31   61 1   
    57   32   60 1   
    58   32   66 1   
    59   33   38 1   
    60   33   62 1   
    61   33   67 1   
    62   34   35 1   
    63   34   63 1   
    64   34   64 1   
    65   35   65 1   
    66   36   37 1   
    67   38   68 1   
@<TRIPOS>SUBSTRUCTURE
     1 XMD         1 TEMP              0 ****  ****    0 ROOT
