@<TRIPOS>MOLECULE
XMD
   70    74     1     0     0
SMALL
bcc


@<TRIPOS>ATOM
      1 C1         -0.4100    1.0880   -4.3180 ca        1 XMD      0.033000
      2 C2         -1.2690    0.4300   -3.4610 ca        1 XMD     -0.386500
      3 C3         -1.3170   -0.1330   -6.2320 ca        1 XMD      0.020000
      4 C4         -2.2050   -0.7970   -5.3410 ca        1 XMD     -0.130000
      5 C5         -2.1790   -0.5200   -3.9990 ca        1 XMD     -0.044000
      6 C6         -0.4110    0.8260   -5.7110 ca        1 XMD     -0.077000
      7 C8          0.4730    1.5020   -6.5980 ca        1 XMD     -0.089000
      8 C9         -1.3210   -0.4040   -7.6270 ca        1 XMD     -0.131000
      9 C10         0.4580    1.2300   -7.9420 ca        1 XMD     -0.130000
     10 C11        -0.4500    0.2660   -8.4570 ca        1 XMD      0.044400
     11 S12        -1.2960    0.7620   -1.8110 sy        1 XMD      1.514200
     12 O13        -2.5940    0.5270   -1.3190 o         1 XMD     -0.645800
     13 C14         1.5410   -0.3580    0.5330 c3        1 XMD      0.061700
     14 C15         3.0600   -0.5660    0.5030 c         1 XMD      0.613100
     15 O16         3.6820    0.0140    1.5670 os        1 XMD     -0.439900
     16 C17         5.1190   -0.0960    1.6150 c3        1 XMD      0.137400
     17 C18         5.5540    0.6260    2.8670 c3        1 XMD     -0.102100
     18 O19         3.7360   -1.1460   -0.3460 o         1 XMD     -0.526000
     19 C20         1.1170   -0.1030   -0.9440 c3        1 XMD      0.209800
     20 N21        -0.2730   -0.3570   -1.1870 n3        1 XMD     -0.809500
     21 C22        -0.2060   -2.1140    0.5820 c         1 XMD      0.695500
     22 O23        -0.7700   -3.0660    1.1510 o         1 XMD     -0.622500
     23 C24        -0.6910   -1.6750   -0.8030 c3        1 XMD      0.151800
     24 N25         0.8710   -1.4650    1.1750 n         1 XMD     -0.465800
     25 O26        -0.7440    2.0440   -1.6020 o         1 XMD     -0.645800
     26 C27         1.1900   -1.7440    2.5600 c3        1 XMD      0.091000
     27 C28        -1.6090    2.7470    8.5290 ca        1 XMD      0.414200
     28 N29        -0.4530    0.2100    6.0620 nh        1 XMD     -0.643000
     29 C30        -1.0900    0.7970    7.1740 ca        1 XMD      0.183600
     30 C31        -1.0480    2.2020    7.3680 ca        1 XMD     -0.295300
     31 C32        -0.3770   -1.2420    6.0460 c3        1 XMD      0.191800
     32 C33        -1.7180    0.0340    8.1880 ca        1 XMD     -0.295300
     33 C34        -0.7580    0.7960    4.7650 c3        1 XMD      0.191800
     34 C35         0.1800   -1.2180    3.5920 c3        1 XMD     -0.090700
     35 C36         0.5500   -1.7770    4.9560 c3        1 XMD     -0.078900
     36 N37        -2.2000    2.0210    9.4990 nb        1 XMD     -0.688000
     37 C38        -2.2400    0.6890    9.3130 ca        1 XMD      0.414200
     38 C39         0.1620    0.2980    3.6500 c3        1 XMD     -0.078900
     39 H1          0.2890    1.8490   -3.9230 ha        1 XMD      0.154000
     40 H4         -2.9150   -1.5330   -5.7520 ha        1 XMD      0.146000
     41 H5         -2.8840   -1.0180   -3.3110 ha        1 XMD      0.154000
     42 H8          1.1700    2.2480   -6.1850 ha        1 XMD      0.145000
     43 H9         -2.0270   -1.1510   -8.0220 ha        1 XMD      0.155000
     44 H10         1.1400    1.7510   -8.6320 ha        1 XMD      0.155000
     45 H14         1.3480    0.5810    1.1400 h1        1 XMD      0.085700
     46 H171        5.5440    0.3720    0.6890 h1        1 XMD      0.054200
     47 H172        5.3930   -1.1830    1.6370 h1        1 XMD      0.054200
     48 H181        6.6660    0.5670    2.9500 hc        1 XMD      0.051367
     49 H182        5.2460    1.6980    2.8300 hc        1 XMD      0.051367
     50 H183        5.0940    0.1590    3.7700 hc        1 XMD      0.051367
     51 H201        1.3520    0.9760   -1.1770 h1        1 XMD      0.082700
     52 H202        1.7440   -0.7640   -1.6140 h1        1 XMD      0.082700
     53 H241       -1.8200   -1.7280   -0.7880 h1        1 XMD      0.091200
     54 H242       -0.3010   -2.4420   -1.5350 h1        1 XMD      0.091200
     55 H271        1.2400   -2.8680    2.6690 h1        1 XMD      0.069200
     56 H272        2.2060   -1.3130    2.7900 h1        1 XMD      0.069200
     57 H31        -0.5690    2.8680    6.6380 ha        1 XMD      0.143000
     58 H321       -1.4000   -1.7000    5.9040 h1        1 XMD      0.042450
     59 H322        0.0230   -1.5800    7.0440 h1        1 XMD      0.042450
     60 H33        -1.8110   -1.0570    8.1170 ha        1 XMD      0.143000
     61 H341       -1.8260    0.5720    4.4720 h1        1 XMD      0.042450
     62 H342       -0.6500    1.9140    4.8380 h1        1 XMD      0.042450
     63 H35        -0.8470   -1.5890    3.3140 hc        1 XMD      0.073700
     64 H361        0.4660   -2.8950    4.9480 hc        1 XMD      0.052450
     65 H362        1.6120   -1.5120    5.1970 hc        1 XMD      0.052450
     66 H38        -2.7290    0.1080   10.1160 h4        1 XMD      0.019100
     67 H391        1.2020    0.6840    3.8100 hc        1 XMD      0.052450
     68 H392       -0.2190    0.7210    2.6850 hc        1 XMD      0.052450
     69 CL7        -0.4440   -0.0490  -10.1260 cl        1 XMD     -0.077400
     70 H28        -1.5840    3.8390    8.6980 h4        1 XMD      0.019100
@<TRIPOS>BOND
     1    1    2 ar  
     2    1    6 ar  
     3    1   39 1   
     4    2    5 ar  
     5    2   11 1   
     6    3    4 ar  
     7    3    6 ar  
     8    3    8 ar  
     9    4    5 ar  
    10    4   40 1   
    11    5   41 1   
    12    6    7 ar  
    13    7    9 ar  
    14    7   42 1   
    15    8   10 ar  
    16    8   43 1   
    17    9   10 ar  
    18    9   44 1   
    19   10   69 1   
    20   11   12 2   
    21   11   20 1   
    22   11   25 2   
    23   13   14 1   
    24   13   19 1   
    25   13   24 1   
    26   13   45 1   
    27   14   15 1   
    28   14   18 2   
    29   15   16 1   
    30   16   17 1   
    31   16   46 1   
    32   16   47 1   
    33   17   48 1   
    34   17   49 1   
    35   17   50 1   
    36   19   20 1   
    37   19   51 1   
    38   19   52 1   
    39   20   23 1   
    40   21   22 2   
    41   21   23 1   
    42   21   24 1   
    43   23   53 1   
    44   23   54 1   
    45   24   26 1   
    46   26   34 1   
    47   26   55 1   
    48   26   56 1   
    49   27   30 ar  
    50   27   36 ar  
    51   27   70 1   
    52   28   29 1   
    53   28   31 1   
    54   28   33 1   
    55   29   30 ar  
    56   29   32 ar  
    57   30   57 1   
    58   31   35 1   
    59   31   58 1   
    60   31   59 1   
    61   32   37 ar  
    62   32   60 1   
    63   33   38 1   
    64   33   61 1   
    65   33   62 1   
    66   34   35 1   
    67   34   38 1   
    68   34   63 1   
    69   35   64 1   
    70   35   65 1   
    71   36   37 ar  
    72   37   66 1   
    73   38   67 1   
    74   38   68 1   
@<TRIPOS>SUBSTRUCTURE
     1 XMD         1 TEMP              0 ****  ****    0 ROOT
