@<TRIPOS>MOLECULE
XMD
   70    66     1     0     0
SMALL
bcc


@<TRIPOS>ATOM
      1 C1          0.1980   -1.2520    0.0760 c1        1 XMD     -0.013000
      2 C2          0.7900   -0.2110    0.8560 c2        1 XMD     -1.141000
      3 C3         -0.1620   -2.5440    2.1670 c2        1 XMD     -0.002000
      4 C4         -0.6820   -1.7050    3.0910 c2        1 XMD     -0.170000
      5 C5          0.8890   -0.2390    2.1880 c1        1 XMD      0.414000
      6 C6         -0.4620   -2.3800    0.7090 c3        1 XMD     -0.212000
      7 C8         -2.9120   -0.4400   -0.1770 c1        1 XMD      0.095000
      8 C9          0.7110   -3.5900    2.5150 c1        1 XMD     -0.127000
      9 C10        -3.0150    0.6680   -0.8440 c2        1 XMD     -0.527000
     10 C11         1.4480   -4.4890    2.8080 c1        1 XMD     -0.160000
     11 S12         1.2530    1.0180   -0.2410 s6        1 XMD      2.909000
     12 O13         1.9110    2.0140    0.5020 o         1 XMD     -0.940000
     13 C14         2.5220   -0.3340   -3.6260 c3        1 XMD      0.022000
     14 C15         1.7060   -1.1550   -4.6160 c2        1 XMD      0.308000
     15 O16         1.2470   -0.4200   -5.6600 oh        1 XMD     -0.311000
     16 C17        -0.4380   -2.9020   -7.3320 c2        1 XMD     -0.231000
     17 C18        -1.2680   -1.8840   -7.5210 c2        1 XMD     -0.231000
     18 O19         1.4070   -2.3500   -4.5750 o         1 XMD     -0.351000
     19 C20         1.9780   -0.6740   -2.2020 c3        1 XMD     -0.022000
     20 N21         2.3080    0.3180   -1.2290 n3        1 XMD     -0.882000
     21 C22         4.8120    0.4990   -3.4670 c2        1 XMD      0.230000
     22 O23         6.0520    0.3190   -3.4200 o         1 XMD     -0.350000
     23 C24         4.2630    1.7790   -3.0450 c1        1 XMD      0.021000
     24 N25         3.9420   -0.5450   -3.7970 n         1 XMD     -0.328000
     25 O26         0.0970    1.4370   -0.9260 o         1 XMD     -0.940000
     26 C27         4.4680   -1.8950   -3.8740 c3        1 XMD     -0.033000
     27 C28         6.3420   -2.9640  -11.2130 c2        1 XMD     -0.002000
     28 N29         5.4890   -3.8950   -7.8190 n3        1 XMD     -0.279000
     29 C30         6.2310   -4.1390   -8.9970 c2        1 XMD      0.022000
     30 C31         5.6660   -3.6300  -10.2560 c2        1 XMD     -0.133000
     31 C32         7.9580   -5.1580   -5.4650 c1        1 XMD     -0.220500
     32 C33         7.3390   -4.9140   -9.0120 c2        1 XMD     -0.289000
     33 C34         4.9140   -2.5730   -7.6780 c3        1 XMD     -0.055000
     34 C35         5.1710   -2.2240   -5.1920 c3        1 XMD     -0.176000
     35 C36         6.8820   -5.4770   -5.0510 c1        1 XMD     -0.220500
     36 N37         7.6610   -2.5950  -11.1770 n2        1 XMD     -0.304000
     37 C38         8.7980   -2.2640  -11.1610 c1        1 XMD      0.136000
     38 C39         4.2030   -2.3590   -6.3430 c3        1 XMD     -0.170000
     39 H1         -1.5770   -2.1900    0.5440 hc        1 XMD      0.180000
     40 H4         -1.4350   -0.9470    2.8260 ha        1 XMD      0.142500
     41 H5         -0.4340   -1.7800    4.1590 ha        1 XMD      0.142500
     42 H8         -0.2110   -3.3170    0.1360 hc        1 XMD      0.180000
     43 H9         -2.0980    1.2060   -1.1810 ha        1 XMD      0.217500
     44 H10        -3.9410    1.1830   -1.1370 ha        1 XMD      0.217500
     45 H14         2.2990    0.7580   -3.8520 h1        1 XMD      0.125000
     46 H171        0.7100   -0.9800   -6.2550 ho        1 XMD      0.257000
     47 H172       -0.0540   -3.1830   -6.3380 ha        1 XMD      0.116750
     48 H181       -0.0820   -3.5360   -8.1550 ha        1 XMD      0.116750
     49 H182       -1.6540   -1.6080   -8.5110 ha        1 XMD      0.116750
     50 H183       -1.6350   -1.2560   -6.6970 ha        1 XMD      0.116750
     51 H201        0.8520   -0.7690   -2.2650 h1        1 XMD      0.122500
     52 H202        2.3860   -1.6810   -1.8960 h1        1 XMD      0.122500
     53 H241        3.2770    0.5570   -1.1930 hn        1 XMD      0.268000
     54 H242        4.1980    2.6030   -3.7630 ha        1 XMD      0.109000
     55 H271        5.2220   -2.0300   -3.0420 h1        1 XMD      0.105000
     56 H272        3.6230   -2.6240   -3.7130 h1        1 XMD      0.105000
     57 H31         4.5930   -3.8390  -10.4170 ha        1 XMD      0.152000
     58 H321        5.9840   -4.1870   -6.9950 hn        1 XMD      0.188000
     59 H322        8.9140   -4.8730   -5.8270 ha        1 XMD      0.223000
     60 H33         7.7900   -5.3250   -8.0990 ha        1 XMD      0.124000
     61 H341        5.6920   -1.7620   -7.8000 h1        1 XMD      0.075000
     62 H342        4.1620   -2.4430   -8.5080 h1        1 XMD      0.075000
     63 H35         5.9390   -1.4370   -5.4180 hc        1 XMD      0.100000
     64 H361        5.7190   -3.1930   -5.0340 hc        1 XMD      0.100000
     65 H362        5.9290   -5.7710   -4.6880 ha        1 XMD      0.223000
     66 H38         7.8300   -5.1930   -9.9500 ha        1 XMD      0.124000
     67 H391        3.4850   -3.1980   -6.1400 hc        1 XMD      0.092500
     68 H392        3.5910   -1.4210   -6.4370 hc        1 XMD      0.092500
     69 CL7         2.4270   -5.6840    3.1930 cl        1 XMD      0.186000
     70 H28         5.8270   -2.6480  -12.1450 h4        1 XMD      0.147000
@<TRIPOS>BOND
     1    1    2 1   
     2    1    6 1   
     3    2    5 1   
     4    2   11 1   
     5    3    4 1   
     6    3    6 1   
     7    3    8 1   
     8    4   40 1   
     9    4   41 1   
    10    6   39 1   
    11    6   42 1   
    12    7    9 1   
    13    8   10 1   
    14    9   43 1   
    15    9   44 1   
    16   10   69 1   
    17   11   12 1   
    18   11   20 1   
    19   11   25 1   
    20   13   14 1   
    21   13   19 1   
    22   13   24 1   
    23   13   45 1   
    24   14   15 1   
    25   14   18 1   
    26   15   46 1   
    27   16   17 1   
    28   16   47 1   
    29   16   48 1   
    30   17   49 1   
    31   17   50 1   
    32   19   20 1   
    33   19   51 1   
    34   19   52 1   
    35   20   53 1   
    36   21   22 1   
    37   21   23 1   
    38   21   24 1   
    39   23   54 1   
    40   24   26 1   
    41   26   34 1   
    42   26   55 1   
    43   26   56 1   
    44   27   30 1   
    45   27   36 1   
    46   27   70 1   
    47   28   29 1   
    48   28   33 1   
    49   28   58 1   
    50   29   30 1   
    51   29   32 1   
    52   30   57 1   
    53   31   35 1   
    54   31   59 1   
    55   32   60 1   
    56   32   66 1   
    57   33   38 1   
    58   33   61 1   
    59   33   62 1   
    60   34   38 1   
    61   34   63 1   
    62   34   64 1   
    63   35   65 1   
    64   36   37 1   
    65   38   67 1   
    66   38   68 1   
@<TRIPOS>SUBSTRUCTURE
     1 XMD         1 TEMP              0 ****  ****    0 ROOT
