@<TRIPOS>MOLECULE
XMD
   70    65     1     0     0
SMALL
bcc


@<TRIPOS>ATOM
      1 C1         -0.3100    0.3390    0.8620 c1        1 XMD     -0.020000
      2 C2          0.9680    0.0420    0.3260 c2        1 XMD     -1.105000
      3 C3          0.4200   -0.7310    3.0020 c2        1 XMD     -0.012000
      4 C4          1.6440   -0.2450    3.3060 c2        1 XMD     -0.168000
      5 C5          1.9770   -0.5180    0.9910 c1        1 XMD      0.394000
      6 C6         -0.5950    0.0970    2.2760 c3        1 XMD     -0.194000
      7 C8         -2.8630    0.2040   -1.4590 c1        1 XMD      0.093000
      8 C9          0.0420   -2.0470    3.3200 c1        1 XMD     -0.124000
      9 C10        -3.1800    1.0100   -0.4960 c2        1 XMD     -0.504000
     10 C11        -0.2860   -3.1670    3.5970 c1        1 XMD     -0.163000
     11 S12         1.0080    0.6060   -1.3390 s6        1 XMD      2.979000
     12 O13         2.2690    0.1780   -1.8280 o         1 XMD     -0.956500
     13 C14         2.6740   -2.3430   -3.6930 c2        1 XMD     -0.051000
     14 C15         1.4040   -2.8260   -4.3040 c2        1 XMD      0.360000
     15 O16         1.5250   -3.5340   -5.4520 oh        1 XMD     -0.292000
     16 C17        -1.8040   -4.2130   -6.0320 c2        1 XMD     -0.229500
     17 C18        -1.4170   -3.9530   -7.2750 c2        1 XMD     -0.229500
     18 O19         0.2570   -2.5980   -3.8960 o         1 XMD     -0.405000
     19 C20        -1.0350   -0.8640   -2.4820 c2        1 XMD      0.370000
     20 N21        -0.1120   -0.1170   -2.0470 n2        1 XMD     -1.047000
     21 C22         4.8470   -2.7200   -2.8640 c2        1 XMD      0.044000
     22 O23         5.8750   -3.6650   -2.7950 os        1 XMD     -0.218000
     23 C24         5.0980   -1.5400   -2.2520 c2        1 XMD     -0.231000
     24 N25         3.6480   -3.1530   -3.4720 n2        1 XMD     -0.137000
     25 O26         0.8530    1.9970   -1.2800 o         1 XMD     -0.956500
     26 C27         6.0300   -4.5700   -3.8850 c3        1 XMD     -0.008000
     27 C28         6.5260   -0.0490  -11.0370 c2        1 XMD      0.003000
     28 N29         5.4170   -2.4720   -8.5910 n7        1 XMD     -0.308000
     29 C30         6.2370   -2.1520   -9.6970 c2        1 XMD      0.020000
     30 C31         5.7730   -1.0670  -10.5750 c2        1 XMD     -0.141000
     31 C32         7.6780   -4.8320   -7.0840 c2        1 XMD     -0.225000
     32 C33         7.3300   -2.8740  -10.0310 c2        1 XMD     -0.287000
     33 C34         4.8900   -1.3670   -7.8120 c3        1 XMD     -0.146000
     34 C35         6.4390   -3.8560   -5.1640 c3        1 XMD     -0.167000
     35 C36         6.6230   -4.8220   -6.2730 c2        1 XMD     -0.170000
     36 N37         7.8410    0.1950  -10.7420 n2        1 XMD     -0.307000
     37 C38         8.9770    0.4230  -10.4950 c1        1 XMD      0.141000
     38 C39         3.8740   -1.6430   -6.8160 c1        1 XMD     -0.076000
     39 H1         -0.6890    1.1160    2.7570 hc        1 XMD      0.149500
     40 H4          1.9150    0.8050    3.1240 ha        1 XMD      0.140000
     41 H5          2.4130   -0.8570    3.7960 ha        1 XMD      0.140000
     42 H8         -1.6140   -0.3820    2.3400 hc        1 XMD      0.149500
     43 H9         -2.3760    1.2610    0.2420 ha        1 XMD      0.218000
     44 H10        -4.1380    1.5050   -0.2980 ha        1 XMD      0.218000
     45 H14         2.6420   -1.2530   -3.4510 h4        1 XMD      0.195000
     46 H171        0.6400   -3.7770   -5.7870 ho        1 XMD      0.250000
     47 H172       -2.3910   -5.1030   -5.7690 ha        1 XMD      0.115500
     48 H181       -1.5640   -3.5540   -5.1830 ha        1 XMD      0.115500
     49 H182       -0.8370   -3.0590   -7.5410 ha        1 XMD      0.115500
     50 H183       -1.6580   -4.6090   -8.1220 ha        1 XMD      0.115500
     51 H201       -1.4770   -0.6970   -3.4870 h4        1 XMD      0.109000
     52 H202       -1.3890   -1.7630   -1.9320 h4        1 XMD      0.109000
     53 H241        4.3330   -0.7560   -2.1400 ha        1 XMD      0.155000
     54 H242        6.0800   -1.3400   -1.8070 ha        1 XMD      0.155000
     55 H271        5.1040   -5.1800   -4.0410 h1        1 XMD      0.102000
     56 H272        6.8600   -5.2390   -3.5230 h1        1 XMD      0.102000
     57 H31         4.7150   -1.1230  -10.8860 ha        1 XMD      0.152000
     58 H321        7.7780   -5.5570   -7.9040 ha        1 XMD      0.116000
     59 H322        8.5140   -4.1270   -6.9850 ha        1 XMD      0.116000
     60 H33         7.7100   -3.7000   -9.4150 ha        1 XMD      0.124000
     61 H341        5.8210   -3.1890   -8.0150 hn        1 XMD      0.189000
     62 H342        4.4140   -0.6160   -8.5220 h1        1 XMD      0.142500
     63 H35         5.6380   -3.1190   -5.4530 hc        1 XMD      0.092000
     64 H361        7.3760   -3.2670   -4.9760 hc        1 XMD      0.092000
     65 H362        5.8030   -5.5510   -6.3950 ha        1 XMD      0.127000
     66 H38         7.8830   -2.6810  -10.9570 ha        1 XMD      0.124000
     67 H391        5.7060   -0.7930   -7.2610 h1        1 XMD      0.142500
     68 H392        3.5440   -2.6770   -6.6380 ha        1 XMD      0.073000
     69 Cl7        -0.7240   -4.6530    3.9620 cl        1 XMD      0.185000
     70 H28         6.0870    0.7050  -11.7250 h4        1 XMD      0.149000
@<TRIPOS>BOND
     1    1    2 1   
     2    1    6 1   
     3    2    5 1   
     4    2   11 1   
     5    3    4 1   
     6    3    6 1   
     7    3    8 1   
     8    4   40 1   
     9    4   41 1   
    10    6   39 1   
    11    6   42 1   
    12    7    9 1   
    13    8   10 1   
    14    9   43 1   
    15    9   44 1   
    16   10   69 1   
    17   11   12 1   
    18   11   20 1   
    19   11   25 1   
    20   13   14 1   
    21   13   24 1   
    22   13   45 1   
    23   14   15 1   
    24   14   18 1   
    25   15   46 1   
    26   16   17 1   
    27   16   47 1   
    28   16   48 1   
    29   17   49 1   
    30   17   50 1   
    31   19   20 1   
    32   19   51 1   
    33   19   52 1   
    34   21   22 1   
    35   21   23 1   
    36   21   24 1   
    37   22   26 1   
    38   23   53 1   
    39   23   54 1   
    40   26   34 1   
    41   26   55 1   
    42   26   56 1   
    43   27   30 1   
    44   27   36 1   
    45   27   70 1   
    46   28   29 1   
    47   28   33 1   
    48   28   61 1   
    49   29   30 1   
    50   29   32 1   
    51   30   57 1   
    52   31   35 1   
    53   31   58 1   
    54   31   59 1   
    55   32   60 1   
    56   32   66 1   
    57   33   38 1   
    58   33   62 1   
    59   33   67 1   
    60   34   35 1   
    61   34   63 1   
    62   34   64 1   
    63   35   65 1   
    64   36   37 1   
    65   38   68 1   
@<TRIPOS>SUBSTRUCTURE
     1 XMD         1 TEMP              0 ****  ****    0 ROOT
