@<TRIPOS>MOLECULE
XMD
   70    65     1     0     0
SMALL
bcc


@<TRIPOS>ATOM
      1 C1         -1.1360    4.0840    3.7450 c1        1 XMD     -0.079750
      2 C2         -2.0950    3.3880    2.9680 c1        1 XMD     -0.831000
      3 C3         -2.5700    3.8750    5.6860 c1        1 XMD     -0.028500
      4 C4         -3.5150    3.1880    4.9170 c1        1 XMD     -0.079750
      5 C5         -3.2760    2.9450    3.5560 c1        1 XMD     -0.043000
      6 C6         -1.3780    4.3240    5.1000 c1        1 XMD     -0.028500
      7 CL7        -1.9460    5.2060    9.5240 cl        1 XMD      0.001000
      8 C8         -0.4500    5.0380    5.8700 c1        1 XMD     -0.079750
      9 C9         -2.8340    4.1410    7.0430 c1        1 XMD     -0.079750
     10 C10        -0.7180    5.3030    7.2290 c1        1 XMD     -0.130000
     11 C11        -1.9120    4.8510    7.8080 c1        1 XMD     -0.034000
     12 S12        -1.6980    3.1980    1.2390 s4        1 XMD      2.070800
     13 O13        -0.6780    4.1590    0.8200 o         1 XMD     -0.532400
     14 C14        -1.5590    0.6920   -1.3240 c3        1 XMD      0.036000
     15 C15        -2.3890   -0.3260   -2.1420 c2        1 XMD      0.286000
     16 O16        -3.6200    0.0530   -2.6920 os        1 XMD     -0.275000
     17 C17        -4.5310   -1.0480   -2.9030 c3        1 XMD     -0.014000
     18 C18        -5.9240   -0.5180   -3.0820 c3        1 XMD     -0.220000
     19 O19        -1.9600   -1.4000   -2.3490 o         1 XMD     -0.340000
     20 C20        -2.0410    0.7750    0.0900 c3        1 XMD     -0.026000
     21 N21        -1.2220    1.6350    0.9300 n2        1 XMD     -0.828000
     22 C22         0.6710    1.1840   -0.5290 c1        1 XMD      0.304000
     23 O23         1.8520    1.3220   -0.7670 o         1 XMD     -0.351000
     24 C24         0.1570    1.2960    0.9290 c2        1 XMD     -0.035000
     25 N25        -0.1250    0.3530   -1.3520 n3        1 XMD     -0.326000
     26 O26        -2.8130    3.5860    0.3930 o         1 XMD     -0.532400
     27 C27         0.4550   -0.2650   -2.5580 c3        1 XMD     -0.025000
     28 C28         6.0850   -5.9720   -3.3130 c1        1 XMD     -0.052000
     29 N29         3.5130   -3.2880   -3.0120 n3        1 XMD     -0.245000
     30 C30         4.5290   -4.2530   -2.6670 c2        1 XMD      0.104000
     31 C31         5.1480   -5.0000   -3.6580 c1        1 XMD     -0.223000
     32 C32         2.2160   -3.7030   -2.4060 c3        1 XMD     -0.043000
     33 C33         4.8370   -4.4700   -1.3680 c2        1 XMD     -0.241000
     34 C34         3.9470   -1.9420   -2.5730 c3        1 XMD     -0.043000
     35 C35         1.5530   -1.2950   -2.1480 c3        1 XMD     -0.123000
     36 C36         1.1220   -2.6560   -2.5940 c3        1 XMD     -0.157000
     37 N37         6.3870   -6.1850   -2.0140 n1        1 XMD     -0.163000
     38 C38         5.7690   -5.4380   -1.0270 c1        1 XMD     -0.049000
     39 C39         2.8550   -0.8830   -2.7600 c3        1 XMD     -0.157000
     40 H1         -0.2990    4.3970    3.3310 ha        1 XMD      0.151250
     41 H4         -4.3710    2.8670    5.3430 ha        1 XMD      0.151250
     42 H5         -3.9140    2.4820    3.0400 ha        1 XMD      0.150000
     43 H8          0.3740    5.3500    5.4690 ha        1 XMD      0.151250
     44 H9         -3.6280    3.7990    7.4490 ha        1 XMD      0.151250
     45 H10        -0.0550    5.6970    7.7700 ha        1 XMD      0.155000
     46 H14        -1.7420    1.5390   -1.8210 h1        1 XMD      0.126000
     47 H171       -4.2630   -1.5460   -3.7110 h1        1 XMD      0.094500
     48 H172       -4.5070   -1.6370   -2.1390 h1        1 XMD      0.094500
     49 H181       -6.5680   -1.2990   -3.2490 hc        1 XMD      0.090000
     50 H182       -6.1940   -0.0420   -2.2820 hc        1 XMD      0.090000
     51 H183       -5.9450    0.0850   -3.8380 hc        1 XMD      0.090000
     52 H201       -2.0430   -0.1520    0.4840 h1        1 XMD      0.121500
     53 H202       -2.9410    1.1110    0.0890 h1        1 XMD      0.121500
     54 H241        0.8160    1.8760    1.4160 h4        1 XMD      0.130000
     55 H242        0.2350    0.4430    1.4530 h4        1 XMD      0.130000
     56 H271        0.8420    0.4090   -3.1040 h1        1 XMD      0.109500
     57 H272       -0.2540   -0.7270   -3.0610 h1        1 XMD      0.109500
     58 H28         6.5320   -6.5120   -4.0250 ha        1 XMD      0.156000
     59 H31         4.9260   -4.8430   -4.6060 ha        1 XMD      0.143000
     60 H321        2.3490   -3.8560   -1.4400 h1        1 XMD      0.079250
     61 H322        1.9170   -4.5630   -2.8340 h1        1 XMD      0.079250
     62 H33         4.4100   -3.9530   -0.6810 ha        1 XMD      0.143000
     63 H341        4.1870   -1.9810   -1.6410 h1        1 XMD      0.079250
     64 H342        4.7370   -1.6790   -3.0930 h1        1 XMD      0.079250
     65 H35         1.6480   -1.2910   -1.1580 hc        1 XMD      0.092000
     66 H361        0.8820   -2.6160   -3.5450 hc        1 XMD      0.097250
     67 H362        0.3090   -2.9330   -2.0630 hc        1 XMD      0.097250
     68 H38         5.9810   -5.5880   -0.1240 ha        1 XMD      0.155000
     69 H391        3.1460   -0.0570   -2.3490 hc        1 XMD      0.097250
     70 H392        2.7240   -0.7360   -3.6910 hc        1 XMD      0.097250
@<TRIPOS>BOND
     1    1    6 1   
     2    1   40 1   
     3    2    5 1   
     4    2   12 1   
     5    3    4 1   
     6    3    9 1   
     7    4   41 1   
     8    5   42 1   
     9    6    8 1   
    10    7   11 1   
    11    8   43 1   
    12    9   44 1   
    13   10   11 1   
    14   10   45 1   
    15   12   13 1   
    16   12   26 1   
    17   14   15 1   
    18   14   20 1   
    19   14   25 1   
    20   14   46 1   
    21   15   16 1   
    22   15   19 1   
    23   16   17 1   
    24   17   18 1   
    25   17   47 1   
    26   17   48 1   
    27   18   49 1   
    28   18   50 1   
    29   18   51 1   
    30   20   21 1   
    31   20   52 1   
    32   20   53 1   
    33   21   24 1   
    34   22   23 1   
    35   22   25 1   
    36   24   54 1   
    37   24   55 1   
    38   25   27 1   
    39   27   35 1   
    40   27   56 1   
    41   27   57 1   
    42   28   37 1   
    43   28   58 1   
    44   29   30 1   
    45   29   32 1   
    46   29   34 1   
    47   30   31 1   
    48   30   33 1   
    49   31   59 1   
    50   32   36 1   
    51   32   60 1   
    52   32   61 1   
    53   33   38 1   
    54   33   62 1   
    55   34   39 1   
    56   34   63 1   
    57   34   64 1   
    58   35   36 1   
    59   35   39 1   
    60   35   65 1   
    61   36   66 1   
    62   36   67 1   
    63   38   68 1   
    64   39   69 1   
    65   39   70 1   
@<TRIPOS>SUBSTRUCTURE
     1 XMD         1 TEMP              0 ****  ****    0 ROOT
