@<TRIPOS>MOLECULE
XME
   65    59     1     0     0
SMALL
bcc


@<TRIPOS>ATOM
      1 C1         -3.9480   -3.8510    3.5310 c1        1 XME     -0.081750
      2 C2         -2.7880   -3.7030    2.7340 c1        1 XME     -0.823000
      3 C3         -2.5790   -4.4830    5.4370 c1        1 XME     -0.029000
      4 C4         -1.4140   -4.3320    4.6320 c1        1 XME     -0.081750
      5 C5         -1.5330   -3.9420    3.2830 c1        1 XME     -0.043000
      6 C6         -3.8270   -4.2470    4.9000 c1        1 XME     -0.029000
      7 CL7        -3.5980   -5.6510    9.2380 cl        1 XME     -0.001000
      8 C8         -4.9860   -4.4730    5.6800 c1        1 XME     -0.081750
      9 C9         -2.4580   -4.9550    6.7800 c1        1 XME     -0.081750
     10 C10        -4.8610   -4.9450    7.0230 c1        1 XME     -0.130000
     11 C11        -3.6160   -5.1800    7.5590 c1        1 XME     -0.036000
     12 S12        -2.7980   -3.3610    0.9820 s4        1 XME      2.068800
     13 O13        -2.2150   -4.4710    0.2140 o         1 XME     -0.532900
     14 C14         0.5350   -0.0930    0.2310 c1        1 XME      0.299000
     15 O15         1.7420    0.0860    0.4920 o         1 XME     -0.358000
     16 C16        -0.0920   -1.5570    0.3150 c2        1 XME     -0.035000
     17 N17        -1.7200   -1.4360    0.5680 n2        1 XME     -0.831000
     18 C18        -1.7950    0.8940   -0.5630 c3        1 XME     -0.024000
     19 C19        -2.4300   -0.4170   -0.5210 c3        1 XME     -0.030000
     20 N20        -0.1980    0.8500   -0.7660 n3        1 XME     -0.329000
     21 O21        -4.1220   -3.3370    0.4680 o         1 XME     -0.532900
     22 C22         0.4780    1.9910   -1.2880 c3        1 XME     -0.010000
     23 C23         5.8620    4.9210   -1.7640 c1        1 XME     -0.049000
     24 N24         3.3390    2.8450   -3.5560 n3        1 XME     -0.247000
     25 C25         4.6150    3.4260   -3.1410 c2        1 XME      0.106000
     26 C26         4.6630    4.2710   -2.0840 c1        1 XME     -0.245000
     27 C27         2.2680    3.7750   -3.2510 c3        1 XME     -0.048000
     28 C28         5.7590    3.2060   -3.9070 c2        1 XME     -0.218000
     29 C29         3.1760    1.5310   -2.9350 c3        1 XME     -0.048000
     30 C30         0.6480    1.8410   -2.8500 c3        1 XME     -0.053000
     31 C31        -0.7100    1.2420   -3.2400 c2        1 XME     -0.114000
     32 N32        -1.8120    1.9920   -3.1720 n1        1 XME     -0.070000
     33 O33        -1.7280    3.3340   -2.7430 o         1 XME     -0.271000
     34 C34         0.8820    3.2010   -3.5300 c3        1 XME     -0.153500
     35 N35         6.9870    4.7010   -2.5220 n1        1 XME     -0.164000
     36 C36         6.9390    3.8480   -3.5880 c1        1 XME     -0.052000
     37 C37         1.8010    0.9090   -3.2080 c3        1 XME     -0.153500
     38 H1         -4.8420   -3.6800    3.1410 ha        1 XME      0.149500
     39 H4         -0.5100   -4.5060    5.0240 ha        1 XME      0.149500
     40 H5         -0.7110   -3.8360    2.7190 ha        1 XME      0.156000
     41 H8         -5.8490   -4.3110    5.3110 ha        1 XME      0.149500
     42 H9         -1.5640   -5.0880    7.1760 ha        1 XME      0.149500
     43 H10        -5.6510   -5.0760    7.5630 ha        1 XME      0.154000
     44 H161        0.2190   -2.1200   -0.4120 h4        1 XME      0.125000
     45 H162        0.2600   -2.0250    1.0550 h4        1 XME      0.125000
     46 H181       -1.9880    1.3600    0.2840 h1        1 XME      0.098000
     47 H182       -2.1820    1.3960   -1.2820 h1        1 XME      0.098000
     48 H191       -3.3950   -0.3010   -0.2690 h1        1 XME      0.095500
     49 H192       -2.3830   -0.8200   -1.4120 h1        1 XME      0.095500
     50 H221        1.3820    2.0700   -0.8600 h1        1 XME      0.108000
     51 H222       -0.0360    2.7790   -1.0970 h1        1 XME      0.108000
     52 H23         5.8990    5.5260   -1.0080 ha        1 XME      0.154000
     53 H26         3.8440    4.4300   -1.5330 ha        1 XME      0.139000
     54 H271        2.3870    4.5800   -3.7950 h1        1 XME      0.088250
     55 H272        2.3240    4.0280   -2.2780 h1        1 XME      0.088250
     56 H28         5.7270    2.6090   -4.6540 ha        1 XME      0.146000
     57 H291        3.2990    1.6200   -1.9630 h1        1 XME      0.088250
     58 H292        3.8880    0.9110   -3.3000 h1        1 XME      0.088250
     59 H31        -0.7710    0.2830   -3.5460 h4        1 XME      0.166000
     60 H33        -2.5660    3.6760   -2.6510 ho        1 XME      0.238000
     61 H341        0.2000    3.8410   -3.2030 hc        1 XME      0.100000
     62 H342        0.7710    3.0870   -4.5440 hc        1 XME      0.100000
     63 H36         7.7410    3.6930   -4.1270 ha        1 XME      0.156000
     64 H371        1.7150    0.0680   -2.6780 hc        1 XME      0.100000
     65 H372        1.7410    0.6930   -4.1400 hc        1 XME      0.100000
@<TRIPOS>BOND
     1    1    6 1   
     2    1   38 1   
     3    2    5 1   
     4    2   12 1   
     5    3    4 1   
     6    3    9 1   
     7    4   39 1   
     8    5   40 1   
     9    6    8 1   
    10    7   11 1   
    11    8   41 1   
    12    9   42 1   
    13   10   11 1   
    14   10   43 1   
    15   12   13 1   
    16   12   21 1   
    17   14   15 1   
    18   14   20 1   
    19   16   17 1   
    20   16   44 1   
    21   16   45 1   
    22   17   19 1   
    23   18   19 1   
    24   18   20 1   
    25   18   46 1   
    26   18   47 1   
    27   19   48 1   
    28   19   49 1   
    29   20   22 1   
    30   22   30 1   
    31   22   50 1   
    32   22   51 1   
    33   23   35 1   
    34   23   52 1   
    35   24   25 1   
    36   24   27 1   
    37   24   29 1   
    38   25   26 1   
    39   25   28 1   
    40   26   53 1   
    41   27   34 1   
    42   27   54 1   
    43   27   55 1   
    44   28   36 1   
    45   28   56 1   
    46   29   37 1   
    47   29   57 1   
    48   29   58 1   
    49   30   31 1   
    50   30   34 1   
    51   30   37 1   
    52   31   32 1   
    53   31   59 1   
    54   33   60 1   
    55   34   61 1   
    56   34   62 1   
    57   36   63 1   
    58   37   64 1   
    59   37   65 1   
@<TRIPOS>SUBSTRUCTURE
     1 XME         1 TEMP              0 ****  ****    0 ROOT
