@<TRIPOS>MOLECULE
XME
   65    69     1     0     0
SMALL
bcc


@<TRIPOS>ATOM
      1 C1         -0.5940   -0.9190    4.6200 ca        1 XME      0.029000
      2 C2         -0.8470    0.0870    3.7100 ca        1 XME     -0.381500
      3 C3         -0.0730    0.7260    6.3530 ca        1 XME      0.018000
      4 C4         -0.3470    1.7540    5.4090 ca        1 XME     -0.131000
      5 C5         -0.7230    1.4380    4.1290 ca        1 XME     -0.044000
      6 C6         -0.2040   -0.6280    5.9520 ca        1 XME     -0.076000
      7 C8          0.0570   -1.6610    6.8950 ca        1 XME     -0.090000
      8 C9          0.3210    1.0250    7.6850 ca        1 XME     -0.131000
      9 C10         0.4360   -1.3580    8.1780 ca        1 XME     -0.130000
     10 C11         0.5690    0.0000    8.5720 ca        1 XME      0.042400
     11 S12        -1.3450   -0.2530    2.1340 sy        1 XME      1.513200
     12 O13        -2.2450    0.7470    1.7180 o         1 XME     -0.646300
     13 C14         1.2560    1.0950   -0.5740 c         1 XME      0.694500
     14 O15         1.5890    2.1790   -1.0950 o         1 XME     -0.642500
     15 C16         0.5110    1.1330    0.7650 c3        1 XME      0.151800
     16 N17         0.0410   -0.1250    1.2710 n3        1 XME     -0.812500
     17 C18         1.1630   -1.3610   -0.5640 c3        1 XME      0.085000
     18 C19         0.8660   -1.2550    0.9480 c3        1 XME      0.207800
     19 N20         1.5870   -0.1170   -1.1560 n         1 XME     -0.468800
     20 O21        -1.7930   -1.5910    2.0900 o         1 XME     -0.646300
     21 C22         2.3670   -0.1580   -2.3670 c3        1 XME      0.106000
     22 C23        -3.5400   -1.0250   -7.7350 ca        1 XME      0.415200
     23 N24        -0.8170   -0.0660   -5.3820 nh        1 XME     -0.644000
     24 C25        -1.7270   -0.0300   -6.4580 ca        1 XME      0.185600
     25 C26        -2.5870   -1.1280   -6.7140 ca        1 XME     -0.296300
     26 C27        -0.1030    1.1670   -5.0920 c3        1 XME      0.191300
     27 C28        -1.8950    1.1130   -7.2780 ca        1 XME     -0.296300
     28 C29        -0.0060   -1.2680   -5.2660 c3        1 XME      0.191300
     29 C30         1.6060   -0.1000   -3.7180 c3        1 XME     -0.099300
     30 C31         2.6800    0.0440   -4.7780 c2        1 XME      0.358200
     31 N32         3.4710   -0.9390   -5.1000 n2        1 XME     -0.451200
     32 O33         4.3690   -0.6600   -6.0230 oh        1 XME     -0.357500
     33 C34         0.6820    1.1140   -3.7820 c3        1 XME     -0.076900
     34 N35        -3.7050    0.0640   -8.5120 nb        1 XME     -0.689000
     35 C36        -2.8880    1.1050   -8.2680 ca        1 XME      0.415200
     36 C37         0.7600   -1.3470   -3.9450 c3        1 XME     -0.076900
     37 H1         -0.7080   -1.9770    4.3200 ha        1 XME      0.157000
     38 H4         -0.2560    2.8040    5.7280 ha        1 XME      0.146000
     39 H5         -0.9570    2.2360    3.4020 ha        1 XME      0.151000
     40 H8         -0.0540   -2.7090    6.5760 ha        1 XME      0.144000
     41 H9          0.4200    2.0790    7.9870 ha        1 XME      0.155000
     42 H10         0.6370   -2.1550    8.9110 ha        1 XME      0.154000
     43 H161       -0.3660    1.8340    0.6270 h1        1 XME      0.086700
     44 H162        1.2340    1.6000    1.4990 h1        1 XME      0.086700
     45 H181        0.2370   -1.7340   -1.0910 h1        1 XME      0.054200
     46 H182        1.9730   -2.1350   -0.7000 h1        1 XME      0.054200
     47 H191        0.3440   -2.2050    1.2620 h1        1 XME      0.065700
     48 H192        1.8430   -1.1820    1.5080 h1        1 XME      0.065700
     49 H221        2.9770   -1.1070   -2.3600 h1        1 XME      0.068200
     50 H222        3.0700    0.7270   -2.3480 h1        1 XME      0.068200
     51 H26        -2.5390   -2.0480   -6.1170 ha        1 XME      0.143000
     52 H271       -0.8640    1.9950   -5.0070 h1        1 XME      0.042950
     53 H272        0.6070    1.4290   -5.9310 h1        1 XME      0.042950
     54 H28        -1.2690    2.0070   -7.1620 ha        1 XME      0.143000
     55 H291       -0.6800   -2.1670   -5.3320 h1        1 XME      0.042950
     56 H292        0.7360   -1.3290   -6.1160 h1        1 XME      0.042950
     57 H31         2.7550    1.0510   -5.2380 h4        1 XME      0.009800
     58 H33         4.8590   -1.4960   -6.1500 ho        1 XME      0.439000
     59 H341       -0.0370    1.0760   -2.9220 hc        1 XME      0.063950
     60 H342        1.2760    2.0590   -3.6760 hc        1 XME      0.063950
     61 H36        -3.0360    1.9910   -8.9120 h4        1 XME      0.019100
     62 H371        1.4010   -2.2650   -3.9630 hc        1 XME      0.063950
     63 H372        0.0280   -1.4520   -3.1010 hc        1 XME      0.063950
     64 CL7         1.0410    0.3430   10.1670 cl        1 XME     -0.078400
     65 H23        -4.2200   -1.8700   -7.9460 h4        1 XME      0.019100
@<TRIPOS>BOND
     1    1    2 ar  
     2    1    6 ar  
     3    1   37 1   
     4    2    5 ar  
     5    2   11 1   
     6    3    4 ar  
     7    3    6 ar  
     8    3    8 ar  
     9    4    5 ar  
    10    4   38 1   
    11    5   39 1   
    12    6    7 ar  
    13    7    9 ar  
    14    7   40 1   
    15    8   10 ar  
    16    8   41 1   
    17    9   10 ar  
    18    9   42 1   
    19   10   64 1   
    20   11   12 2   
    21   11   16 1   
    22   11   20 2   
    23   13   14 2   
    24   13   15 1   
    25   13   19 1   
    26   15   16 1   
    27   15   43 1   
    28   15   44 1   
    29   16   18 1   
    30   17   18 1   
    31   17   19 1   
    32   17   45 1   
    33   17   46 1   
    34   18   47 1   
    35   18   48 1   
    36   19   21 1   
    37   21   29 1   
    38   21   49 1   
    39   21   50 1   
    40   22   25 ar  
    41   22   34 ar  
    42   22   65 1   
    43   23   24 1   
    44   23   26 1   
    45   23   28 1   
    46   24   25 ar  
    47   24   27 ar  
    48   25   51 1   
    49   26   33 1   
    50   26   52 1   
    51   26   53 1   
    52   27   35 ar  
    53   27   54 1   
    54   28   36 1   
    55   28   55 1   
    56   28   56 1   
    57   29   30 1   
    58   29   33 1   
    59   29   36 1   
    60   30   31 2   
    61   30   57 1   
    62   31   32 1   
    63   32   58 1   
    64   33   59 1   
    65   33   60 1   
    66   34   35 ar  
    67   35   61 1   
    68   36   62 1   
    69   36   63 1   
@<TRIPOS>SUBSTRUCTURE
     1 XME         1 TEMP              0 ****  ****    0 ROOT
