@<TRIPOS>MOLECULE
XMF
   65    69     1     0     0
SMALL
bcc


@<TRIPOS>ATOM
      1 C1          0.5770    0.9230    4.4510 ca        1 XMF      0.028000
      2 C2          0.8500   -0.0520    3.5140 ca        1 XMF     -0.380500
      3 C3          0.1700   -0.7780    6.1610 ca        1 XMF      0.018000
      4 C4          0.4630   -1.7740    5.1890 ca        1 XMF     -0.131000
      5 C5          0.7930   -1.4160    3.9070 ca        1 XMF     -0.044000
      6 C6          0.2340    0.5890    5.7860 ca        1 XMF     -0.076000
      7 C8         -0.0470    1.5900    6.7570 ca        1 XMF     -0.090000
      8 C9         -0.1770   -1.1200    7.4960 ca        1 XMF     -0.130000
      9 C10        -0.3800    1.2460    8.0420 ca        1 XMF     -0.130000
     10 C11        -0.4460   -0.1250    8.4100 ca        1 XMF      0.042400
     11 S12         1.2930    0.3410    1.9330 sy        1 XMF      1.512200
     12 O13         2.2440   -0.5970    1.4850 o         1 XMF     -0.646300
     13 C14        -1.3490    1.3330   -0.6850 c3        1 XMF      0.086000
     14 C15        -1.0000    1.2260    0.8160 c3        1 XMF      0.206800
     15 N16        -0.0990    0.1430    1.0980 n3        1 XMF     -0.813500
     16 C17        -1.3150   -1.1240   -0.7180 c         1 XMF      0.694500
     17 O18        -1.6270   -2.2210   -1.2240 o         1 XMF     -0.646500
     18 C19        -0.5020   -1.1340    0.5820 c3        1 XMF      0.150800
     19 N20        -1.7190    0.0730   -1.2820 n         1 XMF     -0.465800
     20 O21         1.6630    1.7040    1.9040 o         1 XMF     -0.646300
     21 C22        -2.5600    0.0860   -2.4530 c3        1 XMF      0.103000
     22 C23         3.2150    1.0020   -7.9390 ca        1 XMF      0.415700
     23 N24         0.5030    0.0270   -5.5790 nh        1 XMF     -0.645000
     24 C25         1.3990    0.0070   -6.6660 ca        1 XMF      0.188600
     25 C26         2.2800    1.0940   -6.9010 ca        1 XMF     -0.299300
     26 C27        -0.2440   -1.1930   -5.3280 c3        1 XMF      0.194300
     27 C28         1.5310   -1.1130   -7.5230 ca        1 XMF     -0.299300
     28 C29        -0.2510    1.2550   -5.3850 c3        1 XMF      0.194300
     29 C30        -1.8770    0.0670   -3.8420 c3        1 XMF     -0.061000
     30 C31        -3.0260    0.0250   -4.8680 c3        1 XMF      0.128400
     31 O32        -3.8310    1.1800   -4.6830 oh        1 XMF     -0.608800
     32 C33        -1.0150   -1.1780   -4.0100 c3        1 XMF     -0.077400
     33 N34         3.3460   -0.0650   -8.7510 nb        1 XMF     -0.690000
     34 C35         2.5100   -1.0950   -8.5270 ca        1 XMF      0.415700
     35 C36        -1.0150    1.3010   -4.0620 c3        1 XMF     -0.077400
     36 H1          0.6380    1.9910    4.1710 ha        1 XMF      0.157000
     37 H4          0.4240   -2.8330    5.4870 ha        1 XMF      0.145000
     38 H5          1.0410   -2.1880    3.1570 ha        1 XMF      0.151000
     39 H18         0.0110    2.6490    6.4580 ha        1 XMF      0.144000
     40 H9         -0.2240   -2.1830    7.7770 ha        1 XMF      0.155000
     41 H10        -0.5970    2.0180    8.7960 ha        1 XMF      0.154000
     42 H141       -0.4620    1.7640   -1.2340 h1        1 XMF      0.055200
     43 H142       -2.2040    2.0610   -0.7860 h1        1 XMF      0.055200
     44 H151       -0.5260    2.2010    1.1280 h1        1 XMF      0.065700
     45 H152       -1.9540    1.0870    1.4030 h1        1 XMF      0.065700
     46 H191        0.4160   -1.7650    0.3830 h1        1 XMF      0.085700
     47 H192       -1.1490   -1.6710    1.3380 h1        1 XMF      0.085700
     48 H221       -3.2110    1.0080   -2.4150 h1        1 XMF      0.069200
     49 H222       -3.2250   -0.8270   -2.4020 h1        1 XMF      0.069200
     50 H26         2.2610    1.9960   -6.2760 ha        1 XMF      0.143000
     51 H271        0.4940   -2.0450   -5.2830 h1        1 XMF      0.038950
     52 H272       -0.9650   -1.4060   -6.1720 h1        1 XMF      0.038950
     53 H28         0.8890   -1.9980   -7.4250 ha        1 XMF      0.143000
     54 H291        0.4670    2.1230   -5.3950 h1        1 XMF      0.038950
     55 H292       -0.9810    1.4090   -6.2340 h1        1 XMF      0.038950
     56 H311       -3.6470   -0.8980   -4.7080 h1        1 XMF      0.030700
     57 H312       -2.6130    0.0110   -5.9110 h1        1 XMF      0.030700
     58 H32        -4.5100    1.1510   -5.3670 ho        1 XMF      0.404000
     59 H331       -0.2850   -1.2370   -3.1590 hc        1 XMF      0.063700
     60 H332       -1.6540   -2.0980   -3.9590 hc        1 XMF      0.063700
     61 H35         2.6300   -1.9640   -9.1990 h4        1 XMF      0.018600
     62 H361       -1.6660    2.2150   -4.0690 hc        1 XMF      0.063700
     63 H362       -0.2780    1.3950   -3.2240 hc        1 XMF      0.063700
     64 CL7        -0.8630   -0.5200   10.0080 cl        1 XMF     -0.079400
     65 H23         3.9120    1.8390   -8.1330 h4        1 XMF      0.018600
@<TRIPOS>BOND
     1    1    2 ar  
     2    1    6 ar  
     3    1   36 1   
     4    2    5 ar  
     5    2   11 1   
     6    3    4 ar  
     7    3    6 ar  
     8    3    8 ar  
     9    4    5 ar  
    10    4   37 1   
    11    5   38 1   
    12    6    7 ar  
    13    7    9 ar  
    14    7   39 1   
    15    8   10 ar  
    16    8   40 1   
    17    9   10 ar  
    18    9   41 1   
    19   10   64 1   
    20   11   12 2   
    21   11   15 1   
    22   11   20 2   
    23   13   14 1   
    24   13   19 1   
    25   13   42 1   
    26   13   43 1   
    27   14   15 1   
    28   14   44 1   
    29   14   45 1   
    30   15   18 1   
    31   16   17 2   
    32   16   18 1   
    33   16   19 1   
    34   18   46 1   
    35   18   47 1   
    36   19   21 1   
    37   21   29 1   
    38   21   48 1   
    39   21   49 1   
    40   22   25 ar  
    41   22   33 ar  
    42   22   65 1   
    43   23   24 1   
    44   23   26 1   
    45   23   28 1   
    46   24   25 ar  
    47   24   27 ar  
    48   25   50 1   
    49   26   32 1   
    50   26   51 1   
    51   26   52 1   
    52   27   34 ar  
    53   27   53 1   
    54   28   35 1   
    55   28   54 1   
    56   28   55 1   
    57   29   30 1   
    58   29   32 1   
    59   29   35 1   
    60   30   31 1   
    61   30   56 1   
    62   30   57 1   
    63   31   58 1   
    64   32   59 1   
    65   32   60 1   
    66   33   34 ar  
    67   34   61 1   
    68   35   62 1   
    69   35   63 1   
@<TRIPOS>SUBSTRUCTURE
     1 XMF         1 TEMP              0 ****  ****    0 ROOT
