@<TRIPOS>MOLECULE
XMG
   64    64     1     0     0
SMALL
bcc


@<TRIPOS>ATOM
      1 C1          1.5020    0.1240   -1.0640 c3        1 XMG     -0.056000
      2 S2          5.5590   -2.2560    2.0180 s6        1 XMG      2.850000
      3 O3          5.5710   -2.8550    3.3070 o         1 XMG     -0.954500
      4 C4          3.6680    0.3010   -0.0080 c3        1 XMG     -0.086000
      5 C5          4.5000    0.0990    1.2790 c3        1 XMG     -0.010000
      6 N6          4.3440   -1.2030    1.8780 n3        1 XMG     -0.809000
      7 C7          2.2000   -1.4970    0.6310 c3        1 XMG     -0.093000
      8 C8          2.9600   -1.6170    1.9790 c3        1 XMG     -0.011000
      9 N9          2.2820   -0.1240    0.1340 n3        1 XMG     -0.241000
     10 O10         6.8000   -1.6700    1.6700 o         1 XMG     -0.954500
     11 C11         4.9260   -4.8010    1.3300 c2        1 XMG      0.147000
     12 C12         5.1620   -3.5070    0.9430 c2        1 XMG     -0.900000
     13 C13         4.4820   -5.5080   -0.9480 c2        1 XMG      0.096000
     14 C14         4.6600   -4.1020   -1.4120 c3        1 XMG     -0.193000
     15 C15         5.0480   -3.1170   -0.4130 c1        1 XMG     -0.052000
     16 C16         4.6070   -5.8200    0.3750 c2        1 XMG     -0.188000
     17 C18        -3.2990   -4.3630    1.1880 c1        1 XMG      0.017000
     18 C19         4.1730   -6.4780   -1.9150 c1        1 XMG     -0.113000
     19 C20        -2.2660   -3.5960    1.1320 c2        1 XMG     -0.544000
     20 C21         3.9020   -7.3000   -2.7450 c1        1 XMG     -0.168000
     21 C22         0.7840   -2.0980    0.8710 c2        1 XMG      0.343000
     22 O23        -0.2670   -1.4190    0.7130 o         1 XMG     -0.573500
     23 O24         0.7800   -3.3210    1.2050 o         1 XMG     -0.573500
     24 C25        -3.5930    6.2230   -2.1890 c2        1 XMG     -0.014000
     25 N26        -1.3090    3.3780   -1.1580 n3        1 XMG     -0.151000
     26 C27        -2.2660    4.4030   -1.1740 c2        1 XMG      0.047000
     27 C28        -2.5970    5.1630   -2.2420 c2        1 XMG     -0.303000
     28 C29        -0.6660    3.0150   -2.4190 c3        1 XMG     -0.094000
     29 C30        -6.2440    5.4080    0.1090 c1        1 XMG      0.217000
     30 C31        -1.0190    2.8080    0.0180 c1        1 XMG     -0.086000
     31 C32         0.8750    1.5290   -1.0850 c3        1 XMG     -0.110000
     32 C33         0.0540    1.6710   -2.3570 c3        1 XMG     -0.167000
     33 N34        -4.7200    6.3320   -1.5720 n2        1 XMG     -0.126000
     34 C35        -5.2400    5.3230   -0.7560 c2        1 XMG     -0.421000
     35 C36        -0.0040    1.7500    0.1370 c3        1 XMG     -0.223000
     36 H11A        2.1260    0.0110   -2.0010 h1        1 XMG      0.083000
     37 H12         0.6590   -0.6250   -1.1170 h1        1 XMG      0.083000
     38 H41         4.1900   -0.2390   -0.8540 h1        1 XMG      0.069500
     39 H42         3.6710    1.4010   -0.2460 h1        1 XMG      0.069500
     40 H51         5.5850    0.2700    1.0250 h1        1 XMG      0.094500
     41 H52         4.1830    0.8710    2.0380 h1        1 XMG      0.094500
     42 H7          2.7010   -2.2000   -0.1100 h1        1 XMG      0.049000
     43 H81         2.9060   -2.6940    2.3100 h1        1 XMG      0.110500
     44 H82         2.4460   -0.9810    2.7530 h1        1 XMG      0.110500
     45 H14         3.6750   -3.7330   -1.8390 hc        1 XMG      0.171000
     46 H15         5.4060   -4.0630   -2.2570 hc        1 XMG      0.171000
     47 H18         4.4510   -6.8460    0.7410 ha        1 XMG      0.147000
     48 H19        -1.1990   -3.9140    1.2720 ha        1 XMG      0.255000
     49 H20        -2.2120   -2.5050    0.9370 ha        1 XMG      0.255000
     50 H28        -2.1070    5.0510   -3.2220 ha        1 XMG      0.137000
     51 H291       -1.4440    2.9680   -3.2330 h1        1 XMG      0.080000
     52 H292        0.0690    3.8250   -2.6910 h1        1 XMG      0.080000
     53 H30        -2.7270    4.5650   -0.1730 h4        1 XMG      0.176000
     54 H311       -2.3440    3.7710    1.8960 ha        1 XMG     -0.000500
     55 H312       -2.7710    4.1640    2.2490 ha        1 XMG     -0.000500
     56 H32         1.6910    2.3030   -1.0960 hc        1 XMG      0.072000
     57 H331        0.7160    1.5880   -3.2570 hc        1 XMG      0.089500
     58 H332       -0.6970    0.8390   -2.4080 hc        1 XMG      0.089500
     59 H35        -4.8140    4.2850   -0.8320 h4        1 XMG      0.182000
     60 H361        0.6360    1.9950    1.0290 hc        1 XMG      0.171500
     61 H362       -0.5340    0.7820    0.4090 hc        1 XMG      0.171500
     62 CL17        3.5400   -8.3880   -3.8510 cl        1 XMG      0.174000
     63 H25        -3.3450    7.1060   -2.8220 h4        1 XMG      0.143000
     64 H11         4.9780   -5.0880    2.4000 ha        1 XMG      0.166000
@<TRIPOS>BOND
     1    1    9 1   
     2    1   31 1   
     3    1   36 1   
     4    1   37 1   
     5    2    3 1   
     6    2    6 1   
     7    2   10 1   
     8    2   12 1   
     9    4    5 1   
    10    4    9 1   
    11    4   38 1   
    12    4   39 1   
    13    5    6 1   
    14    5   40 1   
    15    5   41 1   
    16    6    8 1   
    17    7    8 1   
    18    7    9 1   
    19    7   21 1   
    20    7   42 1   
    21    8   43 1   
    22    8   44 1   
    23   11   12 1   
    24   11   16 1   
    25   11   64 1   
    26   12   15 1   
    27   13   14 1   
    28   13   16 1   
    29   13   18 1   
    30   14   15 1   
    31   14   45 1   
    32   14   46 1   
    33   16   47 1   
    34   17   19 1   
    35   18   20 1   
    36   19   48 1   
    37   19   49 1   
    38   20   62 1   
    39   21   22 1   
    40   21   23 1   
    41   24   27 1   
    42   24   33 1   
    43   24   63 1   
    44   25   26 1   
    45   25   28 1   
    46   25   30 1   
    47   26   27 1   
    48   26   53 1   
    49   27   50 1   
    50   28   32 1   
    51   28   51 1   
    52   28   52 1   
    53   29   34 1   
    54   30   35 1   
    55   31   32 1   
    56   31   35 1   
    57   31   56 1   
    58   32   57 1   
    59   32   58 1   
    60   33   34 1   
    61   34   59 1   
    62   35   60 1   
    63   35   61 1   
    64   54   55 1   
@<TRIPOS>SUBSTRUCTURE
     1 XMG         1 TEMP              0 ****  ****    0 ROOT
