@<TRIPOS>MOLECULE
XMG
   64    62     1     0     0
SMALL
bcc


@<TRIPOS>ATOM
      1 C1         -1.2260   -1.2560   -0.9640 c2        1 XMG     -0.083000
      2 S2          5.7560   -2.7060    2.7090 s6        1 XMG      2.840000
      3 O3          4.7250   -2.5850    3.6570 o         1 XMG     -0.912500
      4 C4          7.9810    0.3180    1.1450 c3        1 XMG     -0.130000
      5 C5          7.3810   -0.9650    1.5420 c2        1 XMG     -0.362000
      6 N6          6.2790   -1.0830    2.2940 n3        1 XMG     -0.302000
      7 C7         -1.1480   -2.6880    0.9460 c3        1 XMG     -0.154000
      8 C8          5.5700   -0.0570    2.7640 c2        1 XMG     -0.443000
      9 N9         -1.5990   -1.5310    0.2370 n2        1 XMG     -0.180000
     10 O10         6.8690   -3.4210    3.1630 o         1 XMG     -0.912500
     11 C11         3.8340   -3.5020    0.9770 c2        1 XMG      0.204000
     12 C12         5.1630   -3.2440    1.2730 c2        1 XMG     -0.995000
     13 C13         4.3900   -4.2290   -1.2730 c2        1 XMG      0.089000
     14 C14         5.8340   -3.9670   -1.0080 c3        1 XMG     -0.186000
     15 C15         6.1720   -3.4540    0.3090 c1        1 XMG     -0.087000
     16 C16         3.4510   -3.9990   -0.3080 c2        1 XMG     -0.184000
     17 C18         1.1150   -7.8330   -0.2020 c1        1 XMG      0.050000
     18 C19         4.0490   -4.7150   -2.5440 c1        1 XMG     -0.106000
     19 C20         0.9470   -6.5620   -0.0490 c2        1 XMG     -0.556000
     20 C21         3.7520   -5.1320   -3.6280 c1        1 XMG     -0.161000
     21 C22         0.0990   -3.4510    0.4770 c2        1 XMG      0.309000
     22 O23         0.2790   -3.7070   -0.7530 o         1 XMG     -0.595500
     23 O24         0.9220   -3.8430    1.3590 o         1 XMG     -0.595500
     24 C25        -4.3050    5.9690   -3.3430 c2        1 XMG      0.010000
     25 N26        -2.1070    3.4530   -1.6020 n3        1 XMG     -0.270000
     26 C27        -2.7150    4.6120   -2.0210 c2        1 XMG      0.053000
     27 C28        -3.7600    4.7070   -2.8890 c2        1 XMG     -0.360000
     28 C29        -2.7340    2.1800   -1.9020 c3        1 XMG      0.002000
     29 C30        -3.6520    8.5310   -0.9200 c1        1 XMG      0.182000
     30 C31        -1.0810    3.5380   -0.5880 c3        1 XMG     -0.029000
     31 C32        -1.6960   -0.0660   -1.6840 c2        1 XMG     -0.099000
     32 C33        -2.2400    1.0140   -1.1100 c2        1 XMG     -0.194000
     33 N34        -4.4150    7.1290   -2.7850 n2        1 XMG     -0.153000
     34 C35        -3.9960    7.3750   -1.4720 c2        1 XMG     -0.405000
     35 C36        -1.5690    3.8180    0.8260 c3        1 XMG     -0.241000
     36 H11A       -0.9720   -2.3530    2.0090 h1        1 XMG      0.103000
     37 H12        -0.5250   -1.8910   -1.5580 h4        1 XMG      0.161000
     38 H41         8.2580    0.9330    2.0410 hc        1 XMG      0.063667
     39 H42         8.9030    0.1280    0.5430 hc        1 XMG      0.063667
     40 H51         7.2700    0.9270    0.5270 hc        1 XMG      0.063667
     41 H52         7.8380   -1.9040    1.1830 h4        1 XMG      0.182000
     42 H7          5.8500    0.9730    2.5310 h4        1 XMG      0.148500
     43 H81        -2.0000   -3.4280    0.9550 h1        1 XMG      0.103000
     44 H82         4.6960   -0.2490    3.3980 h4        1 XMG      0.148500
     45 H14         6.2310   -3.2300   -1.7690 hc        1 XMG      0.163000
     46 H15         6.4250   -4.9200   -1.1550 hc        1 XMG      0.163000
     47 H18         2.3580   -4.1780   -0.4720 ha        1 XMG      0.243000
     48 H19         0.6080   -5.8370   -0.8240 ha        1 XMG      0.245500
     49 H20         1.1040   -5.9700    0.8810 ha        1 XMG      0.245500
     50 H28        -4.2270    3.8140   -3.3330 ha        1 XMG      0.139000
     51 H291       -3.8490    2.2660   -1.7220 h1        1 XMG      0.083000
     52 H292       -2.5880    1.9920   -3.0080 h1        1 XMG      0.083000
     53 H30        -2.2300    5.5360   -1.6380 h4        1 XMG      0.137000
     54 H311       -0.3660    4.3590   -0.8890 h1        1 XMG      0.101000
     55 H312       -0.5030    2.5690   -0.5920 h1        1 XMG      0.101000
     56 H32        -2.2350    2.9990    1.1910 hc        1 XMG      0.081667
     57 H331       -1.5460   -0.1200   -2.7760 ha        1 XMG      0.119000
     58 H332       -2.3900    1.0760   -0.0200 ha        1 XMG      0.146000
     59 H35        -4.0060    6.5210   -0.7440 h4        1 XMG      0.171000
     60 H361       -0.6860    3.8850    1.5050 hc        1 XMG      0.081667
     61 H362       -2.1320    4.7810    0.8740 hc        1 XMG      0.081667
     62 CL17        3.3560   -5.6870   -5.0690 cl        1 XMG      0.171000
     63 H25        -4.7350    5.9350   -4.3710 h4        1 XMG      0.142000
     64 H11         3.0110   -3.3420    1.7150 ha        1 XMG      0.221000
@<TRIPOS>BOND
     1    1    9 1   
     2    1   31 1   
     3    1   37 1   
     4    2    3 1   
     5    2    6 1   
     6    2   10 1   
     7    2   12 1   
     8    4    5 1   
     9    4   38 1   
    10    4   39 1   
    11    4   40 1   
    12    5    6 1   
    13    5   41 1   
    14    6    8 1   
    15    7    9 1   
    16    7   21 1   
    17    7   36 1   
    18    7   43 1   
    19    8   42 1   
    20    8   44 1   
    21   11   12 1   
    22   11   16 1   
    23   11   64 1   
    24   12   15 1   
    25   13   14 1   
    26   13   16 1   
    27   13   18 1   
    28   14   15 1   
    29   14   45 1   
    30   14   46 1   
    31   16   47 1   
    32   17   19 1   
    33   18   20 1   
    34   19   48 1   
    35   19   49 1   
    36   20   62 1   
    37   21   22 1   
    38   21   23 1   
    39   24   27 1   
    40   24   33 1   
    41   24   63 1   
    42   25   26 1   
    43   25   28 1   
    44   25   30 1   
    45   26   27 1   
    46   26   53 1   
    47   27   50 1   
    48   28   32 1   
    49   28   51 1   
    50   28   52 1   
    51   29   34 1   
    52   30   35 1   
    53   30   54 1   
    54   30   55 1   
    55   31   32 1   
    56   31   57 1   
    57   32   58 1   
    58   33   34 1   
    59   34   59 1   
    60   35   56 1   
    61   35   60 1   
    62   35   61 1   
@<TRIPOS>SUBSTRUCTURE
     1 XMG         1 TEMP              0 ****  ****    0 ROOT
