@<TRIPOS>MOLECULE
XMG
   64    68     1     0     0
SMALL
bcc


@<TRIPOS>ATOM
      1 C1         -1.4330   -0.6700   -0.2340 c3        1 XMG      0.179800
      2 S2          2.7500    3.0150   -1.2790 sy        1 XMG      1.492200
      3 O3          3.1800    4.0520   -0.4190 o         1 XMG     -0.666300
      4 C4         -0.3990    0.8700   -1.7940 c3        1 XMG      0.156800
      5 C5          0.2620    2.2530   -2.0200 c3        1 XMG      0.230800
      6 N6          1.2020    2.6470   -1.0010 n3        1 XMG     -0.808500
      7 C7          0.3050    0.9000    0.4930 c3        1 XMG      0.031500
      8 C8          0.7030    2.3920    0.3350 c3        1 XMG      0.216800
      9 N9         -0.8050    0.6250   -0.4160 n3        1 XMG     -0.714600
     10 O10         2.9440    3.2830   -2.6640 o         1 XMG     -0.666300
     11 C11         3.5460    0.9730    0.3280 ca        1 XMG      0.040000
     12 C12         3.6270    1.6110   -0.8920 ca        1 XMG     -0.382500
     13 C13         5.1970   -0.6970   -0.3740 ca        1 XMG      0.012000
     14 C14         5.2920   -0.0170   -1.6200 ca        1 XMG     -0.160000
     15 C15         4.5210    1.0880   -1.8690 ca        1 XMG     -0.042000
     16 C16         4.2970   -0.2030    0.6010 ca        1 XMG     -0.080000
     17 C18         4.1330   -0.8940    1.8330 ca        1 XMG     -0.061000
     18 C19         5.9610   -1.8580   -0.0830 ca        1 XMG     -0.150000
     19 C20         4.8750   -2.0210    2.0950 ca        1 XMG     -0.159000
     20 C21         5.7990   -2.4920    1.1290 ca        1 XMG      0.046400
     21 C22         0.1520    0.6270    2.0230 c         1 XMG      0.928600
     22 O23        -0.9630    0.3730    2.5390 o         1 XMG     -0.829800
     23 O24         1.2550    0.6710    2.6470 o         1 XMG     -0.829800
     24 C25        -9.2510   -2.1690   -0.3620 ca        1 XMG      0.417200
     25 N26        -5.7500   -1.0830    0.3070 nh        1 XMG     -0.645000
     26 C27        -7.1420   -1.0940    0.2150 ca        1 XMG      0.216600
     27 C28        -7.8520   -2.1720   -0.3820 ca        1 XMG     -0.320800
     28 C29        -5.0310   -2.0400   -0.5110 c3        1 XMG      0.205800
     29 C30        -7.9390   -0.0550    0.7710 ca        1 XMG     -0.320800
     30 C31        -5.1200    0.1900    0.6110 c3        1 XMG      0.205800
     31 C32        -2.9600   -0.6210   -0.4150 c3        1 XMG     -0.056700
     32 C33        -3.5150   -2.0310   -0.3540 c3        1 XMG     -0.084400
     33 N34       -10.0040   -1.1920    0.1800 nb        1 XMG     -0.717000
     34 C35        -9.3320   -0.1620    0.7310 ca        1 XMG      0.417200
     35 C36        -3.5980    0.1940    0.6910 c3        1 XMG     -0.084400
     36 H11A       -1.0220   -1.4370   -0.9560 h1        1 XMG      0.048200
     37 H12        -1.2270   -1.0340    0.8160 h1        1 XMG      0.048200
     38 H41        -1.3210    0.8280   -2.4380 h1        1 XMG      0.021200
     39 H42         0.3140    0.0750   -2.1690 h1        1 XMG      0.021200
     40 H51        -0.5560    3.0300   -2.0580 h1        1 XMG      0.050700
     41 H52         0.7800    2.2370   -3.0210 h1        1 XMG      0.050700
     42 H7          1.1920    0.2550    0.1920 h1        1 XMG      0.012700
     43 H81        -0.1980    3.0430    0.5220 h1        1 XMG      0.073700
     44 H82         1.4800    2.6630    1.1040 h1        1 XMG      0.073700
     45 H14         5.9880   -0.4010   -2.3790 ha        1 XMG      0.128000
     46 H15         4.5830    1.6010   -2.8450 ha        1 XMG      0.153000
     47 H18         3.3750   -0.5130    2.5490 ha        1 XMG      0.203000
     48 H19         6.6690   -2.2330   -0.8370 ha        1 XMG      0.139000
     49 H20         4.7530   -2.5650    3.0430 ha        1 XMG      0.148000
     50 H28        -7.3340   -3.0130   -0.8590 ha        1 XMG      0.141500
     51 H291       -5.2810   -1.8740   -1.6020 h1        1 XMG      0.030700
     52 H292       -5.3940   -3.0710   -0.2290 h1        1 XMG      0.030700
     53 H30        -7.4880    0.8300    1.2390 ha        1 XMG      0.141500
     54 H311       -5.4440    0.9570   -0.1550 h1        1 XMG      0.030700
     55 H312       -5.5070    0.5240    1.6180 h1        1 XMG      0.030700
     56 H32        -3.2130   -0.1680   -1.4130 hc        1 XMG      0.034700
     57 H331       -3.0810   -2.6610   -1.1730 hc        1 XMG      0.069450
     58 H332       -3.2310   -2.4990    0.6260 hc        1 XMG      0.069450
     59 H35        -9.9590    0.6360    1.1680 h4        1 XMG      0.007600
     60 H361       -3.2490   -0.1960    1.6870 hc        1 XMG      0.069450
     61 H362       -3.2520    1.2600    0.6320 hc        1 XMG      0.069450
     62 CL17        6.7180   -3.8850    1.4880 cl        1 XMG     -0.121400
     63 H25        -9.8110   -3.0060   -0.8160 h4        1 XMG      0.007600
     64 H11         2.8800    1.3230    1.1500 ha        1 XMG      0.203000
@<TRIPOS>BOND
     1    1    9 1   
     2    1   31 1   
     3    1   36 1   
     4    1   37 1   
     5    2    3 2   
     6    2    6 1   
     7    2   10 2   
     8    2   12 1   
     9    4    5 1   
    10    4    9 1   
    11    4   38 1   
    12    4   39 1   
    13    5    6 1   
    14    5   40 1   
    15    5   41 1   
    16    6    8 1   
    17    7    8 1   
    18    7    9 1   
    19    7   21 1   
    20    7   42 1   
    21    8   43 1   
    22    8   44 1   
    23   11   12 ar  
    24   11   16 ar  
    25   11   64 1   
    26   12   15 ar  
    27   13   14 ar  
    28   13   16 ar  
    29   13   18 ar  
    30   14   15 ar  
    31   14   45 1   
    32   15   46 1   
    33   16   17 ar  
    34   17   19 ar  
    35   17   47 1   
    36   18   20 ar  
    37   18   48 1   
    38   19   20 ar  
    39   19   49 1   
    40   20   62 1   
    41   21   22 1   
    42   21   23 1   
    43   24   27 ar  
    44   24   33 ar  
    45   24   63 1   
    46   25   26 1   
    47   25   28 1   
    48   25   30 1   
    49   26   27 ar  
    50   26   29 ar  
    51   27   50 1   
    52   28   32 1   
    53   28   51 1   
    54   28   52 1   
    55   29   34 ar  
    56   29   53 1   
    57   30   35 1   
    58   30   54 1   
    59   30   55 1   
    60   31   32 1   
    61   31   35 1   
    62   31   56 1   
    63   32   57 1   
    64   32   58 1   
    65   33   34 ar  
    66   34   59 1   
    67   35   60 1   
    68   35   61 1   
@<TRIPOS>SUBSTRUCTURE
     1 XMG         1 TEMP              0 ****  ****    0 ROOT
