@<TRIPOS>MOLECULE
XMH
   71    66     1     0     0
SMALL
bcc


@<TRIPOS>ATOM
      1 C1          0.9650    0.6900    1.2190 c3        1 XMH     -0.070000
      2 C2          8.5530    0.5940    1.9720 c1        1 XMH     -0.049000
      3 N3          4.9540   -0.0390    2.7110 n3        1 XMH     -0.245000
      4 C4          6.4170   -0.0900    2.7830 c2        1 XMH      0.102000
      5 C5          7.1680    0.5600    1.8470 c1        1 XMH     -0.241000
      6 C6          4.5160    1.3600    2.6050 c3        1 XMH     -0.045500
      7 C7          7.0310   -0.7070    3.8450 c2        1 XMH     -0.220000
      8 C8          4.4870   -0.8750    1.5860 c3        1 XMH     -0.045500
      9 C9          2.5400    0.6580    1.2490 c3        1 XMH     -0.105000
     10 C10         3.0100    1.4860    2.3790 c3        1 XMH     -0.158000
     11 N11         9.1630   -0.0240    3.0350 n1        1 XMH     -0.161000
     12 C12         8.4180   -0.6700    3.9650 c1        1 XMH     -0.053000
     13 C13         2.9920   -0.7620    1.3610 c3        1 XMH     -0.158000
     14 S14        -2.7330   -1.2540   -2.8280 ss        1 XMH      2.847000
     15 O15        -2.8950   -0.3710   -3.9680 o         1 XMH     -0.925000
     16 C16        -0.4940    1.2120   -0.6070 c3        1 XMH     -0.015000
     17 C17        -1.0880    0.6550   -1.9170 c3        1 XMH     -0.009000
     18 N18        -1.5730   -0.6820   -1.7830 n2        1 XMH     -0.830000
     19 C19        -0.0070   -1.0750    0.0280 c3        1 XMH     -0.075000
     20 C20        -0.6130   -1.5700   -1.2390 c3        1 XMH     -0.014000
     21 N21         0.4980    0.2450   -0.0790 n3        1 XMH     -0.258000
     22 O22        -2.2980   -2.4790   -3.4770 o         1 XMH     -0.925000
     23 C23        -4.7260   -2.8220   -1.9020 c1        1 XMH     -0.082250
     24 C24        -4.3050   -1.4940   -1.9570 c1        1 XMH     -0.823000
     25 C25        -7.0380   -2.1140   -1.9690 c1        1 XMH     -0.030000
     26 C26        -6.6110   -0.7680   -2.0240 c1        1 XMH     -0.082250
     27 C27        -5.2460   -0.4660   -2.0180 c1        1 XMH     -0.045000
     28 C28        -6.1110   -3.1260   -1.9090 c1        1 XMH     -0.030000
     29 CL29      -10.3860   -4.5000   -1.6630 cl        1 XMH     -0.002000
     30 C30        -6.5340   -4.4580   -1.8900 c1        1 XMH     -0.082250
     31 C31        -8.4140   -2.4210   -2.0120 c1        1 XMH     -0.082250
     32 C32        -7.8960   -4.7580   -1.9340 c1        1 XMH     -0.130000
     33 C33        -8.8290   -3.7390   -1.9940 c1        1 XMH     -0.037000
     34 C34         0.0880    2.6190   -0.7760 c2        1 XMH      0.303000
     35 O35        -0.3940    3.6850    0.0250 os        1 XMH     -0.286000
     36 C36        -1.0020    4.7270   -0.7100 c3        1 XMH     -0.013000
     37 C37        -0.4160    6.0370   -0.2930 c3        1 XMH     -0.245000
     38 O38         0.9310    2.8370   -1.6490 o         1 XMH     -0.330000
     39 H11         0.6540    1.6000    1.3830 h1        1 XMH      0.087500
     40 H12A        0.6100    0.0900    1.9180 h1        1 XMH      0.087500
     41 H2          9.0920    1.0570    1.3040 ha        1 XMH      0.156000
     42 H5          6.7350    0.9990    1.0930 ha        1 XMH      0.143000
     43 H61         4.7510    1.8250    3.4260 h1        1 XMH      0.080250
     44 H62         4.9850    1.7830    1.8580 h1        1 XMH      0.080250
     45 H7          6.4910   -1.1770    4.5220 ha        1 XMH      0.144000
     46 H81         4.9540   -0.5950    0.7660 h1        1 XMH      0.080250
     47 H82         4.7050   -1.7910    1.7700 h1        1 XMH      0.080250
     48 H9          2.8770    1.0320    0.4240 hc        1 XMH      0.105000
     49 H101        2.5480    1.2110    3.1830 hc        1 XMH      0.091250
     50 H102        2.7960    2.4220    2.1950 hc        1 XMH      0.091250
     51 H12         8.8590   -1.1130    4.7300 ha        1 XMH      0.156000
     52 H131        2.7580   -1.2380    0.5280 hc        1 XMH      0.091250
     53 H132        2.5190   -1.1930    2.1190 hc        1 XMH      0.091250
     54 H16        -1.2070    1.3810    0.0580 h1        1 XMH      0.096000
     55 H171       -1.8410    1.2440   -2.2060 h1        1 XMH      0.117500
     56 H172       -0.3890    0.6690   -2.6140 h1        1 XMH      0.117500
     57 H191       -0.6790   -1.0930    0.7170 h1        1 XMH      0.082500
     58 H192        0.7210   -1.6700    0.2840 h1        1 XMH      0.082500
     59 H201       -1.0470   -2.4400   -1.0640 h1        1 XMH      0.105500
     60 H202        0.0960   -1.7000   -1.8930 h1        1 XMH      0.105500
     61 H23        -4.0700   -3.5400   -1.8840 ha        1 XMH      0.149250
     62 H26        -7.2680   -0.0510   -2.0660 ha        1 XMH      0.149250
     63 H27        -4.9540    0.4600   -2.0040 ha        1 XMH      0.152000
     64 H30        -5.8770   -5.1770   -1.8480 ha        1 XMH      0.149250
     65 H31        -9.0720   -1.7040   -1.9630 ha        1 XMH      0.149250
     66 H32        -8.1890   -5.6820   -1.9480 ha        1 XMH      0.154000
     67 H361       -0.8460    4.5900   -1.6520 h1        1 XMH      0.104500
     68 H362       -1.9550    4.7310   -0.5380 h1        1 XMH      0.104500
     69 H371        0.5470    5.9860   -0.3350 hc        1 XMH      0.089667
     70 H372       -0.7330    6.7420   -0.8960 hc        1 XMH      0.089667
     71 H373       -0.6930    6.2410    0.6230 hc        1 XMH      0.089667
@<TRIPOS>BOND
     1    1    9 1   
     2    1   21 1   
     3    1   39 1   
     4    1   40 1   
     5    2   11 1   
     6    2   41 1   
     7    3    4 1   
     8    3    6 1   
     9    3    8 1   
    10    4    5 1   
    11    4    7 1   
    12    5   42 1   
    13    6   10 1   
    14    6   43 1   
    15    6   44 1   
    16    7   12 1   
    17    7   45 1   
    18    8   13 1   
    19    8   46 1   
    20    8   47 1   
    21    9   10 1   
    22    9   13 1   
    23    9   48 1   
    24   10   49 1   
    25   10   50 1   
    26   12   51 1   
    27   13   52 1   
    28   13   53 1   
    29   14   15 1   
    30   14   22 1   
    31   16   17 1   
    32   16   21 1   
    33   16   34 1   
    34   16   54 1   
    35   17   18 1   
    36   17   55 1   
    37   17   56 1   
    38   18   20 1   
    39   19   20 1   
    40   19   21 1   
    41   19   57 1   
    42   19   58 1   
    43   20   59 1   
    44   20   60 1   
    45   23   28 1   
    46   23   61 1   
    47   24   27 1   
    48   25   26 1   
    49   25   31 1   
    50   26   62 1   
    51   27   63 1   
    52   28   30 1   
    53   29   33 1   
    54   30   64 1   
    55   31   65 1   
    56   32   33 1   
    57   32   66 1   
    58   34   35 1   
    59   34   38 1   
    60   35   36 1   
    61   36   37 1   
    62   36   67 1   
    63   36   68 1   
    64   37   69 1   
    65   37   70 1   
    66   37   71 1   
@<TRIPOS>SUBSTRUCTURE
     1 XMH         1 TEMP              0 ****  ****    0 ROOT
