@<TRIPOS>MOLECULE
XMH
   71    67     1     0     0
SMALL
bcc


@<TRIPOS>ATOM
      1 C1          0.6800    2.4260    3.5090 c1        1 XMH     -0.241000
      2 C2          4.7790   -1.5650   -2.9980 c2        1 XMH     -0.084000
      3 N3          4.0410   -1.4080   -0.8200 n3        1 XMH     -0.245000
      4 C4          5.1700   -2.2820   -0.7750 c2        1 XMH     -0.014000
      5 C5          5.7770   -2.3650   -2.1700 c3        1 XMH     -0.091000
      6 C6          3.1850    1.0540    1.7790 c2        1 XMH     -0.552000
      7 C7          5.6570   -2.8950    0.3110 c2        1 XMH     -0.280000
      8 C8          3.7910   -1.0830   -2.1670 c2        1 XMH     -0.034000
      9 C9         -0.1920    2.4970    2.6910 c1        1 XMH     -0.241000
     10 C10         3.1110    1.3490    3.0460 c1        1 XMH      0.149000
     11 N11         4.9090   -1.3730   -4.3390 n2        1 XMH     -0.257000
     12 C12         5.0260   -1.2150   -5.5050 c1        1 XMH      0.105000
     13 C13         1.3150   -1.9320    1.1290 c2        1 XMH     -0.344000
     14 O15        -4.7410   -2.8200   -4.3630 o         1 XMH     -0.896000
     15 C16        -3.5070    0.5640   -1.6550 c3        1 XMH     -0.164000
     16 C17        -2.7380    0.1460   -2.8780 c3        1 XMH     -0.156000
     17 N18        -3.2070   -0.9850   -3.6680 n3        1 XMH     -0.831000
     18 C19         0.6940   -1.8630   -0.0620 c2        1 XMH     -0.061000
     19 C20        -2.0580   -1.2140   -3.0070 c1        1 XMH      0.257000
     20 N21         0.5440   -0.7180   -0.8400 n3        1 XMH     -0.342000
     21 O22        -5.4530   -0.5530   -4.6220 o         1 XMH     -0.896000
     22 C23        -3.3560   -0.0350   -6.6560 c2        1 XMH     -0.172000
     23 C24        -3.6900   -1.4410   -6.2360 c3        1 XMH     -0.709000
     24 C25        -1.5090   -0.8210   -8.0180 c2        1 XMH     -0.042000
     25 C26        -1.6560   -1.9320   -7.2880 c1        1 XMH     -0.063000
     26 C27        -2.4550   -2.2980   -6.3010 c2        1 XMH     -0.109000
     27 C28        -2.2780    0.2950   -7.4070 c2        1 XMH     -0.059000
     28 C30        -1.9310    1.6720   -7.8440 c3        1 XMH     -0.182000
     29 C31        -0.8860   -0.6260   -9.2950 c2        1 XMH     -0.005000
     30 C32        -1.1750    1.7990   -9.0830 c1        1 XMH     -0.018000
     31 C33        -0.8150    0.6320   -9.8210 c2        1 XMH     -0.153000
     32 C34        -2.6660    1.4650   -0.8060 c2        1 XMH      0.337000
     33 O35        -3.4370    2.4780   -0.2220 os        1 XMH     -0.254000
     34 C36        -3.0080    3.0140    0.9320 c1        1 XMH      0.055000
     35 C37        -3.8920    4.1150    1.3690 c3        1 XMH     -0.317000
     36 O38        -1.4600    1.4660   -0.6010 o         1 XMH     -0.276000
     37 H11         1.4460    2.3650    4.2470 ha        1 XMH      0.242000
     38 H12A        0.5930    0.1440   -0.3340 hn        1 XMH      0.185000
     39 H2          5.8530   -3.4240   -2.5180 hc        1 XMH      0.113000
     40 H5          6.7930   -1.9010   -2.1880 hc        1 XMH      0.113000
     41 H61         4.0450    0.5350    1.3230 ha        1 XMH      0.196500
     42 H62         3.2570   -1.6150   -0.2340 hn        1 XMH      0.234000
     43 H7          5.1910   -2.8230    1.3000 ha        1 XMH      0.125500
     44 H81         0.8800    2.3370   -0.4090 ha        1 XMH      0.004000
     45 H82         0.6300    2.3570    0.2210 ha        1 XMH      0.004000
     46 H9          1.6930   -1.0520    1.6670 ha        1 XMH      0.124000
     47 H101        2.4020    1.3010    1.0420 ha        1 XMH      0.196500
     48 H102       -0.9740    2.5600    1.9640 ha        1 XMH      0.242000
     49 H12         6.5660   -3.5040    0.2520 ha        1 XMH      0.125500
     50 H131        1.4670   -2.8940    1.6290 ha        1 XMH      0.124000
     51 H132        2.9100   -0.4800   -2.4150 h4        1 XMH      0.181000
     52 H16        -3.7950   -0.3190   -1.0180 hc        1 XMH      0.143500
     53 H171       -2.3620    1.0210   -3.4590 h1        1 XMH      0.153000
     54 H172       -4.4540    1.0960   -1.9490 hc        1 XMH      0.143500
     55 H191       -1.9740   -2.4130   -0.8620 ha        1 XMH      0.004000
     56 H192       -0.2530   -0.7460   -1.4420 hn        1 XMH      0.185000
     57 H201        0.3230   -2.7860   -0.5540 h4        1 XMH      0.130000
     58 H202       -2.6300   -2.2370   -0.8730 ha        1 XMH      0.004000
     59 H23        -4.0990    0.7250   -6.3610 ha        1 XMH      0.161000
     60 H26        -2.2650   -3.0620   -5.5390 ha        1 XMH      0.182000
     61 H27        -4.4730   -1.8120   -6.9660 h1        1 XMH      0.194000
     62 H30        -1.3120    2.1800   -7.0430 hc        1 XMH      0.158000
     63 H31        -0.4570   -1.5100   -9.7970 ha        1 XMH      0.164000
     64 H32        -2.8640    2.2990   -7.9630 hc        1 XMH      0.158000
     65 H361       -1.0010    3.8440   -0.1260 ha        1 XMH      0.004000
     66 H362       -1.4040    4.3880   -0.1890 ha        1 XMH      0.004000
     67 H371       -4.3000    3.8370    2.3760 hc        1 XMH      0.117667
     68 H372       -3.2510    5.0260    1.4970 hc        1 XMH      0.117667
     69 H373       -4.7410    4.3580    0.6850 hc        1 XMH      0.117667
     70 S14        -4.4130   -1.4930   -4.6520 s6        1 XMH      2.816000
     71 CL29       -0.1690    0.8720  -11.3720 cl        1 XMH      0.019000
@<TRIPOS>BOND
     1    1    9 1   
     2    1   37 1   
     3    2    5 1   
     4    2    8 1   
     5    2   11 1   
     6    3    4 1   
     7    3    8 1   
     8    3   42 1   
     9    4    5 1   
    10    4    7 1   
    11    5   39 1   
    12    5   40 1   
    13    6   10 1   
    14    6   41 1   
    15    6   47 1   
    16    7   43 1   
    17    7   49 1   
    18    8   51 1   
    19    9   48 1   
    20   11   12 1   
    21   13   18 1   
    22   13   46 1   
    23   13   50 1   
    24   14   70 1   
    25   15   16 1   
    26   15   32 1   
    27   15   52 1   
    28   15   54 1   
    29   16   17 1   
    30   16   19 1   
    31   16   53 1   
    32   17   19 1   
    33   17   70 1   
    34   18   20 1   
    35   18   57 1   
    36   20   38 1   
    37   20   56 1   
    38   21   70 1   
    39   22   23 1   
    40   22   27 1   
    41   22   59 1   
    42   23   26 1   
    43   23   61 1   
    44   23   70 1   
    45   24   25 1   
    46   24   27 1   
    47   24   29 1   
    48   25   26 1   
    49   26   60 1   
    50   27   28 1   
    51   28   30 1   
    52   28   62 1   
    53   28   64 1   
    54   29   31 1   
    55   29   63 1   
    56   30   31 1   
    57   31   71 1   
    58   32   33 1   
    59   32   36 1   
    60   33   34 1   
    61   34   35 1   
    62   35   67 1   
    63   35   68 1   
    64   35   69 1   
    65   44   45 1   
    66   55   58 1   
    67   65   66 1   
@<TRIPOS>SUBSTRUCTURE
     1 XMH         1 TEMP              0 ****  ****    0 ROOT
