@<TRIPOS>MOLECULE
XMH
   71    75     1     0     0
SMALL
bcc


@<TRIPOS>ATOM
      1 C1          1.5020   -0.9860   -2.6160 c3        1 XMH      0.164800
      2 C2         -3.3720    0.7030   -8.7060 ca        1 XMH      0.414700
      3 N3         -0.7110    0.2080   -6.1490 nh        1 XMH     -0.643000
      4 C4         -1.4180    0.7120   -7.2600 ca        1 XMH      0.184600
      5 C5         -2.7290    0.2520   -7.5460 ca        1 XMH     -0.296300
      6 C6          0.6890    0.5850   -6.0440 c3        1 XMH      0.192300
      7 C7         -0.8460    1.6170   -8.1850 ca        1 XMH     -0.296300
      8 C8         -1.4210    0.2160   -4.8780 c3        1 XMH      0.192300
      9 C9          0.7330   -0.1230   -3.6290 c3        1 XMH     -0.064700
     10 C10         1.4400   -0.2030   -4.9720 c3        1 XMH     -0.079400
     11 N11        -2.8260    1.5590   -9.5920 nb        1 XMH     -0.688000
     12 C12        -1.5820    1.9940   -9.3190 ca        1 XMH      0.414700
     13 C13        -0.7070   -0.5770   -3.7850 c3        1 XMH     -0.079400
     14 O15         0.5780   -3.5930    2.8480 o         1 XMH     -0.650300
     15 C16         2.0180   -0.4290   -0.2870 c3        1 XMH      0.137500
     16 C17         1.4500   -0.3060    1.1600 c3        1 XMH      0.223800
     17 N18         0.7070   -1.4640    1.5730 n3        1 XMH     -0.814500
     18 C19         0.2550   -2.0100   -0.8070 c3        1 XMH      0.163800
     19 C20        -0.2960   -1.8750    0.6270 c3        1 XMH      0.219800
     20 N21         1.0010   -0.8410   -1.2530 n3        1 XMH     -0.733600
     21 O22         2.3180   -2.0160    3.3840 o         1 XMH     -0.650300
     22 C23         0.3820   -0.4010    4.8240 ca        1 XMH      0.030000
     23 C24        -0.0430   -1.4740    4.0690 ca        1 XMH     -0.377500
     24 C25        -1.7990   -0.2570    5.9210 ca        1 XMH      0.018000
     25 C26        -2.2220   -1.3710    5.1440 ca        1 XMH     -0.133000
     26 C27        -1.3670   -1.9580    4.2480 ca        1 XMH     -0.043000
     27 C28        -0.4760    0.2300    5.7600 ca        1 XMH     -0.075000
     28 C30        -0.0430    1.3380    6.5400 ca        1 XMH     -0.088000
     29 C31        -2.6660    0.3730    6.8550 ca        1 XMH     -0.131000
     30 C32        -0.8910    1.9360    7.4380 ca        1 XMH     -0.131000
     31 C33        -2.2150    1.4450    7.5920 ca        1 XMH      0.042400
     32 C34         2.5820    0.9450   -0.6310 c         1 XMH      0.634100
     33 O35         3.7290    0.8640   -1.3660 os        1 XMH     -0.445900
     34 C36         4.3710    2.1090   -1.7010 c3        1 XMH      0.137400
     35 C37         5.5950    1.7510   -2.5060 c3        1 XMH     -0.101100
     36 O38         2.1620    2.0540   -0.3060 o         1 XMH     -0.528000
     37 H11         2.5890   -0.6840   -2.6680 h1        1 XMH      0.049200
     38 H12A        1.4440   -2.0620   -2.9550 h1        1 XMH      0.049200
     39 H2         -4.3930    0.3530   -8.9460 h4        1 XMH      0.018600
     40 H5         -3.2440   -0.4620   -6.8900 ha        1 XMH      0.142500
     41 H61         0.7970    1.6870   -5.8210 h1        1 XMH      0.040700
     42 H62         1.1790    0.3800   -7.0390 h1        1 XMH      0.040700
     43 H7          0.1580    2.0370   -8.0410 ha        1 XMH      0.142500
     44 H81        -1.5630    1.2760   -4.5140 h1        1 XMH      0.040700
     45 H82        -2.4410   -0.2340   -5.0320 h1        1 XMH      0.040700
     46 H9          0.7370    0.9470   -3.2790 hc        1 XMH      0.064700
     47 H101        2.4740    0.2220   -4.8900 hc        1 XMH      0.051950
     48 H102        1.5340   -1.2760   -5.2860 hc        1 XMH      0.051950
     49 H12        -1.1480    2.6960  -10.0540 h4        1 XMH      0.018600
     50 H131       -0.7340   -1.6720   -4.0260 hc        1 XMH      0.051950
     51 H132       -1.2680   -0.4180   -2.8280 hc        1 XMH      0.051950
     52 H16         2.8890   -1.1560   -0.2730 h1        1 XMH      0.064700
     53 H171        2.3260   -0.1520    1.8530 h1        1 XMH      0.075700
     54 H172        0.7880    0.6090    1.1980 h1        1 XMH      0.075700
     55 H191        0.8790   -2.9500   -0.8670 h1        1 XMH      0.046700
     56 H192       -0.6210   -2.1290   -1.5050 h1        1 XMH      0.046700
     57 H201       -0.7100   -2.8780    0.9340 h1        1 XMH      0.062700
     58 H202       -1.1370   -1.1220    0.6230 h1        1 XMH      0.062700
     59 H23         1.4160   -0.0240    4.7170 ha        1 XMH      0.154000
     60 H26        -3.2450   -1.7530    5.2810 ha        1 XMH      0.144000
     61 H27        -1.6870   -2.8360    3.6610 ha        1 XMH      0.153000
     62 H30         0.9860    1.7070    6.4110 ha        1 XMH      0.145000
     63 H31        -3.6900   -0.0130    6.9720 ha        1 XMH      0.154000
     64 H32        -0.5590    2.7940    8.0440 ha        1 XMH      0.154000
     65 H361        4.6340    2.6420   -0.7500 h1        1 XMH      0.053200
     66 H362        3.6500    2.7370   -2.2860 h1        1 XMH      0.053200
     67 H371        6.1330    2.6880   -2.7860 hc        1 XMH      0.049033
     68 H372        6.2800    1.1000   -1.9120 hc        1 XMH      0.049033
     69 H373        5.3080    1.2020   -3.4350 hc        1 XMH      0.049033
     70 S14         0.9850   -2.2480    2.9750 sy        1 XMH      1.511200
     71 CL29       -3.2410    2.2060    8.7110 cl        1 XMH     -0.080400
@<TRIPOS>BOND
     1    1    9 1   
     2    1   20 1   
     3    1   37 1   
     4    1   38 1   
     5    2    5 ar  
     6    2   11 ar  
     7    2   39 1   
     8    3    4 1   
     9    3    6 1   
    10    3    8 1   
    11    4    5 ar  
    12    4    7 ar  
    13    5   40 1   
    14    6   10 1   
    15    6   41 1   
    16    6   42 1   
    17    7   12 ar  
    18    7   43 1   
    19    8   13 1   
    20    8   44 1   
    21    8   45 1   
    22    9   10 1   
    23    9   13 1   
    24    9   46 1   
    25   10   47 1   
    26   10   48 1   
    27   11   12 ar  
    28   12   49 1   
    29   13   50 1   
    30   13   51 1   
    31   14   70 2   
    32   15   16 1   
    33   15   20 1   
    34   15   32 1   
    35   15   52 1   
    36   16   17 1   
    37   16   53 1   
    38   16   54 1   
    39   17   19 1   
    40   17   70 1   
    41   18   19 1   
    42   18   20 1   
    43   18   55 1   
    44   18   56 1   
    45   19   57 1   
    46   19   58 1   
    47   21   70 2   
    48   22   23 ar  
    49   22   27 ar  
    50   22   59 1   
    51   23   26 ar  
    52   23   70 1   
    53   24   25 ar  
    54   24   27 ar  
    55   24   29 ar  
    56   25   26 ar  
    57   25   60 1   
    58   26   61 1   
    59   27   28 ar  
    60   28   30 ar  
    61   28   62 1   
    62   29   31 ar  
    63   29   63 1   
    64   30   31 ar  
    65   30   64 1   
    66   31   71 1   
    67   32   33 1   
    68   32   36 2   
    69   33   34 1   
    70   34   35 1   
    71   34   65 1   
    72   34   66 1   
    73   35   67 1   
    74   35   68 1   
    75   35   69 1   
@<TRIPOS>SUBSTRUCTURE
     1 XMH         1 TEMP              0 ****  ****    0 ROOT
