@<TRIPOS>MOLECULE
XMH
   71    68     1     0     0
SMALL
bcc


@<TRIPOS>ATOM
      1 C1         -0.0090   -0.3580    3.1280 c2        1 XMH     -0.172000
      2 C2          3.0760   -1.8520   -3.9830 c1        1 XMH     -0.071000
      3 N3          2.9510   -2.3140   -0.2010 n3        1 XMH     -0.179000
      4 C4          3.2930   -2.4910   -1.5520 c2        1 XMH      0.149000
      5 C5          2.5700   -1.7090   -2.6020 c3        1 XMH     -0.259000
      6 C6          4.6440    2.5910    1.3570 c2        1 XMH     -0.535000
      7 C7          4.2800   -3.3720   -1.9400 c2        1 XMH     -0.334000
      8 C8          2.0810   -1.3770    0.1580 c1        1 XMH     -0.098000
      9 C9         -0.7800    0.6290    3.5770 c2        1 XMH     -0.205000
     10 C10         3.9550    1.5000    1.5430 c1        1 XMH      0.140000
     11 N11         4.0590   -2.7220   -4.2930 n2        1 XMH     -0.232000
     12 C12         4.6150   -3.4520   -3.3370 c2        1 XMH      0.097000
     13 C13         1.7420   -1.1270    1.5750 c3        1 XMH     -0.260000
     14 O15        -0.6250   -2.6660   -3.0480 o         1 XMH     -0.907500
     15 C16        -3.5150    0.0090   -0.9380 c3        1 XMH     -0.197000
     16 C17        -2.9220   -1.0280   -1.7870 c1        1 XMH     -0.073000
     17 N18        -2.6060   -1.0210   -3.0550 n3        1 XMH     -0.548000
     18 C19         0.2620   -0.6850    1.6880 c3        1 XMH      0.020000
     19 C20        -2.6820   -0.0540   -4.0930 c2        1 XMH     -0.134000
     20 N21        -0.1220    0.3590    0.7550 n3        1 XMH     -0.334000
     21 O22        -2.7740   -3.5440   -3.5960 o         1 XMH     -0.907500
     22 C23        -2.1900   -0.4890   -5.2850 c2        1 XMH     -0.040000
     23 C24        -1.7060   -1.9020   -5.2460 c3        1 XMH     -0.835000
     24 C25        -0.8810    0.5450   -7.1420 ca        1 XMH      0.081000
     25 C26         0.3220    0.0440   -6.6100 c1        1 XMH     -0.217000
     26 C27         1.3390   -0.3860   -6.1390 c1        1 XMH     -0.140000
     27 C28        -2.1160    0.3060   -6.4980 ca        1 XMH     -0.027000
     28 C30        -3.2900    0.8530   -7.0330 ca        1 XMH     -0.100000
     29 C31        -0.8520    1.3100   -8.3190 ca        1 XMH     -0.114000
     30 C32        -3.2590    1.6110   -8.1990 ca        1 XMH     -0.127000
     31 C33        -2.0360    1.8330   -8.8410 ca        1 XMH     -0.054000
     32 C34        -4.1030    1.2040   -1.6120 c2        1 XMH      0.308000
     33 O35        -3.2820    2.3530   -1.5620 os        1 XMH     -0.251000
     34 C36        -2.9930    2.9370   -2.7260 c1        1 XMH      0.023000
     35 C37        -2.2070    4.1770   -2.5440 c3        1 XMH     -0.308000
     36 O38        -5.2000    1.3670   -2.1250 o         1 XMH     -0.266000
     37 H11         0.4820   -1.0520    3.8320 ha        1 XMH      0.116000
     38 H12A        0.1530    0.0830   -0.1720 hn        1 XMH      0.150500
     39 H2          2.5290   -0.6150   -2.3270 hc        1 XMH      0.204500
     40 H5          1.4760   -2.0410   -2.6210 hc        1 XMH      0.204500
     41 H61         4.6360    3.1880    0.4320 ha        1 XMH      0.192000
     42 H62         3.4160   -2.9300    0.4440 hn        1 XMH      0.181000
     43 H7          4.8330   -4.0020   -1.2300 ha        1 XMH      0.147000
     44 H81         2.8890    1.5010   -0.5160 ha        1 XMH      0.005167
     45 H82         2.5880    0.9190   -0.3280 ha        1 XMH      0.005167
     46 H9         -1.3010    1.3420    2.9250 ha        1 XMH      0.115500
     47 H101        5.3060    3.0150    2.1310 ha        1 XMH      0.192000
     48 H102       -0.9460    0.7850    4.6520 ha        1 XMH      0.115500
     49 H12         5.4070   -4.1680   -3.6370 h4        1 XMH      0.155000
     50 H131        1.9170   -1.9910    2.2700 hc        1 XMH      0.116000
     51 H132        2.4120   -0.2770    1.9060 hc        1 XMH      0.116000
     52 H16         0.3480    1.2140    0.9830 hn        1 XMH      0.150500
     53 H171       -2.7050    0.3280   -0.2130 hc        1 XMH      0.180500
     54 H172       -4.3300   -0.4930   -0.3380 hc        1 XMH      0.180500
     55 H191        0.0320   -2.8760   -0.5230 ha        1 XMH      0.005167
     56 H192       -3.0930    0.9520   -3.8850 h4        1 XMH      0.218000
     57 H201       -0.3760   -1.5880    1.4260 h1        1 XMH      0.110000
     58 H202        0.0130   -2.2610   -0.8100 ha        1 XMH      0.005167
     59 H23        -0.6350   -1.9430   -5.5920 h1        1 XMH      0.189000
     60 H26         2.2200   -0.7960   -5.6740 ha        1 XMH      0.283000
     61 H27        -2.2880   -2.5210   -5.9790 h1        1 XMH      0.189000
     62 H30        -4.1890    2.0320   -8.6100 ha        1 XMH      0.151000
     63 H31         0.1110    1.4930   -8.8220 ha        1 XMH      0.158000
     64 H32        -4.2500    0.6810   -6.5210 ha        1 XMH      0.147000
     65 H361       -5.3330    3.6050   -2.9660 ha        1 XMH      0.005167
     66 H362       -5.0720    4.2180   -2.8390 ha        1 XMH      0.005167
     67 H371       -1.2340    4.0430   -3.0840 hc        1 XMH      0.111000
     68 H372       -2.7720    5.0050   -3.0440 hc        1 XMH      0.111000
     69 H373       -2.0000    4.4640   -1.4840 hc        1 XMH      0.111000
     70 S14        -1.8870   -2.4710   -3.6170 s6        1 XMH      2.796000
     71 CL29       -1.9890    2.7540  -10.2690 cl        1 XMH     -0.012000
@<TRIPOS>BOND
     1    1    9 1   
     2    1   18 1   
     3    1   37 1   
     4    2    5 1   
     5    2   11 1   
     6    3    4 1   
     7    3    8 1   
     8    3   42 1   
     9    4    5 1   
    10    4    7 1   
    11    5   39 1   
    12    5   40 1   
    13    6   10 1   
    14    6   41 1   
    15    6   47 1   
    16    7   12 1   
    17    7   43 1   
    18    8   13 1   
    19    9   46 1   
    20    9   48 1   
    21   11   12 1   
    22   12   49 1   
    23   13   18 1   
    24   13   50 1   
    25   13   51 1   
    26   14   70 1   
    27   15   16 1   
    28   15   32 1   
    29   15   53 1   
    30   15   54 1   
    31   16   17 1   
    32   17   19 1   
    33   17   70 1   
    34   18   20 1   
    35   18   57 1   
    36   19   22 1   
    37   19   56 1   
    38   20   38 1   
    39   20   52 1   
    40   21   70 1   
    41   22   23 1   
    42   22   27 1   
    43   23   59 1   
    44   23   61 1   
    45   23   70 1   
    46   24   25 1   
    47   24   27 1   
    48   24   29 1   
    49   25   26 1   
    50   26   60 1   
    51   27   28 1   
    52   28   30 1   
    53   28   64 1   
    54   29   31 1   
    55   29   63 1   
    56   30   31 1   
    57   30   62 1   
    58   31   71 1   
    59   32   33 1   
    60   32   36 1   
    61   33   34 1   
    62   34   35 1   
    63   35   67 1   
    64   35   68 1   
    65   35   69 1   
    66   44   45 1   
    67   55   58 1   
    68   65   66 1   
@<TRIPOS>SUBSTRUCTURE
     1 XMH         1 TEMP              0 ****  ****    0 ROOT
