@<TRIPOS>MOLECULE
XMI
   61    65     1     0     0
SMALL
bcc


@<TRIPOS>ATOM
      1 S1          1.3760   -0.1530   -1.8300 sy        1 XMI      1.512200
      2 O2          2.3500   -1.1350   -1.5520 o         1 XMI     -0.646800
      3 C3         -1.6500    0.2760    0.6760 c         1 XMI      0.689500
      4 O4         -2.3340    1.2140    1.1290 o         1 XMI     -0.637500
      5 C5         -1.0020    0.4370   -0.7050 c3        1 XMI      0.151800
      6 N6         -0.0060   -0.5380   -1.0450 n3        1 XMI     -0.813500
      7 C7         -0.6320   -1.9560    0.8990 c3        1 XMI      0.084000
      8 C8         -0.3080   -1.8740   -0.6080 c3        1 XMI      0.209800
      9 N9         -1.5270   -0.9230    1.3590 n         1 XMI     -0.466800
     10 O10         1.7140    1.1890   -1.5540 o         1 XMI     -0.646800
     11 C11        -2.0950   -1.0600    2.6810 c3        1 XMI      0.102000
     12 C12         2.1950    0.1520    9.2990 ca        1 XMI      0.414200
     13 N13        -0.2050   -0.1070    6.4650 nh        1 XMI     -0.643000
     14 C14         0.4070    0.3180    7.6620 ca        1 XMI      0.183600
     15 C15         1.6570   -0.2200    8.0610 ca        1 XMI     -0.295300
     16 C16        -1.5670    0.3440    6.2330 c3        1 XMI      0.191800
     17 C17        -0.2150    1.2170    8.5620 ca        1 XMI     -0.295300
     18 C18         0.6320   -0.0820    5.2740 c3        1 XMI      0.191800
     19 C19        -1.3930   -0.2750    3.8000 c3        1 XMI     -0.093700
     20 C20        -2.2390   -0.3670    5.0600 c3        1 XMI     -0.077900
     21 N21         1.6010    1.0010   10.1610 nb        1 XMI     -0.688000
     22 C22         0.4150    1.5110    9.7800 ca        1 XMI      0.414200
     23 C23         0.0010   -0.8020    4.0830 c3        1 XMI     -0.077900
     24 C24         0.5510    0.8480   -4.1750 ca        1 XMI      0.030000
     25 C25         0.9400   -0.2630   -3.4550 ca        1 XMI     -0.382500
     26 C26         0.2780   -0.5050   -6.1940 ca        1 XMI      0.019000
     27 C27         0.6910   -1.6410   -5.4440 ca        1 XMI     -0.132000
     28 C28         1.0120   -1.5180   -4.1180 ca        1 XMI     -0.043000
     29 C29         0.2120    0.7570   -5.5490 ca        1 XMI     -0.076000
     30 C31        -0.1900    1.9000   -6.2950 ca        1 XMI     -0.089000
     31 C32        -0.0650   -0.6040   -7.5690 ca        1 XMI     -0.132000
     32 C33        -0.5170    1.7890   -7.6230 ca        1 XMI     -0.130000
     33 C34        -0.4530    0.5210   -8.2620 ca        1 XMI      0.043400
     34 H51        -0.5440    1.4710   -0.7300 h1        1 XMI      0.086700
     35 H52        -1.8530    0.4010   -1.4480 h1        1 XMI      0.086700
     36 H71        -1.1080   -2.9600    1.0900 h1        1 XMI      0.051200
     37 H72         0.3310   -1.9140    1.4870 h1        1 XMI      0.051200
     38 H81        -1.1920   -2.2680   -1.1900 h1        1 XMI      0.065700
     39 H82         0.5780   -2.5440   -0.8060 h1        1 XMI      0.065700
     40 H111       -3.1620   -0.6930    2.6260 h1        1 XMI      0.058700
     41 H112       -2.1050   -2.1540    2.9520 h1        1 XMI      0.058700
     42 H15         2.2030   -0.9340    7.4310 ha        1 XMI      0.143000
     43 H161       -1.5990    1.4570    6.0440 h1        1 XMI      0.042450
     44 H162       -2.1670    0.1290    7.1630 h1        1 XMI      0.042450
     45 H17        -1.1770    1.6940    8.3320 ha        1 XMI      0.143000
     46 H181        0.8530    0.9840    4.9700 h1        1 XMI      0.042450
     47 H182        1.6130   -0.5810    5.5100 h1        1 XMI      0.042450
     48 H19        -1.3220    0.8060    3.4880 hc        1 XMI      0.077700
     49 H201       -3.2360    0.1140    4.8880 hc        1 XMI      0.050950
     50 H202       -2.4140   -1.4440    5.3190 hc        1 XMI      0.050950
     51 H22        -0.0590    2.2070   10.4960 h4        1 XMI      0.019100
     52 H231       -0.0420   -1.9040    4.2820 hc        1 XMI      0.050950
     53 H232        0.6680   -0.6360    3.1960 hc        1 XMI      0.050950
     54 H24         0.5140    1.8390   -3.6850 ha        1 XMI      0.157000
     55 H27         0.7520   -2.6160   -5.9520 ha        1 XMI      0.145000
     56 H28         1.3560   -2.3940   -3.5410 ha        1 XMI      0.151000
     57 H31        -0.2320    2.8760   -5.7870 ha        1 XMI      0.146000
     58 H32        -0.0110   -1.5880   -8.0610 ha        1 XMI      0.154000
     59 H33        -0.8280    2.6710   -8.2040 ha        1 XMI      0.155000
     60 CL30       -0.8650    0.4160   -9.9060 cl        1 XMI     -0.078400
     61 H12         3.1680   -0.2590    9.6280 h4        1 XMI      0.019100
@<TRIPOS>BOND
     1    1    2 2   
     2    1    6 1   
     3    1   10 2   
     4    1   25 1   
     5    3    4 2   
     6    3    5 1   
     7    3    9 1   
     8    5    6 1   
     9    5   34 1   
    10    5   35 1   
    11    6    8 1   
    12    7    8 1   
    13    7    9 1   
    14    7   36 1   
    15    7   37 1   
    16    8   38 1   
    17    8   39 1   
    18    9   11 1   
    19   11   19 1   
    20   11   40 1   
    21   11   41 1   
    22   12   15 ar  
    23   12   21 ar  
    24   12   61 1   
    25   13   14 1   
    26   13   16 1   
    27   13   18 1   
    28   14   15 ar  
    29   14   17 ar  
    30   15   42 1   
    31   16   20 1   
    32   16   43 1   
    33   16   44 1   
    34   17   22 ar  
    35   17   45 1   
    36   18   23 1   
    37   18   46 1   
    38   18   47 1   
    39   19   20 1   
    40   19   23 1   
    41   19   48 1   
    42   20   49 1   
    43   20   50 1   
    44   21   22 ar  
    45   22   51 1   
    46   23   52 1   
    47   23   53 1   
    48   24   25 ar  
    49   24   29 ar  
    50   24   54 1   
    51   25   28 ar  
    52   26   27 ar  
    53   26   29 ar  
    54   26   31 ar  
    55   27   28 ar  
    56   27   55 1   
    57   28   56 1   
    58   29   30 ar  
    59   30   32 ar  
    60   30   57 1   
    61   31   33 ar  
    62   31   58 1   
    63   32   33 ar  
    64   32   59 1   
    65   33   60 1   
@<TRIPOS>SUBSTRUCTURE
     1 XMI         1 TEMP              0 ****  ****    0 ROOT
