@<TRIPOS>MOLECULE
XMJ
   59    62     1     0     0
SMALL
bcc


@<TRIPOS>ATOM
      1 C1          0.8610    0.3080   -4.4920 ce        1 XMJ      0.105800
      2 C2          0.7050   -0.7250   -3.6510 cf        1 XMJ     -0.501100
      3 C3          0.4480    1.5670   -6.5640 ca        1 XMJ     -0.080000
      4 S4          1.1820   -0.7570   -2.0540 sy        1 XMJ      1.510800
      5 C5          0.5010    0.3300   -5.8980 ca        1 XMJ     -0.113800
      6 O7          1.7590   -2.0170   -1.7880 o         1 XMJ     -0.651800
      7 C8         -1.4750    0.7080    0.4860 c         1 XMJ      0.689500
      8 O9         -1.7970    1.8290    0.9280 o         1 XMJ     -0.638500
      9 C10        -0.8280    0.6220   -0.9010 c3        1 XMJ      0.152800
     10 N11        -0.2330   -0.6390   -1.2380 n3        1 XMJ     -0.813500
     11 C12         0.2130   -0.8410   -6.6140 ca        1 XMJ     -0.080000
     12 C13        -1.2680   -1.7330    0.7400 c3        1 XMJ      0.084000
     13 C14        -0.9610   -1.7870   -0.7720 c3        1 XMJ      0.209800
     14 C15         0.1020    1.6340   -7.9100 ca        1 XMJ     -0.135000
     15 N16        -1.7560   -0.4520    1.1890 n         1 XMJ     -0.466800
     16 C17        -0.1280   -0.7820   -7.9630 ca        1 XMJ     -0.135000
     17 C18        -0.1860    0.4570   -8.6090 ca        1 XMJ      0.043400
     18 O19         1.9740    0.3830   -1.7940 o         1 XMJ     -0.651800
     19 C20        -2.3180   -0.3710    2.5180 c3        1 XMJ      0.102000
     20 C21         2.2240   -0.5830    9.0760 ca        1 XMJ      0.414200
     21 N22        -0.1640   -0.0580    6.2680 nh        1 XMJ     -0.643000
     22 C23         0.5720    0.1520    7.4520 ca        1 XMJ      0.183600
     23 C24         1.5740   -0.7700    7.8500 ca        1 XMJ     -0.295800
     24 C25        -1.2980    0.8230    6.0400 c3        1 XMJ      0.191800
     25 C26         0.3020    1.2210    8.3410 ca        1 XMJ     -0.295800
     26 C27         0.6160   -0.3350    5.0700 c3        1 XMJ      0.191800
     27 C28        -1.3770    0.1460    3.6160 c3        1 XMJ     -0.093700
     28 C29        -2.1860    0.3630    4.8850 c3        1 XMJ     -0.077900
     29 N30         1.9620    0.4280    9.9280 nb        1 XMJ     -0.688000
     30 C31         1.0120    1.3030    9.5480 ca        1 XMJ      0.414200
     31 C32        -0.2380   -0.8160    3.8970 c3        1 XMJ     -0.077900
     32 H1          1.3060    1.2530   -4.1110 ha        1 XMJ      0.148000
     33 H2          0.2620   -1.6620   -4.0340 h4        1 XMJ      0.176000
     34 H3          0.6800    2.4940   -6.0160 ha        1 XMJ      0.145500
     35 H101       -0.0420    1.4340   -0.9430 h1        1 XMJ      0.085700
     36 H102       -1.6490    0.8760   -1.6370 h1        1 XMJ      0.085700
     37 H12         0.2660   -1.8220   -6.1150 ha        1 XMJ      0.145500
     38 H131       -2.0510   -2.5150    0.9560 h1        1 XMJ      0.050700
     39 H132       -0.3380   -2.0090    1.3170 h1        1 XMJ      0.050700
     40 H141       -1.9350   -1.8690   -1.3370 h1        1 XMJ      0.065700
     41 H142       -0.3560   -2.7200   -0.9650 h1        1 XMJ      0.065700
     42 H15         0.0600    2.6090   -8.4200 ha        1 XMJ      0.155000
     43 H17        -0.3480   -1.7090   -8.5160 ha        1 XMJ      0.155000
     44 H201       -3.1990    0.3340    2.4650 h1        1 XMJ      0.058700
     45 H202       -2.6930   -1.3930    2.8080 h1        1 XMJ      0.058700
     46 H24         1.8380   -1.6350    7.2280 ha        1 XMJ      0.143000
     47 H251       -0.9550    1.8790    5.8310 h1        1 XMJ      0.042450
     48 H252       -1.9210    0.8360    6.9790 h1        1 XMJ      0.042450
     49 H26        -0.4460    1.9910    8.1110 ha        1 XMJ      0.143000
     50 H271        1.1790    0.5890    4.7440 h1        1 XMJ      0.042450
     51 H272        1.3730   -1.1330    5.3070 h1        1 XMJ      0.042450
     52 H28        -0.9500    1.1360    3.2850 hc        1 XMJ      0.077700
     53 H291       -2.9650    1.1510    4.7130 hc        1 XMJ      0.050950
     54 H292       -2.7110   -0.5870    5.1650 hc        1 XMJ      0.050950
     55 H31         0.8100    2.1280   10.2550 h4        1 XMJ      0.019100
     56 H321       -0.6490   -1.8360    4.1170 hc        1 XMJ      0.050950
     57 H322        0.4320   -0.8980    3.0030 hc        1 XMJ      0.050950
     58 CL6        -0.6060    0.5340  -10.2510 cl        1 XMJ     -0.076400
     59 H21         3.0050   -1.2930    9.4030 h4        1 XMJ      0.019100
@<TRIPOS>BOND
     1    1    2 2   
     2    1    5 1   
     3    1   32 1   
     4    2    4 1   
     5    2   33 1   
     6    3    5 ar  
     7    3   14 ar  
     8    3   34 1   
     9    4    6 2   
    10    4   10 1   
    11    4   18 2   
    12    5   11 ar  
    13    7    8 2   
    14    7    9 1   
    15    7   15 1   
    16    9   10 1   
    17    9   35 1   
    18    9   36 1   
    19   10   13 1   
    20   11   16 ar  
    21   11   37 1   
    22   12   13 1   
    23   12   15 1   
    24   12   38 1   
    25   12   39 1   
    26   13   40 1   
    27   13   41 1   
    28   14   17 ar  
    29   14   42 1   
    30   15   19 1   
    31   16   17 ar  
    32   16   43 1   
    33   17   58 1   
    34   19   27 1   
    35   19   44 1   
    36   19   45 1   
    37   20   23 ar  
    38   20   29 ar  
    39   20   59 1   
    40   21   22 1   
    41   21   24 1   
    42   21   26 1   
    43   22   23 ar  
    44   22   25 ar  
    45   23   46 1   
    46   24   28 1   
    47   24   47 1   
    48   24   48 1   
    49   25   30 ar  
    50   25   49 1   
    51   26   31 1   
    52   26   50 1   
    53   26   51 1   
    54   27   28 1   
    55   27   31 1   
    56   27   52 1   
    57   28   53 1   
    58   28   54 1   
    59   29   30 ar  
    60   30   55 1   
    61   31   56 1   
    62   31   57 1   
@<TRIPOS>SUBSTRUCTURE
     1 XMJ         1 TEMP              0 ****  ****    0 ROOT
