@<TRIPOS>MOLECULE
XMK
   60    63     1     0     0
SMALL
bcc


@<TRIPOS>ATOM
      1 C1          2.1300   -0.4630    2.8110 c3        1 XMK      0.172800
      2 C2         -1.9110   -0.0300    9.6660 ca        1 XMK      0.414700
      3 N3         -0.5630   -0.2860    6.2050 nh        1 XMK     -0.644000
      4 C4         -1.4560   -0.1050    7.2790 ca        1 XMK      0.185600
      5 C5         -0.9870   -0.1240    8.6180 ca        1 XMK     -0.296800
      6 C6         -1.1530   -0.4410    4.8850 c3        1 XMK      0.191800
      7 C7         -2.8550    0.0170    7.0980 ca        1 XMK     -0.296800
      8 C8          0.6420    0.5290    6.2250 c3        1 XMK      0.191800
      9 C9          1.0670    0.0330    3.8000 c3        1 XMK     -0.063700
     10 C10        -0.1470   -0.8780    3.8210 c3        1 XMK     -0.078400
     11 N11        -3.2440    0.0790    9.4950 nb        1 XMK     -0.688000
     12 C12        -3.6870    0.0960    8.2250 ca        1 XMK      0.414700
     13 C13         1.6790    0.0920    5.1910 c3        1 XMK     -0.078400
     14 C14         0.6390    0.7760   -4.6470 ce        1 XMK      0.094800
     15 C15         1.4690   -0.0430   -3.9880 cf        1 XMK     -0.485100
     16 C16        -0.8990    1.3970   -6.4640 ca        1 XMK     -0.082000
     17 C18        -0.3070    0.3920   -5.6790 ca        1 XMK     -0.108800
     18 O20         3.7860   -0.2910   -3.0830 o         1 XMK     -0.655800
     19 C21         2.5660   -1.3300    0.6070 c3        1 XMK      0.155800
     20 C22         2.1570   -1.3600   -0.8810 c3        1 XMK      0.223800
     21 N23         1.9340   -0.0520   -1.4400 n3        1 XMK     -0.818500
     22 C24        -0.6540   -0.9460   -5.9150 ca        1 XMK     -0.082000
     23 C25         1.4950    0.8260    0.8550 c3        1 XMK      0.155800
     24 C26         1.0930    0.7940   -0.6360 c3        1 XMK      0.223800
     25 C27        -1.8080    1.0740   -7.4650 ca        1 XMK     -0.135000
     26 N28         1.6880   -0.5010    1.4230 n3        1 XMK     -0.729600
     27 C29        -1.5680   -1.2780   -6.9120 ca        1 XMK     -0.135000
     28 C30        -2.1430   -0.2670   -7.6880 ca        1 XMK      0.040400
     29 O31         2.6910    1.8430   -2.8710 o         1 XMK     -0.655800
     30 H11         2.4160   -1.5120    3.1090 h1        1 XMK      0.035700
     31 H12A        3.0480    0.1860    2.9330 h1        1 XMK      0.035700
     32 H2         -1.5640   -0.0450   10.7150 h4        1 XMK      0.018600
     33 H5          0.0800   -0.2300    8.8520 ha        1 XMK      0.143000
     34 H61        -1.6390    0.5220    4.5460 h1        1 XMK      0.039450
     35 H62        -1.9540   -1.2300    4.9550 h1        1 XMK      0.039450
     36 H7         -3.3090    0.0520    6.0990 ha        1 XMK      0.143000
     37 H81         0.3870    1.6140    6.0390 h1        1 XMK      0.039450
     38 H82         1.1110    0.4580    7.2460 h1        1 XMK      0.039450
     39 H9          0.7390    1.0710    3.5130 hc        1 XMK      0.050700
     40 H101       -0.6630   -0.8580    2.8260 hc        1 XMK      0.055450
     41 H102        0.1790   -1.9330    4.0160 hc        1 XMK      0.055450
     42 H12        -4.7810    0.1860    8.1010 h4        1 XMK      0.018600
     43 H131        2.0910   -0.9140    5.4660 hc        1 XMK      0.055450
     44 H132        2.5230    0.8280    5.2130 hc        1 XMK      0.055450
     45 H14         0.6630    1.8650   -4.4200 ha        1 XMK      0.146000
     46 H15         1.4680   -1.1200   -4.2340 h4        1 XMK      0.174000
     47 H16        -0.6360    2.4530   -6.2890 ha        1 XMK      0.144500
     48 H211        2.5020   -2.3850    0.9950 h1        1 XMK      0.041700
     49 H212        3.6430   -0.9970    0.6800 h1        1 XMK      0.041700
     50 H221        1.2140   -1.9720   -0.9810 h1        1 XMK      0.057700
     51 H222        2.9820   -1.8740   -1.4530 h1        1 XMK      0.057700
     52 H24        -0.2070   -1.7480   -5.3070 ha        1 XMK      0.144500
     53 H251        0.6560    1.3230    1.4170 h1        1 XMK      0.041700
     54 H252        2.4180    1.4680    0.9670 h1        1 XMK      0.041700
     55 H261        1.1450    1.8510   -1.0270 h1        1 XMK      0.057700
     56 H262        0.0250    0.4350   -0.7100 h1        1 XMK      0.057700
     57 H27        -2.2620    1.8690   -8.0770 ha        1 XMK      0.153500
     58 H29        -1.8330   -2.3320   -7.0880 ha        1 XMK      0.153500
     59 S17         2.5960    0.4320   -2.8460 sy        1 XMK      1.506800
     60 CL19       -3.2550   -0.6660   -8.9060 cl        1 XMK     -0.079400
@<TRIPOS>BOND
     1    1    9 1   
     2    1   26 1   
     3    1   30 1   
     4    1   31 1   
     5    2    5 ar  
     6    2   11 ar  
     7    2   32 1   
     8    3    4 1   
     9    3    6 1   
    10    3    8 1   
    11    4    5 ar  
    12    4    7 ar  
    13    5   33 1   
    14    6   10 1   
    15    6   34 1   
    16    6   35 1   
    17    7   12 ar  
    18    7   36 1   
    19    8   13 1   
    20    8   37 1   
    21    8   38 1   
    22    9   10 1   
    23    9   13 1   
    24    9   39 1   
    25   10   40 1   
    26   10   41 1   
    27   11   12 ar  
    28   12   42 1   
    29   13   43 1   
    30   13   44 1   
    31   14   15 2   
    32   14   17 1   
    33   14   45 1   
    34   15   46 1   
    35   15   59 1   
    36   16   17 ar  
    37   16   25 ar  
    38   16   47 1   
    39   17   22 ar  
    40   18   59 2   
    41   19   20 1   
    42   19   26 1   
    43   19   48 1   
    44   19   49 1   
    45   20   21 1   
    46   20   50 1   
    47   20   51 1   
    48   21   24 1   
    49   21   59 1   
    50   22   27 ar  
    51   22   52 1   
    52   23   24 1   
    53   23   26 1   
    54   23   53 1   
    55   23   54 1   
    56   24   55 1   
    57   24   56 1   
    58   25   28 ar  
    59   25   57 1   
    60   27   28 ar  
    61   27   58 1   
    62   28   60 1   
    63   29   59 2   
@<TRIPOS>SUBSTRUCTURE
     1 XMK         1 TEMP              0 ****  ****    0 ROOT
