@<TRIPOS>MOLECULE
XMK
   60    55     1     0     0
SMALL
bcc


@<TRIPOS>ATOM
      1 C1          0.9770    0.1880    0.3500 c3        1 XMK     -0.067000
      2 C2          6.3710    2.2120    5.3560 c1        1 XMK     -0.049000
      3 N3          3.3300    0.5330    4.0110 n3        1 XMK     -0.245000
      4 C4          4.4220    0.9030    4.9050 c2        1 XMK      0.103000
      5 C5          5.3970    1.7700    4.4730 c1        1 XMK     -0.242000
      6 C6          2.6760    1.7730    3.4930 c3        1 XMK     -0.044500
      7 C7          4.4140    0.4860    6.1790 c2        1 XMK     -0.220000
      8 C8          3.8670   -0.3340    2.9230 c3        1 XMK     -0.044500
      9 C9          2.1460    0.5960    1.2880 c3        1 XMK     -0.105000
     10 C10         1.6050    1.4670    2.3880 c3        1 XMK     -0.158500
     11 N11         6.3610    1.7910    6.6400 n1        1 XMK     -0.162000
     12 C12         5.3980    0.9350    7.0680 c1        1 XMK     -0.052000
     13 C13         2.7990   -0.6490    1.8190 c3        1 XMK     -0.158500
     14 C14        -4.2430   -0.4270   -4.9420 c1        1 XMK     -0.264250
     15 C15        -3.4820    0.3050   -4.0270 c1        1 XMK     -0.264250
     16 C16        -6.3480   -1.9530   -4.5240 c1        1 XMK     -0.264250
     17 S17        -3.3690   -0.2410   -2.2920 ss        1 XMK      2.852000
     18 C18        -4.9860   -1.6970   -4.4830 c1        1 XMK     -0.115000
     19 CL19       -6.2350   -5.3360   -6.7040 cl        1 XMK     -0.007000
     20 O20        -3.4100   -1.6700   -2.1950 o         1 XMK     -0.933000
     21 C21         0.4090    1.1280   -1.7030 c3        1 XMK     -0.084500
     22 C22        -0.6670    0.0870   -2.1010 c3        1 XMK     -0.047500
     23 N23        -1.9450    0.3940   -1.5600 n2        1 XMK     -0.831000
     24 C24        -4.1100   -2.5350   -5.1340 c1        1 XMK     -0.089000
     25 C25        -0.8310    1.6630    0.2500 c3        1 XMK     -0.084500
     26 C26        -1.9040    0.6240   -0.1470 c3        1 XMK     -0.047500
     27 C27        -6.8230   -3.0470   -5.2160 c1        1 XMK     -0.264250
     28 N28         0.4520    1.3540   -0.2980 n3        1 XMK     -0.254000
     29 C29        -4.5850   -3.6240   -5.8220 c1        1 XMK     -0.125000
     30 C30        -5.9500   -3.8800   -5.8630 c1        1 XMK     -0.041000
     31 O31        -4.5870    0.1350   -1.5210 o         1 XMK     -0.933000
     32 H11         1.3180   -0.4670   -0.3500 h1        1 XMK      0.076000
     33 H12A        0.2930   -0.2230    0.8590 h1        1 XMK      0.076000
     34 H2          7.0880    2.8490    5.0390 ha        1 XMK      0.156000
     35 H5          5.4080    2.0750    3.5340 ha        1 XMK      0.142000
     36 H61         3.3550    2.3600    3.1230 h1        1 XMK      0.079500
     37 H62         2.2300    2.2390    4.2510 h1        1 XMK      0.079500
     38 H7          3.7200   -0.1280    6.4890 ha        1 XMK      0.144000
     39 H81         4.6330    0.1290    2.4970 h1        1 XMK      0.079500
     40 H82         4.2010   -1.2240    3.3370 h1        1 XMK      0.079500
     41 H9          2.8200    1.1150    0.7620 hc        1 XMK      0.101000
     42 H101        1.3190    2.2780    2.0180 hc        1 XMK      0.091250
     43 H102        0.8700    1.0340    2.7810 hc        1 XMK      0.091250
     44 H12         5.3930    0.6120    8.0480 ha        1 XMK      0.156000
     45 H131        2.0980   -1.2380    2.2080 hc        1 XMK      0.091250
     46 H132        3.2510   -1.1390    1.0510 hc        1 XMK      0.091250
     47 H14        -4.3050   -0.1190   -5.9260 ha        1 XMK      0.145500
     48 H15        -3.0310    1.0760   -4.3050 ha        1 XMK      0.145500
     49 H16        -6.9590   -1.3720   -4.0700 ha        1 XMK      0.145500
     50 H211        0.2180    1.9470   -2.1390 h1        1 XMK      0.098250
     51 H212        1.3190    0.7960   -2.0120 h1        1 XMK      0.098250
     52 H221       -0.3890   -0.7960   -1.7730 h1        1 XMK      0.099750
     53 H222       -0.7330    0.0550   -3.0450 h1        1 XMK      0.099750
     54 H24        -3.1190   -2.3500   -5.1050 ha        1 XMK      0.179000
     55 H251       -1.1340    2.6220   -0.0980 h1        1 XMK      0.098250
     56 H252       -0.7580    1.6890    1.2540 h1        1 XMK      0.098250
     57 H261       -1.6980   -0.2830    0.3380 h1        1 XMK      0.099750
     58 H262       -2.8060    0.9610    0.1540 h1        1 XMK      0.099750
     59 H27        -7.7850   -3.2290   -5.2470 ha        1 XMK      0.145500
     60 H29        -3.9640   -4.2200   -6.2830 ha        1 XMK      0.156000
@<TRIPOS>BOND
     1    1    9 1   
     2    1   28 1   
     3    1   32 1   
     4    1   33 1   
     5    2   11 1   
     6    2   34 1   
     7    3    4 1   
     8    3    6 1   
     9    3    8 1   
    10    4    5 1   
    11    4    7 1   
    12    5   35 1   
    13    6   10 1   
    14    6   36 1   
    15    6   37 1   
    16    7   12 1   
    17    7   38 1   
    18    8   13 1   
    19    8   39 1   
    20    8   40 1   
    21    9   10 1   
    22    9   13 1   
    23    9   41 1   
    24   10   42 1   
    25   10   43 1   
    26   12   44 1   
    27   13   45 1   
    28   13   46 1   
    29   14   15 1   
    30   14   47 1   
    31   15   48 1   
    32   16   27 1   
    33   16   49 1   
    34   17   20 1   
    35   17   31 1   
    36   18   24 1   
    37   19   30 1   
    38   21   22 1   
    39   21   28 1   
    40   21   50 1   
    41   21   51 1   
    42   22   23 1   
    43   22   52 1   
    44   22   53 1   
    45   23   26 1   
    46   24   54 1   
    47   25   26 1   
    48   25   28 1   
    49   25   55 1   
    50   25   56 1   
    51   26   57 1   
    52   26   58 1   
    53   27   59 1   
    54   29   30 1   
    55   29   60 1   
@<TRIPOS>SUBSTRUCTURE
     1 XMK         1 TEMP              0 ****  ****    0 ROOT
