@<TRIPOS>MOLECULE
XMK
   60    56     1     0     0
SMALL
bcc


@<TRIPOS>ATOM
      1 C1          1.5930   -1.4730   -2.4810 c3        1 XMK     -0.036000
      2 C2          7.1620   -1.7840    1.1660 c1        1 XMK      0.208000
      3 N3          3.7400   -0.3400    0.6730 n7        1 XMK     -0.157000
      4 C4          3.5510   -0.9650    1.9340 c2        1 XMK     -0.030000
      5 C5          2.7510   -2.0270    2.1480 c2        1 XMK     -0.270000
      6 C6          3.9410    2.9390    1.9010 c1        1 XMK     -0.231500
      7 C7          4.3990   -0.4030    3.0410 c3        1 XMK     -0.212000
      8 C8          2.9480   -0.7080   -0.3610 c1        1 XMK     -0.093000
      9 C9          0.2350   -0.8150   -2.5930 c3        1 XMK     -0.212000
     10 C10         2.8330    2.9430    1.4500 c1        1 XMK     -0.231500
     11 N11         6.4670   -1.2240    1.9720 n2        1 XMK     -0.331000
     12 C12         5.8690   -0.5570    2.9490 c1        1 XMK      0.111000
     13 C13         2.3180   -1.0530   -1.3230 c1        1 XMK     -0.186000
     14 C14        -2.0720    6.6040    1.7520 c2        1 XMK      0.090000
     15 C15        -2.3540    5.4120    1.2040 c2        1 XMK     -0.951000
     16 C16        -2.1810    8.3040    3.5850 c3        1 XMK     -0.203000
     17 C18        -2.0220    6.8830    3.1740 c2        1 XMK     -0.111000
     18 O20        -3.5320    4.2100   -0.6550 o         1 XMK     -0.917000
     19 C21        -1.1670    1.1810    2.8750 c2        1 XMK     -0.104000
     20 C22        -0.0390    3.5020   -0.2500 c1        1 XMK      0.162000
     21 N23        -1.0410    4.2760   -0.6750 n3        1 XMK     -0.812000
     22 C24        -1.8230    5.9180    4.1140 c2        1 XMK     -0.106000
     23 C25        -0.3950    3.0370   -2.8310 c3        1 XMK     -0.214000
     24 C26        -0.0460    3.9500   -1.7000 c3        1 XMK     -0.137000
     25 C27        -2.1120    8.6170    5.0030 c1        1 XMK     -0.045000
     26 N28        -0.9590    2.4220    2.6970 n2        1 XMK     -0.268000
     27 C29        -1.7520    6.2480    5.5120 c2        1 XMK     -0.044000
     28 C30        -1.8760    7.5480    5.9190 c2        1 XMK     -0.142000
     29 O31        -2.4470    6.2760   -1.1550 o         1 XMK     -0.917000
     30 H11         1.4650   -2.5920   -2.4440 hc        1 XMK      0.098500
     31 H12A       -0.3590    2.6730    1.9340 hn        1 XMK      0.156000
     32 H2          2.7110   -2.5220    3.1250 ha        1 XMK      0.127500
     33 H5          2.1160   -2.4640    1.3680 ha        1 XMK      0.127500
     34 H61         4.9250    2.9550    2.3010 ha        1 XMK      0.232500
     35 H62         3.8590    0.6600    0.7340 hn        1 XMK      0.219000
     36 H7          4.2160    0.7070    3.1550 hc        1 XMK      0.150000
     37 H81         5.4340    2.1760   -0.0150 ha        1 XMK      0.002000
     38 H82         5.7350    1.8530   -0.5290 ha        1 XMK      0.002000
     39 H9          0.3370    0.2940   -2.6800 hc        1 XMK      0.076333
     40 H101        1.8460    2.9520    1.0440 ha        1 XMK      0.232500
     41 H102       -0.2950   -1.1960   -3.5000 hc        1 XMK      0.076333
     42 H12         4.1070   -0.8780    4.0220 hc        1 XMK      0.150000
     43 H131       -0.3890   -1.0380   -1.6940 hc        1 XMK      0.076333
     44 H132        2.2000   -1.2400   -3.4020 hc        1 XMK      0.098500
     45 H14        -1.8740    7.4790    1.0960 ha        1 XMK      0.149000
     46 H15        -2.5690    4.5630    1.8850 h4        1 XMK      0.202000
     47 H16        -3.1790    8.6980    3.2200 hc        1 XMK      0.174000
     48 H211       -0.5590    1.0690   -0.6040 ha        1 XMK      0.002000
     49 H212       -0.7560    0.3450    2.2760 h4        1 XMK      0.106500
     50 H221       -0.7140    1.1580    0.0520 ha        1 XMK      0.002000
     51 H222       -1.8280    0.8710    3.7070 h4        1 XMK      0.106500
     52 H24        -1.6900    4.8570    3.8360 ha        1 XMK      0.172000
     53 H251       -1.0170    2.1690   -2.4990 hc        1 XMK      0.098000
     54 H252        0.5910    4.8070   -2.0260 h1        1 XMK      0.141000
     55 H261        0.5570    2.6420   -3.2660 hc        1 XMK      0.098000
     56 H262       -0.9520    3.5870   -3.6290 hc        1 XMK      0.098000
     57 H27        -1.3980    8.9440    3.0750 hc        1 XMK      0.174000
     58 H29        -1.5930    5.4200    6.2230 ha        1 XMK      0.156000
     59 S17        -2.4620    5.0810   -0.4160 s6        1 XMK      2.873000
     60 Cl19       -1.7650    7.9440    7.5650 cl        1 XMK      0.014000
@<TRIPOS>BOND
     1    1    9 1   
     2    1   13 1   
     3    1   30 1   
     4    1   44 1   
     5    2   11 1   
     6    3    4 1   
     7    3    8 1   
     8    3   35 1   
     9    4    5 1   
    10    4    7 1   
    11    5   32 1   
    12    5   33 1   
    13    6   10 1   
    14    6   34 1   
    15    7   12 1   
    16    7   36 1   
    17    7   42 1   
    18    8   13 1   
    19    9   39 1   
    20    9   41 1   
    21    9   43 1   
    22   10   40 1   
    23   11   12 1   
    24   14   15 1   
    25   14   17 1   
    26   14   45 1   
    27   15   46 1   
    28   15   59 1   
    29   16   17 1   
    30   16   25 1   
    31   16   47 1   
    32   16   57 1   
    33   17   22 1   
    34   18   59 1   
    35   19   26 1   
    36   19   49 1   
    37   19   51 1   
    38   20   21 1   
    39   20   24 1   
    40   21   24 1   
    41   21   59 1   
    42   22   27 1   
    43   22   52 1   
    44   23   24 1   
    45   23   53 1   
    46   23   55 1   
    47   23   56 1   
    48   24   54 1   
    49   25   28 1   
    50   26   31 1   
    51   27   28 1   
    52   27   58 1   
    53   28   60 1   
    54   29   59 1   
    55   37   38 1   
    56   48   50 1   
@<TRIPOS>SUBSTRUCTURE
     1 XMK         1 TEMP              0 ****  ****    0 ROOT
