@<TRIPOS>MOLECULE
XMM
   38    40     1     0     0
SMALL
bcc


@<TRIPOS>ATOM
      1 O2         -3.7150    1.2540   -2.1110 oh        1 XMM     -0.600800
      2 C2         -2.7380    1.3210   -1.0840 c3        1 XMM      0.096100
      3 C3         -3.4610    1.8070    0.1790 c3        1 XMM      0.116100
      4 O3         -4.2600    2.9430   -0.0750 oh        1 XMM     -0.595800
      5 C4         -4.3200    0.6820    0.7830 c3        1 XMM      0.088100
      6 O4         -4.8830    1.0850    2.0200 oh        1 XMM     -0.601800
      7 C5         -3.4230   -0.5320    1.0530 c3        1 XMM      0.104100
      8 O5         -2.8900   -0.9980   -0.1910 os        1 XMM     -0.421600
      9 C6         -4.1900   -1.7140    1.6520 c3        1 XMM      0.132400
     10 O6         -3.3330   -2.5190    2.4370 oh        1 XMM     -0.604800
     11 C1         -2.0950   -0.0660   -0.8840 c3        1 XMM      0.296900
     12 O1         -0.9260    0.1420   -0.0850 os        1 XMM     -0.326900
     13 C7         -0.0990   -0.9480   -0.0020 cc        1 XMM      0.024900
     14 C8          1.2510   -1.0240   -0.5200 ca        1 XMM     -0.093800
     15 C9          1.7600   -2.3040   -0.0690 ca        1 XMM     -0.030200
     16 N1          0.7630   -2.9440    0.6680 na        1 XMM     -0.178400
     17 C11        -0.3630   -2.1250    0.7100 cd        1 XMM     -0.101100
     18 C10         2.0770   -0.1920   -1.2830 ca        1 XMM      0.093400
     19 CL          1.5000    1.3090   -1.8200 cl        1 XMM     -0.063400
     20 C13         3.3700   -0.6140   -1.5940 ca        1 XMM     -0.056900
     21 BR          4.5230    0.4510   -2.6160 br        1 XMM     -0.072100
     22 C14         3.8470   -1.8630   -1.1440 ca        1 XMM     -0.084000
     23 C12         3.0650   -2.7150   -0.3870 ca        1 XMM     -0.143000
     24 HO2        -3.2480    1.0890   -2.9390 ho        1 XMM      0.417000
     25 H2         -1.9320    2.0580   -1.3610 h1        1 XMM      0.077700
     26 H3         -2.6960    2.1520    0.9320 h1        1 XMM      0.103700
     27 HO3        -4.8190    2.7440   -0.8390 ho        1 XMM      0.422000
     28 H4         -5.1440    0.4090    0.0670 h1        1 XMM      0.063700
     29 HO4        -5.1940    1.9940    1.8990 ho        1 XMM      0.424000
     30 H5         -2.5750   -0.2330    1.7300 h1        1 XMM      0.068700
     31 H61        -4.5610   -2.3960    0.8400 h1        1 XMM      0.072700
     32 H62        -5.0470   -1.3250    2.2620 h1        1 XMM      0.072700
     33 HO6        -3.1020   -2.0100    3.2240 ho        1 XMM      0.402000
     34 H1         -1.8570   -0.5650   -1.8650 h2        1 XMM      0.091700
     35 HN1         0.8370   -3.8410    1.0680 hn        1 XMM      0.307700
     36 H11        -1.2910   -2.4270    1.2120 h4        1 XMM      0.207000
     37 H14         4.8740   -2.1690   -1.4040 ha        1 XMM      0.150000
     38 H12         3.4530   -3.6840   -0.0430 ha        1 XMM      0.142000
@<TRIPOS>BOND
     1    1    2 1   
     2    1   24 1   
     3    2    3 1   
     4    2   11 1   
     5    2   25 1   
     6    3    4 1   
     7    3    5 1   
     8    3   26 1   
     9    4   27 1   
    10    5    6 1   
    11    5    7 1   
    12    5   28 1   
    13    6   29 1   
    14    7    8 1   
    15    7    9 1   
    16    7   30 1   
    17    8   11 1   
    18    9   10 1   
    19    9   31 1   
    20    9   32 1   
    21   10   33 1   
    22   11   12 1   
    23   11   34 1   
    24   12   13 1   
    25   13   14 1   
    26   13   17 2   
    27   14   15 ar  
    28   14   18 ar  
    29   15   16 1   
    30   15   23 ar  
    31   16   17 1   
    32   16   35 1   
    33   17   36 1   
    34   18   19 1   
    35   18   20 ar  
    36   20   21 1   
    37   20   22 ar  
    38   22   23 ar  
    39   22   37 1   
    40   23   38 1   
@<TRIPOS>SUBSTRUCTURE
     1 XMM         1 TEMP              0 ****  ****    0 ROOT
