@<TRIPOS>MOLECULE
XMQ
   59    61     1     0     0
SMALL
bcc


@<TRIPOS>ATOM
      1 CAP        -0.1170    0.3260    0.2160 c3        1 XMQ      0.133800
      2 CAN         1.3990    0.4900   -0.0180 c3        1 XMQ      0.162300
      3 NBA         2.2430    0.1360    1.1120 n3        1 XMQ     -0.719600
      4 CAC         2.3290    1.1700    2.1190 c3        1 XMQ      0.148100
      5 CAO         1.8660   -1.1650    1.6430 c3        1 XMQ      0.162300
      6 CAQ         0.3570   -1.3620    1.8980 c3        1 XMQ      0.133800
      7 NBB        -0.4680   -0.9790    0.7620 n3        1 XMQ     -0.726600
      8 CAM        -1.8950   -1.0710    1.0370 c3        1 XMQ      0.171800
      9 CAK        -2.3620   -2.4750    1.4170 c3        1 XMQ     -0.079400
     10 CAL        -3.8800   -2.5260    1.4130 c3        1 XMQ     -0.048100
     11 CAU        -4.3810   -3.8690    1.8120 ca        1 XMQ     -0.004300
     12 CAJ        -5.0620   -4.0480    3.0200 ca        1 XMQ     -0.158000
     13 CAW        -5.5200   -5.3150    3.3800 ca        1 XMQ      0.122900
     14 CLH        -6.3880   -5.3960    4.8460 cl        1 XMQ     -0.055900
     15 CAI        -4.2000   -4.9710    0.9780 ca        1 XMQ     -0.158000
     16 CAV        -4.6630   -6.2390    1.3560 ca        1 XMQ      0.122900
     17 CLG        -4.4110   -7.4640    0.2100 cl        1 XMQ     -0.055900
     18 CAZ        -5.3020   -6.4630    2.5900 ca        1 XMQ     -0.323500
     19 SBD        -5.7510   -8.0210    3.2120 sy        1 XMQ      1.495200
     20 OAE        -5.3590   -9.0560    2.3520 o         1 XMQ     -0.636300
     21 OAF        -5.2200   -8.1300    4.5140 o         1 XMQ     -0.636300
     22 NAS        -7.3640   -7.9100    3.3150 nh        1 XMQ     -0.745500
     23 CAY        -8.2500   -8.0310    2.2580 cc        1 XMQ     -0.071700
     24 CAX        -9.0400   -7.0110    1.6670 cd        1 XMQ     -0.090600
     25 CAB        -9.1220   -5.5790    1.9920 c3        1 XMQ     -0.035800
     26 NBC        -9.8080   -7.6420    0.6770 na        1 XMQ      0.095400
     27 CAD       -10.6990   -6.9410   -0.2130 c3        1 XMQ      0.040600
     28 NAR        -9.5490   -8.9580    0.5940 nd        1 XMQ     -0.507800
     29 CAT        -8.6210   -9.2540    1.5440 cc        1 XMQ      0.342600
     30 CAA        -8.0670  -10.5960    1.8000 c3        1 XMQ     -0.140400
     31 HAP1       -0.4730    1.1650    0.8830 h1        1 XMQ      0.033700
     32 HAP2       -0.6370    0.4310   -0.7760 h1        1 XMQ      0.033700
     33 HAN1        1.7100   -0.1720   -0.8750 h1        1 XMQ      0.058950
     34 HAN2        1.5910    1.5590   -0.3100 h1        1 XMQ      0.058950
     35 HAC1        1.3470    1.3940    2.6200 h1        1 XMQ      0.031700
     36 HAC2        3.0630    0.8500    2.9040 h1        1 XMQ      0.031700
     37 HAC3        2.7060    2.1110    1.6390 h1        1 XMQ      0.031700
     38 HAO1        2.2110   -1.9320    0.8930 h1        1 XMQ      0.058950
     39 HAO2        2.4080   -1.3480    2.6100 h1        1 XMQ      0.058950
     40 HAQ1        0.0690   -0.7930    2.8310 h1        1 XMQ      0.033700
     41 HAQ2        0.1800   -2.4560    2.0940 h1        1 XMQ      0.033700
     42 HAM1       -2.2090   -0.3590    1.8580 h1        1 XMQ      0.029700
     43 HAM2       -2.4340   -0.7580    0.0970 h1        1 XMQ      0.029700
     44 HAK1       -1.9810   -2.7430    2.4370 hc        1 XMQ      0.057200
     45 HAK2       -1.9570   -3.2320    0.6950 hc        1 XMQ      0.057200
     46 HAL1       -4.2600   -2.2860    0.3820 hc        1 XMQ      0.057200
     47 HAL2       -4.2830   -1.7420    2.1070 hc        1 XMQ      0.057200
     48 HAJ        -5.2360   -3.1860    3.6840 ha        1 XMQ      0.157500
     49 HAI        -3.6860   -4.8410    0.0110 ha        1 XMQ      0.157500
     50 HAS        -7.8090   -7.7230    4.1880 hn        1 XMQ      0.457800
     51 HAB1       -8.9680   -4.9520    1.0770 hc        1 XMQ      0.054700
     52 HAB2      -10.1240   -5.3300    2.4250 hc        1 XMQ      0.054700
     53 HAB3       -8.3350   -5.3150    2.7410 hc        1 XMQ      0.054700
     54 HAD1      -11.2800   -6.1870    0.3820 h1        1 XMQ      0.058700
     55 HAD2      -10.1030   -6.4100   -1.0040 h1        1 XMQ      0.058700
     56 HAD3      -11.4070   -7.6590   -0.7050 h1        1 XMQ      0.058700
     57 HAA1       -6.9540  -10.5730    1.6570 hc        1 XMQ      0.063700
     58 HAA2       -8.5010  -11.3650    1.1140 hc        1 XMQ      0.063700
     59 HAA3       -8.2870  -10.8940    2.8550 hc        1 XMQ      0.063700
@<TRIPOS>BOND
     1    1    2 1   
     2    1    7 1   
     3    1   31 1   
     4    1   32 1   
     5    2    3 1   
     6    2   33 1   
     7    2   34 1   
     8    3    4 1   
     9    3    5 1   
    10    4   35 1   
    11    4   36 1   
    12    4   37 1   
    13    5    6 1   
    14    5   38 1   
    15    5   39 1   
    16    6    7 1   
    17    6   40 1   
    18    6   41 1   
    19    7    8 1   
    20    8    9 1   
    21    8   42 1   
    22    8   43 1   
    23    9   10 1   
    24    9   44 1   
    25    9   45 1   
    26   10   11 1   
    27   10   46 1   
    28   10   47 1   
    29   11   12 ar  
    30   11   15 ar  
    31   12   13 ar  
    32   12   48 1   
    33   13   14 1   
    34   13   18 ar  
    35   15   16 ar  
    36   15   49 1   
    37   16   17 1   
    38   16   18 ar  
    39   18   19 1   
    40   19   20 2   
    41   19   21 2   
    42   19   22 1   
    43   22   23 1   
    44   22   50 1   
    45   23   24 2   
    46   23   29 1   
    47   24   25 1   
    48   24   26 1   
    49   25   51 1   
    50   25   52 1   
    51   25   53 1   
    52   26   27 1   
    53   26   28 1   
    54   27   54 1   
    55   27   55 1   
    56   27   56 1   
    57   28   29 2   
    58   29   30 1   
    59   30   57 1   
    60   30   58 1   
    61   30   59 1   
@<TRIPOS>SUBSTRUCTURE
     1 XMQ         1 TEMP              0 ****  ****    0 ROOT
