@<TRIPOS>MOLECULE
XMQ
   59    61     1     0     0
SMALL
bcc


@<TRIPOS>ATOM
      1 CAP        -0.1050    0.3160    0.2190 c3        1 XMQ      0.133800
      2 CAN         1.4120    0.4800   -0.0060 c3        1 XMQ      0.162300
      3 NBA         2.2480    0.1300    1.1310 n3        1 XMQ     -0.719600
      4 CAC         2.3280    1.1680    2.1340 c3        1 XMQ      0.148100
      5 CAO         1.8690   -1.1690    1.6640 c3        1 XMQ      0.162300
      6 CAQ         0.3580   -1.3640    1.9110 c3        1 XMQ      0.133800
      7 NBB        -0.4600   -0.9870    0.7680 n3        1 XMQ     -0.726600
      8 CAM        -1.8890   -1.0770    1.0360 c3        1 XMQ      0.171800
      9 CAK        -2.3590   -2.4790    1.4190 c3        1 XMQ     -0.079400
     10 CAL        -3.8760   -2.5300    1.4060 c3        1 XMQ     -0.048100
     11 CAU        -4.3800   -3.8710    1.8080 ca        1 XMQ     -0.004300
     12 CAJ        -5.0660   -4.0450    3.0130 ca        1 XMQ     -0.158000
     13 CAW        -5.5260   -5.3110    3.3750 ca        1 XMQ      0.122900
     14 ClH        -6.3990   -5.3880    4.8390 cl        1 XMQ     -0.055900
     15 CAI        -4.1980   -4.9750    0.9760 ca        1 XMQ     -0.158000
     16 CAV        -4.6640   -6.2410    1.3560 ca        1 XMQ      0.122900
     17 ClG        -4.4090   -7.4690    0.2140 cl        1 XMQ     -0.055900
     18 CAZ        -5.3070   -6.4620    2.5880 ca        1 XMQ     -0.323500
     19 SBD        -5.7610   -8.0180    3.2120 sy        1 XMQ      1.495200
     20 OAE        -5.3680   -9.0550    2.3560 o         1 XMQ     -0.636300
     21 OAF        -5.2340   -8.1240    4.5160 o         1 XMQ     -0.636300
     22 NAS        -7.3730   -7.9030    3.3110 nu        1 XMQ     -0.745500
     23 CAY        -8.2570   -8.0240    2.2510 cc        1 XMQ     -0.071700
     24 CAX        -9.0440   -7.0040    1.6560 cd        1 XMQ     -0.090600
     25 CAB        -9.1240   -5.5710    1.9790 c3        1 XMQ     -0.035800
     26 NBC        -9.8100   -7.6360    0.6660 na        1 XMQ      0.095400
     27 CAD       -10.6980   -6.9340   -0.2280 c3        1 XMQ      0.040600
     28 NAR        -9.5530   -8.9520    0.5850 nd        1 XMQ     -0.507800
     29 CAT        -8.6280   -9.2480    1.5370 cc        1 XMQ      0.342600
     30 CAA        -8.0760  -10.5900    1.7960 c3        1 XMQ     -0.140400
     31 HAP1       -0.6200    0.4170   -0.7760 h1        1 XMQ      0.033700
     32 HAP2       -0.4660    1.1580    0.8800 h1        1 XMQ      0.033700
     33 HAN1        1.7280   -0.1860   -0.8590 h1        1 XMQ      0.058950
     34 HAN2        1.6060    1.5470   -0.3020 h1        1 XMQ      0.058950
     35 HAC1        3.0580    0.8520    2.9240 h1        1 XMQ      0.031700
     36 HAC2        2.7080    2.1070    1.6520 h1        1 XMQ      0.031700
     37 HAC3        1.3440    1.3950    2.6280 h1        1 XMQ      0.031700
     38 HAO1        2.2180   -1.9390    0.9200 h1        1 XMQ      0.058950
     39 HAO2        2.4050   -1.3480    2.6350 h1        1 XMQ      0.058950
     40 HAQ1        0.0650   -0.7920    2.8400 h1        1 XMQ      0.033700
     41 HAQ2        0.1800   -2.4580    2.1100 h1        1 XMQ      0.033700
     42 HAM1       -2.4220   -0.7670    0.0910 h1        1 XMQ      0.029700
     43 HAM2       -2.2080   -0.3610    1.8520 h1        1 XMQ      0.029700
     44 HAK1       -1.9500   -3.2390    0.7020 hc        1 XMQ      0.057200
     45 HAK2       -1.9830   -2.7440    2.4420 hc        1 XMQ      0.057200
     46 HAL1       -4.2500   -2.2930    0.3730 hc        1 XMQ      0.057200
     47 HAL2       -4.2820   -1.7420    2.0970 hc        1 XMQ      0.057200
     48 HAJ        -5.2400   -3.1820    3.6760 ha        1 XMQ      0.157500
     49 HAI        -3.6800   -4.8480    0.0110 ha        1 XMQ      0.157500
     50 HAS        -7.8210   -7.7140    4.1810 hn        1 XMQ      0.457800
     51 HAB1       -8.9670   -4.9460    1.0640 hc        1 XMQ      0.054700
     52 HAB2       -8.3390   -5.3080    2.7310 hc        1 XMQ      0.054700
     53 HAB3      -10.1280   -5.3200    2.4080 hc        1 XMQ      0.054700
     54 HAD1      -11.2820   -6.1810    0.3650 h1        1 XMQ      0.058700
     55 HAD2      -10.0990   -6.4020   -1.0160 h1        1 XMQ      0.058700
     56 HAD3      -11.4030   -7.6520   -0.7240 h1        1 XMQ      0.058700
     57 HAA1       -8.5110  -11.3600    1.1120 hc        1 XMQ      0.063700
     58 HAA2       -6.9640  -10.5700    1.6550 hc        1 XMQ      0.063700
     59 HAA3       -8.2980  -10.8860    2.8530 hc        1 XMQ      0.063700
@<TRIPOS>BOND
     1    1    2 1   
     2    1    7 1   
     3    1   31 1   
     4    1   32 1   
     5    2    3 1   
     6    2   33 1   
     7    2   34 1   
     8    3    4 1   
     9    3    5 1   
    10    4   35 1   
    11    4   36 1   
    12    4   37 1   
    13    5    6 1   
    14    5   38 1   
    15    5   39 1   
    16    6    7 1   
    17    6   40 1   
    18    6   41 1   
    19    7    8 1   
    20    8    9 1   
    21    8   42 1   
    22    8   43 1   
    23    9   10 1   
    24    9   44 1   
    25    9   45 1   
    26   10   11 1   
    27   10   46 1   
    28   10   47 1   
    29   11   12 ar  
    30   11   15 ar  
    31   12   13 ar  
    32   12   48 1   
    33   13   14 1   
    34   13   18 ar  
    35   15   16 ar  
    36   15   49 1   
    37   16   17 1   
    38   16   18 ar  
    39   18   19 1   
    40   19   20 2   
    41   19   21 2   
    42   19   22 1   
    43   22   23 1   
    44   22   50 1   
    45   23   24 2   
    46   23   29 1   
    47   24   25 1   
    48   24   26 1   
    49   25   51 1   
    50   25   52 1   
    51   25   53 1   
    52   26   27 1   
    53   26   28 1   
    54   27   54 1   
    55   27   55 1   
    56   27   56 1   
    57   28   29 2   
    58   29   30 1   
    59   30   57 1   
    60   30   58 1   
    61   30   59 1   
@<TRIPOS>SUBSTRUCTURE
     1 XMQ         1 TEMP              0 ****  ****    0 ROOT
