@<TRIPOS>MOLECULE
XNA
   55    59     1     0     0
SMALL
bcc


@<TRIPOS>ATOM
      1 C01        -3.9070    3.4820    1.2760 c3        1 XNA     -0.059800
      2 C02        -4.4150    2.2960    0.5470 ca        1 XNA     -0.105300
      3 C03        -5.7590    1.9350    0.6720 ca        1 XNA     -0.116000
      4 C04        -6.2720    0.8280    0.0030 ca        1 XNA     -0.137000
      5 C05        -5.4380    0.0680   -0.8140 ca        1 XNA     -0.125000
      6 C06        -4.0980    0.4080   -0.9660 ca        1 XNA     -0.114000
      7 C07        -3.5640    1.5210   -0.2850 ca        1 XNA      0.137600
      8 N08        -2.2220    1.9170   -0.4770 nh        1 XNA     -0.724300
      9 C09        -1.1240    1.0830   -0.3110 ca        1 XNA      0.676900
     10 N10        -1.2840   -0.2430   -0.1420 nb        1 XNA     -0.797000
     11 C11        -0.1390   -1.0450   -0.0470 ca        1 XNA      0.900900
     12 N12         1.1430   -0.5860   -0.1640 nb        1 XNA     -0.781000
     13 C13         1.3080    0.7590   -0.3160 ca        1 XNA      0.227000
     14 C14         2.6700    1.3510   -0.4190 ca        1 XNA      0.644900
     15 N15         2.8210    2.6950   -0.5160 nb        1 XNA     -0.779000
     16 C16         1.6770    3.4530   -0.5440 ca        1 XNA      0.658900
     17 N17         0.4100    3.0430   -0.4870 nb        1 XNA     -0.721000
     18 C18         0.2240    1.6830   -0.3770 ca        1 XNA      0.146000
     19 N19         3.7630    0.5150   -0.4570 nh        1 XNA     -0.849900
     20 C20         5.1130    1.0240   -0.4120 c3        1 XNA      0.242800
     21 C21         6.1410   -0.0790   -0.4230 cx        1 XNA     -0.151700
     22 C22         6.4870   -0.7890    0.8600 cx        1 XNA     -0.126400
     23 C23         7.4610    0.1770    0.2550 cx        1 XNA     -0.126400
     24 N24        -0.3390   -2.4210    0.2640 nh        1 XNA     -0.721300
     25 C25         0.7660   -3.3180   -0.0390 c3        1 XNA      0.161300
     26 C26         0.5260   -4.7680    0.4350 c3        1 XNA      0.143300
     27 N27        -0.7710   -5.3200    0.1100 n3        1 XNA     -0.797200
     28 C28        -1.8320   -4.4200    0.5070 c3        1 XNA      0.143300
     29 C29        -1.6710   -2.9590    0.0320 c3        1 XNA      0.161300
     30 H01        -3.6000    4.2850    0.5580 hc        1 XNA      0.047367
     31 H01A       -4.6930    3.9060    1.9490 hc        1 XNA      0.047367
     32 H01B       -3.0220    3.2140    1.9060 hc        1 XNA      0.047367
     33 H03        -6.4190    2.5370    1.3160 ha        1 XNA      0.133000
     34 H04        -7.3320    0.5560    0.1180 ha        1 XNA      0.133000
     35 H05        -5.8390   -0.8060   -1.3500 ha        1 XNA      0.132000
     36 H06        -3.4600   -0.2010   -1.6250 ha        1 XNA      0.149000
     37 HN08       -2.0470    2.8970   -0.3780 hn        1 XNA      0.463800
     38 H16         1.8500    4.5460   -0.6270 h5        1 XNA      0.051100
     39 HN19        3.6260   -0.4430   -0.2300 hn        1 XNA      0.456800
     40 H20         5.2780    1.6860   -1.3120 h1        1 XNA      0.057700
     41 H20A        5.2520    1.6650    0.5080 h1        1 XNA      0.057700
     42 H21         6.1390   -0.6660   -1.3620 hc        1 XNA      0.088700
     43 H22         5.9590   -0.5050    1.7870 hc        1 XNA      0.074950
     44 H22A        6.7100   -1.8700    0.8260 hc        1 XNA      0.074950
     45 H23         8.3810   -0.2080   -0.2190 hc        1 XNA      0.074950
     46 H23A        7.6290    1.1510    0.7500 hc        1 XNA      0.074950
     47 H25         0.9790   -3.3240   -1.1470 h1        1 XNA      0.055200
     48 H25A        1.6890   -2.9460    0.4900 h1        1 XNA      0.055200
     49 H26         1.3270   -5.4120   -0.0220 h1        1 XNA      0.062700
     50 H26A        0.6400   -4.8080    1.5550 h1        1 XNA      0.062700
     51 HN27       -0.8290   -5.5090   -0.8750 hn        1 XNA      0.351800
     52 H28        -2.8100   -4.8030    0.1060 h1        1 XNA      0.062700
     53 H28A       -1.8840   -4.4330    1.6320 h1        1 XNA      0.062700
     54 H29        -2.4170   -2.3400    0.6070 h1        1 XNA      0.055200
     55 H29A       -1.9370   -2.8990   -1.0630 h1        1 XNA      0.055200
@<TRIPOS>BOND
     1    1    2 1   
     2    1   30 1   
     3    1   31 1   
     4    1   32 1   
     5    2    3 ar  
     6    2    7 ar  
     7    3    4 ar  
     8    3   33 1   
     9    4    5 ar  
    10    4   34 1   
    11    5    6 ar  
    12    5   35 1   
    13    6    7 ar  
    14    6   36 1   
    15    7    8 1   
    16    8    9 1   
    17    8   37 1   
    18    9   10 ar  
    19    9   18 ar  
    20   10   11 ar  
    21   11   12 ar  
    22   11   24 1   
    23   12   13 ar  
    24   13   14 ar  
    25   13   18 ar  
    26   14   15 ar  
    27   14   19 1   
    28   15   16 ar  
    29   16   17 ar  
    30   16   38 1   
    31   17   18 ar  
    32   19   20 1   
    33   19   39 1   
    34   20   21 1   
    35   20   40 1   
    36   20   41 1   
    37   21   22 1   
    38   21   23 1   
    39   21   42 1   
    40   22   23 1   
    41   22   43 1   
    42   22   44 1   
    43   23   45 1   
    44   23   46 1   
    45   24   25 1   
    46   24   29 1   
    47   25   26 1   
    48   25   47 1   
    49   25   48 1   
    50   26   27 1   
    51   26   49 1   
    52   26   50 1   
    53   27   28 1   
    54   27   51 1   
    55   28   29 1   
    56   28   52 1   
    57   28   53 1   
    58   29   54 1   
    59   29   55 1   
@<TRIPOS>SUBSTRUCTURE
     1 XNA         1 TEMP              0 ****  ****    0 ROOT
