@<TRIPOS>MOLECULE
XNA
   57    61     1     0     0
SMALL
bcc


@<TRIPOS>ATOM
      1 C01         0.6040    1.4600   -0.4330 c3        1 XNA     -0.092800
      2 C02         1.7150    0.5160   -0.1670 ca        1 XNA     -0.029300
      3 C03         2.3560    0.5270    1.0780 ca        1 XNA     -0.108000
      4 C04         3.3930   -0.3580    1.3630 ca        1 XNA     -0.057000
      5 C05         3.8160   -1.2790    0.4000 ca        1 XNA     -0.106000
      6 C06         3.2040   -1.3180   -0.8470 ca        1 XNA     -0.093000
      7 C07         2.1480   -0.4280   -1.1230 ca        1 XNA     -0.067400
      8 N08         1.4650   -0.5240   -2.4180 n4        1 XNA     -0.617100
      9 C09         2.1120    0.1800   -3.5610 ca        1 XNA      0.552900
     10 N10         3.2340    0.8410   -3.3800 nb        1 XNA     -0.663000
     11 C11         3.8220    1.5040   -4.5090 ca        1 XNA      0.942900
     12 N12         3.2660    1.4410   -5.7830 nb        1 XNA     -0.798000
     13 C13         2.1140    0.7540   -5.9260 ca        1 XNA      0.303000
     14 C14         1.4380    0.6300   -7.2280 ca        1 XNA      0.446900
     15 N15         0.3010   -0.0440   -7.3800 nb        1 XNA     -0.604000
     16 C16        -0.2410   -0.6430   -6.2560 ca        1 XNA      0.654900
     17 N17         0.2660   -0.6170   -5.0220 nb        1 XNA     -0.632000
     18 C18         1.4340    0.0730   -4.8530 ca        1 XNA      0.101000
     19 N19         2.0750    1.2910   -8.3850 n4        1 XNA     -0.747700
     20 C20         1.3710    1.1190   -9.7080 c3        1 XNA      0.158800
     21 C21         2.1210    1.8380  -10.7860 cx        1 XNA     -0.231700
     22 C22         2.0110    3.3400  -10.9110 cx        1 XNA     -0.094400
     23 C23         1.3130    2.4670  -11.9010 cx        1 XNA     -0.094400
     24 N24         4.9580    2.2390   -4.2920 nh        1 XNA     -0.657300
     25 C25         5.6660    2.8100   -5.4350 c3        1 XNA      0.195800
     26 C26         6.7140    3.8860   -5.0740 c3        1 XNA      0.155300
     27 N27         7.5100    3.5060   -3.9320 n3        1 XNA     -0.826200
     28 C28         6.6860    3.2840   -2.7680 c3        1 XNA      0.155300
     29 C29         5.6400    2.1720   -3.0000 c3        1 XNA      0.195800
     30 H01        -0.3680    0.9110   -0.5330 hc        1 XNA      0.069700
     31 H01A        0.7890    2.0550   -1.3620 hc        1 XNA      0.069700
     32 H01B        0.4880    2.1860    0.4130 hc        1 XNA      0.069700
     33 H03         2.0250    1.2490    1.8460 ha        1 XNA      0.176000
     34 H04         3.8800   -0.3350    2.3540 ha        1 XNA      0.179000
     35 H05         4.6350   -1.9820    0.6290 ha        1 XNA      0.178000
     36 H06         3.5470   -2.0500   -1.5960 ha        1 XNA      0.154000
     37 HN08        1.3950   -1.5220   -2.6790 hn        1 XNA      0.485300
     38 H16        -1.1950   -1.1970   -6.4290 h5        1 XNA      0.117100
     39 HN19        2.1430    2.2980   -8.1760 hn        1 XNA      0.472300
     40 H20         1.3140    0.0150   -9.9350 hx        1 XNA      0.120700
     41 H20A        0.3230    1.5240   -9.5990 hx        1 XNA      0.120700
     42 H21         3.0800    1.3520  -11.0600 hc        1 XNA      0.111700
     43 H22         1.4070    3.9010  -10.1740 hc        1 XNA      0.099200
     44 H22A        2.9060    3.9090  -11.2290 hc        1 XNA      0.099200
     45 H23         1.7070    2.3880  -12.9330 hc        1 XNA      0.099200
     46 H23A        0.2100    2.3920  -11.8770 hc        1 XNA      0.099200
     47 H25         6.1790    1.9660   -5.9820 h1        1 XNA      0.077950
     48 H25A        4.9260    3.3000   -6.1290 h1        1 XNA      0.077950
     49 H26         7.3960    3.9960   -5.9650 h1        1 XNA      0.064450
     50 H26A        6.1740    4.8670   -4.9220 h1        1 XNA      0.064450
     51 HN27        8.2440    4.1650   -3.7510 hn        1 XNA      0.410800
     52 H28         7.3470    2.9430   -1.9210 h1        1 XNA      0.064450
     53 H28A        6.1420    4.2170   -2.4340 h1        1 XNA      0.064450
     54 H29         6.1500    1.1680   -2.9310 h1        1 XNA      0.077950
     55 H29A        4.8860    2.2590   -2.1670 h1        1 XNA      0.077950
     56 H082        0.5110   -0.1370   -2.3240 hn        1 XNA      0.485300
     57 H192        3.0330    0.9180   -8.4680 hn        1 XNA      0.472300
@<TRIPOS>BOND
     1    1    2 1   
     2    1   30 1   
     3    1   31 1   
     4    1   32 1   
     5    2    3 ar  
     6    2    7 ar  
     7    3    4 ar  
     8    3   33 1   
     9    4    5 ar  
    10    4   34 1   
    11    5    6 ar  
    12    5   35 1   
    13    6    7 ar  
    14    6   36 1   
    15    7    8 1   
    16    8    9 1   
    17    8   37 1   
    18    8   56 1   
    19    9   10 ar  
    20    9   18 ar  
    21   10   11 ar  
    22   11   12 ar  
    23   11   24 1   
    24   12   13 ar  
    25   13   14 ar  
    26   13   18 ar  
    27   14   15 ar  
    28   14   19 1   
    29   15   16 ar  
    30   16   17 ar  
    31   16   38 1   
    32   17   18 ar  
    33   19   20 1   
    34   19   39 1   
    35   19   57 1   
    36   20   21 1   
    37   20   40 1   
    38   20   41 1   
    39   21   22 1   
    40   21   23 1   
    41   21   42 1   
    42   22   23 1   
    43   22   43 1   
    44   22   44 1   
    45   23   45 1   
    46   23   46 1   
    47   24   25 1   
    48   24   29 1   
    49   25   26 1   
    50   25   47 1   
    51   25   48 1   
    52   26   27 1   
    53   26   49 1   
    54   26   50 1   
    55   27   28 1   
    56   27   51 1   
    57   28   29 1   
    58   28   52 1   
    59   28   53 1   
    60   29   54 1   
    61   29   55 1   
@<TRIPOS>SUBSTRUCTURE
     1 XNA         1 TEMP              0 ****  ****    0 ROOT
