@<TRIPOS>MOLECULE
XNA
   55    59     1     0     0
SMALL
bcc


@<TRIPOS>ATOM
      1 C01        -0.1380    0.3350   -0.2350 c3        1 XNA     -0.058800
      2 C02         1.3040    0.0880    0.0040 ca        1 XNA     -0.106300
      3 C03         1.8020    0.1390    1.3090 ca        1 XNA     -0.116000
      4 C04         3.1500   -0.0880    1.5730 ca        1 XNA     -0.138000
      5 C05         4.0190   -0.3790    0.5250 ca        1 XNA     -0.125000
      6 C06         3.5500   -0.4460   -0.7840 ca        1 XNA     -0.114000
      7 C07         2.1900   -0.2070   -1.0650 ca        1 XNA      0.138600
      8 N08         1.6850   -0.3330   -2.3780 nh        1 XNA     -0.725300
      9 C09         2.2010    0.3260   -3.4870 ca        1 XNA      0.676900
     10 N10         3.3670    0.9950   -3.4110 nb        1 XNA     -0.796000
     11 C11         3.8740    1.5840   -4.5760 ca        1 XNA      0.900900
     12 N12         3.2940    1.4880   -5.8110 nb        1 XNA     -0.781000
     13 C13         2.1030    0.8270   -5.8860 ca        1 XNA      0.227000
     14 C14         1.3850    0.7000   -7.1840 ca        1 XNA      0.645900
     15 N15         0.1780    0.0860   -7.2350 nb        1 XNA     -0.780000
     16 C16        -0.3150   -0.4230   -6.0600 ca        1 XNA      0.658900
     17 N17         0.2390   -0.3970   -4.8480 nb        1 XNA     -0.722000
     18 C18         1.4620    0.2280   -4.7620 ca        1 XNA      0.146000
     19 N19         1.9820    1.1760   -8.3290 nh        1 XNA     -0.850900
     20 C20         1.2900    1.2060   -9.5950 c3        1 XNA      0.243800
     21 C21         2.1340    1.7980  -10.6950 cx        1 XNA     -0.151700
     22 C22         2.2240    3.2950  -10.8430 cx        1 XNA     -0.126400
     23 C23         1.4300    2.4930  -11.8310 cx        1 XNA     -0.126400
     24 N24         5.0340    2.4000   -4.4350 nh        1 XNA     -0.719300
     25 C25         5.7970    2.6520   -5.6500 c3        1 XNA      0.197300
     26 C26         6.9370    3.6720   -5.4510 c3        1 XNA      0.153800
     27 N27         7.7630    3.3820   -4.2980 n3        1 XNA     -0.819200
     28 C28         6.9810    3.2170   -3.0910 c3        1 XNA      0.153800
     29 C29         5.8440    2.1860   -3.2430 c3        1 XNA      0.197300
     30 H01        -0.2830    1.1490   -0.9890 hc        1 XNA      0.047033
     31 H01A       -0.6390   -0.5920   -0.6150 hc        1 XNA      0.047033
     32 H01B       -0.6550    0.6420    0.7070 hc        1 XNA      0.047033
     33 H03         1.1150    0.3670    2.1380 ha        1 XNA      0.132000
     34 H04         3.5240   -0.0380    2.6060 ha        1 XNA      0.133000
     35 H05         5.0850   -0.5640    0.7280 ha        1 XNA      0.133000
     36 H06         4.2540   -0.6880   -1.5950 ha        1 XNA      0.151000
     37 HN08        0.7290   -0.6180   -2.4430 hn        1 XNA      0.463800
     38 H16        -1.3060   -0.9170   -6.1510 h5        1 XNA      0.050100
     39 HN19        2.7950    1.7410   -8.2340 hn        1 XNA      0.457800
     40 H20         1.0110    0.1490   -9.8790 h1        1 XNA      0.057200
     41 H20A        0.3300    1.7930   -9.4940 h1        1 XNA      0.057200
     42 H21         3.0340    1.1950  -10.9270 hc        1 XNA      0.088700
     43 H22         1.6870    3.9360  -10.1220 hc        1 XNA      0.074450
     44 H22A        3.1830    3.7420  -11.1590 hc        1 XNA      0.074450
     45 H23         0.3280    2.5620  -11.8160 hc        1 XNA      0.074450
     46 H23A        1.8200    2.3580  -12.8550 hc        1 XNA      0.074450
     47 H25         5.1100    3.0830   -6.4310 h1        1 XNA      0.058950
     48 H25A        6.2320    1.6920   -6.0510 h1        1 XNA      0.058950
     49 H26         7.5920    3.6270   -6.3650 h1        1 XNA      0.038200
     50 H26A        6.4820    4.7050   -5.4020 h1        1 XNA      0.038200
     51 HN27        8.4490    4.1030   -4.1720 hn        1 XNA      0.365800
     52 H28         6.5320    4.1910   -2.7360 h1        1 XNA      0.038200
     53 H28A        7.6700    2.8410   -2.2830 h1        1 XNA      0.038200
     54 H29         5.1900    2.2890   -2.3320 h1        1 XNA      0.058950
     55 H29A        6.2890    1.1500   -3.2470 h1        1 XNA      0.058950
@<TRIPOS>BOND
     1    1    2 1   
     2    1   30 1   
     3    1   31 1   
     4    1   32 1   
     5    2    3 ar  
     6    2    7 ar  
     7    3    4 ar  
     8    3   33 1   
     9    4    5 ar  
    10    4   34 1   
    11    5    6 ar  
    12    5   35 1   
    13    6    7 ar  
    14    6   36 1   
    15    7    8 1   
    16    8    9 1   
    17    8   37 1   
    18    9   10 ar  
    19    9   18 ar  
    20   10   11 ar  
    21   11   12 ar  
    22   11   24 1   
    23   12   13 ar  
    24   13   14 ar  
    25   13   18 ar  
    26   14   15 ar  
    27   14   19 1   
    28   15   16 ar  
    29   16   17 ar  
    30   16   38 1   
    31   17   18 ar  
    32   19   20 1   
    33   19   39 1   
    34   20   21 1   
    35   20   40 1   
    36   20   41 1   
    37   21   22 1   
    38   21   23 1   
    39   21   42 1   
    40   22   23 1   
    41   22   43 1   
    42   22   44 1   
    43   23   45 1   
    44   23   46 1   
    45   24   25 1   
    46   24   29 1   
    47   25   26 1   
    48   25   47 1   
    49   25   48 1   
    50   26   27 1   
    51   26   49 1   
    52   26   50 1   
    53   27   28 1   
    54   27   51 1   
    55   28   29 1   
    56   28   52 1   
    57   28   53 1   
    58   29   54 1   
    59   29   55 1   
@<TRIPOS>SUBSTRUCTURE
     1 XNA         1 TEMP              0 ****  ****    0 ROOT
