@<TRIPOS>MOLECULE
XNA
   55    59     1     0     0
SMALL
bcc


@<TRIPOS>ATOM
      1 C01        -0.1340    0.3110   -0.2380 c3        1 XNA     -0.058800
      2 C02         1.3090    0.0740    0.0030 ca        1 XNA     -0.106300
      3 C03         1.8070    0.1270    1.3070 ca        1 XNA     -0.116000
      4 C04         3.1560   -0.0910    1.5720 ca        1 XNA     -0.138000
      5 C05         4.0280   -0.3770    0.5240 ca        1 XNA     -0.125000
      6 C06         3.5600   -0.4460   -0.7850 ca        1 XNA     -0.114000
      7 C07         2.1980   -0.2160   -1.0670 ca        1 XNA      0.138600
      8 N08         1.6950   -0.3440   -2.3800 nu        1 XNA     -0.725300
      9 C09         2.2070    0.3190   -3.4880 ca        1 XNA      0.676900
     10 N10         3.3680    0.9960   -3.4110 nb        1 XNA     -0.796000
     11 C11         3.8730    1.5890   -4.5750 ca        1 XNA      0.900900
     12 N12         3.2940    1.4900   -5.8110 nb        1 XNA     -0.781000
     13 C13         2.1080    0.8210   -5.8870 ca        1 XNA      0.227000
     14 C14         1.3920    0.6900   -7.1850 ca        1 XNA      0.645900
     15 N15         0.1880    0.0690   -7.2380 nb        1 XNA     -0.780000
     16 C16        -0.3030   -0.4440   -6.0630 ca        1 XNA      0.658900
     17 N17         0.2510   -0.4160   -4.8510 nb        1 XNA     -0.722000
     18 C18         1.4700    0.2180   -4.7640 ca        1 XNA      0.146000
     19 N19         1.9860    1.1710   -8.3300 nu        1 XNA     -0.850900
     20 C20         1.2950    1.1970   -9.5960 c3        1 XNA      0.243800
     21 C21         2.1350    1.7950  -10.6960 cx        1 XNA     -0.151700
     22 C22         2.2150    3.2920  -10.8440 cx        1 XNA     -0.126400
     23 C23         1.4270    2.4850  -11.8310 cx        1 XNA     -0.126400
     24 N24         5.0270    2.4130   -4.4330 nh        1 XNA     -0.719300
     25 C25         5.7890    2.6710   -5.6470 c3        1 XNA      0.197300
     26 C26         6.9210    3.6990   -5.4470 c3        1 XNA      0.153800
     27 N27         7.7480    3.4140   -4.2930 n7        1 XNA     -0.819200
     28 C28         6.9670    3.2430   -3.0870 c3        1 XNA      0.153800
     29 C29         5.8370    2.2040   -3.2410 c3        1 XNA      0.197300
     30 H01        -0.6290   -0.6180   -0.6190 hc        1 XNA      0.047033
     31 H01A       -0.2830    1.1250   -0.9910 hc        1 XNA      0.047033
     32 H01B       -0.6530    0.6150    0.7050 hc        1 XNA      0.047033
     33 H03         1.1180    0.3490    2.1360 ha        1 XNA      0.132000
     34 H04         3.5300   -0.0400    2.6050 ha        1 XNA      0.133000
     35 H05         5.0950   -0.5550    0.7270 ha        1 XNA      0.133000
     36 H06         4.2660   -0.6830   -1.5960 ha        1 XNA      0.151000
     37 HN08        0.7400   -0.6350   -2.4460 hn        1 XNA      0.463800
     38 H16        -1.2900   -0.9450   -6.1550 h5        1 XNA      0.050100
     39 HN19        2.7950    1.7410   -8.2350 hn        1 XNA      0.457800
     40 H20         0.3310    1.7780   -9.4950 h1        1 XNA      0.057200
     41 H20A        1.0220    0.1380   -9.8800 h1        1 XNA      0.057200
     42 H21         3.0390    1.1970  -10.9270 hc        1 XNA      0.088700
     43 H22         1.6750    3.9300  -10.1220 hc        1 XNA      0.074450
     44 H22A        3.1720    3.7450  -11.1590 hc        1 XNA      0.074450
     45 H23         1.8190    2.3530  -12.8550 hc        1 XNA      0.074450
     46 H23A        0.3250    2.5470  -11.8170 hc        1 XNA      0.074450
     47 H25         6.2320    1.7140   -6.0480 h1        1 XNA      0.058950
     48 H25A        5.1000    3.0970   -6.4290 h1        1 XNA      0.058950
     49 H26         6.4590    4.7290   -5.3980 h1        1 XNA      0.038200
     50 H26A        7.5780    3.6590   -6.3610 h1        1 XNA      0.038200
     51 HN27        8.4290    4.1400   -4.1670 hn        1 XNA      0.365800
     52 H28         6.5100    4.2140   -2.7320 h1        1 XNA      0.038200
     53 H28A        7.6580    2.8720   -2.2780 h1        1 XNA      0.038200
     54 H29         5.1810    2.3020   -2.3290 h1        1 XNA      0.058950
     55 H29A        6.2900    1.1710   -3.2450 h1        1 XNA      0.058950
@<TRIPOS>BOND
     1    1    2 1   
     2    1   30 1   
     3    1   31 1   
     4    1   32 1   
     5    2    3 ar  
     6    2    7 ar  
     7    3    4 ar  
     8    3   33 1   
     9    4    5 ar  
    10    4   34 1   
    11    5    6 ar  
    12    5   35 1   
    13    6    7 ar  
    14    6   36 1   
    15    7    8 1   
    16    8    9 1   
    17    8   37 1   
    18    9   10 ar  
    19    9   18 ar  
    20   10   11 ar  
    21   11   12 ar  
    22   11   24 1   
    23   12   13 ar  
    24   13   14 ar  
    25   13   18 ar  
    26   14   15 ar  
    27   14   19 1   
    28   15   16 ar  
    29   16   17 ar  
    30   16   38 1   
    31   17   18 ar  
    32   19   20 1   
    33   19   39 1   
    34   20   21 1   
    35   20   40 1   
    36   20   41 1   
    37   21   22 1   
    38   21   23 1   
    39   21   42 1   
    40   22   23 1   
    41   22   43 1   
    42   22   44 1   
    43   23   45 1   
    44   23   46 1   
    45   24   25 1   
    46   24   29 1   
    47   25   26 1   
    48   25   47 1   
    49   25   48 1   
    50   26   27 1   
    51   26   49 1   
    52   26   50 1   
    53   27   28 1   
    54   27   51 1   
    55   28   29 1   
    56   28   52 1   
    57   28   53 1   
    58   29   54 1   
    59   29   55 1   
@<TRIPOS>SUBSTRUCTURE
     1 XNA         1 TEMP              0 ****  ****    0 ROOT
