@<TRIPOS>MOLECULE
XNB
   56    60     1     0     0
SMALL
bcc


@<TRIPOS>ATOM
      1 C01         0.5230   -0.6880   -0.4450 c3        1 XNB     -0.063000
      2 S02         2.1980   -0.6860    0.0640 ss        1 XNB     -0.182000
      3 C03         2.1880   -0.1600    1.6820 ca        1 XNB     -0.037100
      4 C04         1.0480   -0.1940    2.4870 ca        1 XNB     -0.125000
      5 C05         1.0890    0.2160    3.8160 ca        1 XNB     -0.129000
      6 C06         2.2870    0.6730    4.3610 ca        1 XNB     -0.124000
      7 C07         3.4390    0.7290    3.5810 ca        1 XNB     -0.109000
      8 C08         3.4110    0.3140    2.2350 ca        1 XNB      0.158600
      9 N09         4.5460    0.4350    1.4070 nu        1 XNB     -0.727300
     10 C10         5.8050   -0.0610    1.7190 ca        1 XNB      0.680900
     11 N11         6.0540   -0.5970    2.9290 nb        1 XNB     -0.799000
     12 C12         7.3540   -1.0360    3.2090 ca        1 XNB      0.900900
     13 N13         8.4150   -0.9130    2.3560 nb        1 XNB     -0.780000
     14 C14         8.1630   -0.3820    1.1250 ca        1 XNB      0.226000
     15 C15         9.2530   -0.2360    0.1230 ca        1 XNB      0.643900
     16 N16         8.9800    0.2490   -1.1130 nb        1 XNB     -0.779000
     17 C17         7.6830    0.6160   -1.3670 ca        1 XNB      0.657900
     18 N18         6.6300    0.5580   -0.5530 nb        1 XNB     -0.715000
     19 C19         6.8730    0.0570    0.7060 ca        1 XNB      0.149000
     20 N20        10.5430   -0.5580    0.4830 nu        1 XNB     -0.849900
     21 C21        11.6190   -0.5800   -0.4770 c3        1 XNB      0.242800
     22 C22        12.9290   -1.0020    0.1390 cx        1 XNB     -0.150700
     23 C23        13.9350   -1.6930   -0.7410 cx        1 XNB     -0.126400
     24 C24        13.2270   -2.4660    0.3300 cx        1 XNB     -0.126400
     25 N25         7.5530   -1.7250    4.4410 nh        1 XNB     -0.719300
     26 C26         8.9220   -1.7790    4.9350 c3        1 XNB      0.197300
     27 C27         9.0850   -2.6770    6.1780 c3        1 XNB      0.153800
     28 N28         8.1080   -2.3990    7.2100 n7        1 XNB     -0.819200
     29 C29         6.7520   -2.4310    6.7050 c3        1 XNB      0.153800
     30 C30         6.5440   -1.5270    5.4730 c3        1 XNB      0.197300
     31 H01         0.5550   -0.8410   -1.5500 h1        1 XNB      0.070700
     32 H01A       -0.0580   -1.5190    0.0150 h1        1 XNB      0.070700
     33 H01B        0.0060    0.2720   -0.2250 h1        1 XNB      0.070700
     34 H04         0.0970   -0.5590    2.0680 ha        1 XNB      0.132000
     35 H05         0.1790    0.1770    4.4310 ha        1 XNB      0.134000
     36 H06         2.3270    0.9990    5.4100 ha        1 XNB      0.135000
     37 H07         4.3730    1.1050    4.0270 ha        1 XNB      0.153000
     38 HN09        4.3570    0.5980    0.4360 hn        1 XNB      0.475800
     39 H17         7.5070    1.0110   -2.3910 h5        1 XNB      0.051100
     40 HN20       10.6800   -1.0510    1.3370 hn        1 XNB      0.456800
     41 H21        11.7370    0.4570   -0.9100 h1        1 XNB      0.056700
     42 H21A       11.3600   -1.2740   -1.3310 h1        1 XNB      0.056700
     43 H22        13.3010   -0.2890    0.9010 hc        1 XNB      0.088700
     44 H23        15.0050   -1.4500   -0.6130 hc        1 XNB      0.074200
     45 H23A       13.6810   -1.8850   -1.7990 hc        1 XNB      0.074200
     46 H24        13.7870   -2.7830    1.2270 hc        1 XNB      0.074200
     47 H24A       12.4630   -3.2090    0.0370 hc        1 XNB      0.074200
     48 H26         9.5840   -2.2150    4.1330 h1        1 XNB      0.058450
     49 H26A        9.2970   -0.7440    5.1800 h1        1 XNB      0.058450
     50 H27         9.0560   -3.7550    5.8430 h1        1 XNB      0.037700
     51 H27A       10.1060   -2.4770    6.6080 h1        1 XNB      0.037700
     52 HN28        8.2110   -3.0460    7.9690 hn        1 XNB      0.365800
     53 H29         6.0710   -2.0530    7.5190 h1        1 XNB      0.037700
     54 H29A        6.4210   -3.4780    6.4360 h1        1 XNB      0.037700
     55 H30         6.5260   -0.4510    5.8100 h1        1 XNB      0.058450
     56 H30A        5.5320   -1.7840    5.0490 h1        1 XNB      0.058450
@<TRIPOS>BOND
     1    1    2 1   
     2    1   31 1   
     3    1   32 1   
     4    1   33 1   
     5    2    3 1   
     6    3    4 ar  
     7    3    8 ar  
     8    4    5 ar  
     9    4   34 1   
    10    5    6 ar  
    11    5   35 1   
    12    6    7 ar  
    13    6   36 1   
    14    7    8 ar  
    15    7   37 1   
    16    8    9 1   
    17    9   10 1   
    18    9   38 1   
    19   10   11 ar  
    20   10   19 ar  
    21   11   12 ar  
    22   12   13 ar  
    23   12   25 1   
    24   13   14 ar  
    25   14   15 ar  
    26   14   19 ar  
    27   15   16 ar  
    28   15   20 1   
    29   16   17 ar  
    30   17   18 ar  
    31   17   39 1   
    32   18   19 ar  
    33   20   21 1   
    34   20   40 1   
    35   21   22 1   
    36   21   41 1   
    37   21   42 1   
    38   22   23 1   
    39   22   24 1   
    40   22   43 1   
    41   23   24 1   
    42   23   44 1   
    43   23   45 1   
    44   24   46 1   
    45   24   47 1   
    46   25   26 1   
    47   25   30 1   
    48   26   27 1   
    49   26   48 1   
    50   26   49 1   
    51   27   28 1   
    52   27   50 1   
    53   27   51 1   
    54   28   29 1   
    55   28   52 1   
    56   29   30 1   
    57   29   53 1   
    58   29   54 1   
    59   30   55 1   
    60   30   56 1   
@<TRIPOS>SUBSTRUCTURE
     1 XNB         1 TEMP              0 ****  ****    0 ROOT
