@<TRIPOS>MOLECULE
XNB
   56    60     1     0     0
SMALL
bcc


@<TRIPOS>ATOM
      1 C01         0.5290   -0.7130   -0.4590 c3        1 XNB     -0.063000
      2 S02         2.2020   -0.7040    0.0530 ss        1 XNB     -0.182000
      3 C03         2.1870   -0.1780    1.6720 ca        1 XNB     -0.037100
      4 C04         1.0450   -0.2160    2.4740 ca        1 XNB     -0.125000
      5 C05         1.0820    0.1950    3.8030 ca        1 XNB     -0.129000
      6 C06         2.2770    0.6560    4.3500 ca        1 XNB     -0.124000
      7 C07         3.4300    0.7160    3.5740 ca        1 XNB     -0.109000
      8 C08         3.4070    0.3010    2.2270 ca        1 XNB      0.158600
      9 N09         4.5430    0.4260    1.4020 nh        1 XNB     -0.727300
     10 C10         5.8030   -0.0660    1.7160 ca        1 XNB      0.680900
     11 N11         6.0510   -0.6010    2.9270 nb        1 XNB     -0.799000
     12 C12         7.3530   -1.0350    3.2100 ca        1 XNB      0.900900
     13 N13         8.4150   -0.9080    2.3590 nb        1 XNB     -0.780000
     14 C14         8.1640   -0.3780    1.1280 ca        1 XNB      0.226000
     15 C15         9.2560   -0.2270    0.1280 ca        1 XNB      0.643900
     16 N16         8.9840    0.2570   -1.1080 nb        1 XNB     -0.779000
     17 C17         7.6860    0.6200   -1.3660 ca        1 XNB      0.657900
     18 N18         6.6310    0.5580   -0.5530 nb        1 XNB     -0.715000
     19 C19         6.8730    0.0570    0.7060 ca        1 XNB      0.149000
     20 N20        10.5460   -0.5450    0.4910 nh        1 XNB     -0.849900
     21 C21        11.6240   -0.5620   -0.4670 c3        1 XNB      0.242800
     22 C22        12.9340   -0.9810    0.1520 cx        1 XNB     -0.150700
     23 C23        13.9450   -1.6680   -0.7270 cx        1 XNB     -0.126400
     24 C24        13.2360   -2.4440    0.3410 cx        1 XNB     -0.126400
     25 N25         7.5510   -1.7240    4.4420 nh        1 XNB     -0.719300
     26 C26         8.9190   -1.7720    4.9390 c3        1 XNB      0.197300
     27 C27         9.0830   -2.6700    6.1830 c3        1 XNB      0.153800
     28 N28         8.1020   -2.3970    7.2120 n3        1 XNB     -0.819200
     29 C29         6.7470   -2.4350    6.7030 c3        1 XNB      0.153800
     30 C30         6.5390   -1.5310    5.4710 c3        1 XNB      0.197300
     31 H01         0.5630   -0.8650   -1.5640 h1        1 XNB      0.070700
     32 H01A       -0.0510   -1.5450   -0.0000 h1        1 XNB      0.070700
     33 H01B        0.0070    0.2460   -0.2410 h1        1 XNB      0.070700
     34 H04         0.0970   -0.5850    2.0530 ha        1 XNB      0.132000
     35 H05         0.1710    0.1520    4.4170 ha        1 XNB      0.134000
     36 H06         2.3140    0.9820    5.4010 ha        1 XNB      0.135000
     37 H07         4.3620    1.0960    4.0210 ha        1 XNB      0.153000
     38 HN09        4.3560    0.5880    0.4300 hn        1 XNB      0.475800
     39 H17         7.5110    1.0140   -2.3890 h5        1 XNB      0.051100
     40 HN20       10.6820   -1.0380    1.3450 hn        1 XNB      0.456800
     41 H21        11.3690   -1.2560   -1.3220 h1        1 XNB      0.056700
     42 H21A       11.7400    0.4750   -0.8980 h1        1 XNB      0.056700
     43 H22        13.3020   -0.2680    0.9160 hc        1 XNB      0.088700
     44 H23        15.0130   -1.4200   -0.5960 hc        1 XNB      0.074200
     45 H23A       13.6930   -1.8580   -1.7860 hc        1 XNB      0.074200
     46 H24        13.7960   -2.7600    1.2390 hc        1 XNB      0.074200
     47 H24A       12.4760   -3.1900    0.0460 hc        1 XNB      0.074200
     48 H26         9.5850   -2.2050    4.1390 h1        1 XNB      0.058450
     49 H26A        9.2890   -0.7360    5.1860 h1        1 XNB      0.058450
     50 H27         9.0600   -3.7480    5.8470 h1        1 XNB      0.037700
     51 H27A       10.1020   -2.4650    6.6150 h1        1 XNB      0.037700
     52 HN28        8.2060   -3.0440    7.9710 hn        1 XNB      0.365800
     53 H29         6.0630   -2.0600    7.5160 h1        1 XNB      0.037700
     54 H29A        6.4220   -3.4820    6.4330 h1        1 XNB      0.037700
     55 H30         5.5290   -1.7920    5.0450 h1        1 XNB      0.058450
     56 H30A        6.5150   -0.4550    5.8080 h1        1 XNB      0.058450
@<TRIPOS>BOND
     1    1    2 1   
     2    1   31 1   
     3    1   32 1   
     4    1   33 1   
     5    2    3 1   
     6    3    4 ar  
     7    3    8 ar  
     8    4    5 ar  
     9    4   34 1   
    10    5    6 ar  
    11    5   35 1   
    12    6    7 ar  
    13    6   36 1   
    14    7    8 ar  
    15    7   37 1   
    16    8    9 1   
    17    9   10 1   
    18    9   38 1   
    19   10   11 ar  
    20   10   19 ar  
    21   11   12 ar  
    22   12   13 ar  
    23   12   25 1   
    24   13   14 ar  
    25   14   15 ar  
    26   14   19 ar  
    27   15   16 ar  
    28   15   20 1   
    29   16   17 ar  
    30   17   18 ar  
    31   17   39 1   
    32   18   19 ar  
    33   20   21 1   
    34   20   40 1   
    35   21   22 1   
    36   21   41 1   
    37   21   42 1   
    38   22   23 1   
    39   22   24 1   
    40   22   43 1   
    41   23   24 1   
    42   23   44 1   
    43   23   45 1   
    44   24   46 1   
    45   24   47 1   
    46   25   26 1   
    47   25   30 1   
    48   26   27 1   
    49   26   48 1   
    50   26   49 1   
    51   27   28 1   
    52   27   50 1   
    53   27   51 1   
    54   28   29 1   
    55   28   52 1   
    56   29   30 1   
    57   29   53 1   
    58   29   54 1   
    59   30   55 1   
    60   30   56 1   
@<TRIPOS>SUBSTRUCTURE
     1 XNB         1 TEMP              0 ****  ****    0 ROOT
