@<TRIPOS>MOLECULE
XNB
   56    60     1     0     0
SMALL
bcc


@<TRIPOS>ATOM
      1 C01         5.6090   -3.2300   -1.4030 c3        1 XNB     -0.063000
      2 S02         4.0590   -2.5050   -1.0370 ss        1 XNB     -0.182000
      3 C03         4.4080   -1.0670   -0.1970 ca        1 XNB     -0.037100
      4 C04         5.6570   -0.4430   -0.2410 ca        1 XNB     -0.125000
      5 C05         5.8920    0.7500    0.4350 ca        1 XNB     -0.129000
      6 C06         4.8690    1.3390    1.1740 ca        1 XNB     -0.124000
      7 C07         3.6160    0.7370    1.2450 ca        1 XNB     -0.109000
      8 C08         3.3640   -0.4700    0.5640 ca        1 XNB      0.158600
      9 N09         2.1270   -1.1360    0.6860 nh        1 XNB     -0.727300
     10 C10         0.8890   -0.5460    0.4650 ca        1 XNB      0.680900
     11 N11         0.7880    0.7770    0.2340 nb        1 XNB     -0.799000
     12 C12        -0.4880    1.3290    0.0690 ca        1 XNB      0.900900
     13 N13        -1.6570    0.6280    0.1760 nb        1 XNB     -0.780000
     14 C14        -1.5570   -0.7140    0.3980 ca        1 XNB      0.226000
     15 C15        -2.7770   -1.5600    0.5030 ca        1 XNB      0.643900
     16 N16        -2.6630   -2.9000    0.6760 nb        1 XNB     -0.779000
     17 C17        -1.3930   -3.4110    0.7780 ca        1 XNB      0.657900
     18 N18        -0.2310   -2.7600    0.7260 nb        1 XNB     -0.715000
     19 C19        -0.3140   -1.3990    0.5370 ca        1 XNB      0.149000
     20 N20        -4.0150   -0.9590    0.4640 nh        1 XNB     -0.849900
     21 C21        -5.2340   -1.7280    0.4130 c3        1 XNB      0.242800
     22 C22        -6.4610   -0.8550    0.3340 cx        1 XNB     -0.150700
     23 C23        -7.6780   -1.4060   -0.3590 cx        1 XNB     -0.126400
     24 C24        -6.8950   -0.2990   -0.9970 cx        1 XNB     -0.126400
     25 N25        -0.5550    2.7000   -0.3150 nh        1 XNB     -0.719300
     26 C26        -1.8160    3.3800   -0.0540 c3        1 XNB      0.197300
     27 C27        -1.8710    4.8060   -0.6420 c3        1 XNB      0.153800
     28 N28        -0.7060    5.5990   -0.3140 n3        1 XNB     -0.819200
     29 C29         0.5300    4.9290   -0.6590 c3        1 XNB      0.153800
     30 C30         0.6320    3.5070   -0.0690 c3        1 XNB      0.197300
     31 H01         5.3720   -4.2550   -1.7730 h1        1 XNB      0.070700
     32 H01A        6.1560   -2.6790   -2.2010 h1        1 XNB      0.070700
     33 H01B        6.2690   -3.3090   -0.5100 h1        1 XNB      0.070700
     34 H04         6.4710   -0.8970   -0.8270 ha        1 XNB      0.132000
     35 H05         6.8830    1.2240    0.3830 ha        1 XNB      0.134000
     36 H06         5.0480    2.2820    1.7110 ha        1 XNB      0.135000
     37 H07         2.8240    1.2120    1.8450 ha        1 XNB      0.153000
     38 HN09        2.1650   -2.1360    0.6150 hn        1 XNB      0.475800
     39 H17        -1.3480   -4.5110    0.9230 h5        1 XNB      0.051100
     40 HN20       -4.0620   -0.0050    0.1840 hn        1 XNB      0.456800
     41 H21        -5.2090   -2.4310   -0.4720 h1        1 XNB      0.056700
     42 H21A       -5.2990   -2.3640    1.3450 h1        1 XNB      0.056700
     43 H22        -6.6080   -0.2290    1.2360 hc        1 XNB      0.088700
     44 H23        -7.6330   -2.4190   -0.7990 hc        1 XNB      0.074200
     45 H23A       -8.6730   -1.1880    0.0690 hc        1 XNB      0.074200
     46 H24        -7.3290    0.7160   -1.0340 hc        1 XNB      0.074200
     47 H24A       -6.2890   -0.5200   -1.8930 hc        1 XNB      0.074200
     48 H26        -2.6530    2.8000   -0.5360 h1        1 XNB      0.058450
     49 H26A       -2.0160    3.4350    1.0550 h1        1 XNB      0.058450
     50 H27        -2.0310    4.7220   -1.7580 h1        1 XNB      0.037700
     51 H27A       -2.7720    5.3170   -0.2020 h1        1 XNB      0.037700
     52 HN28       -0.7550    6.4920   -0.7690 hn        1 XNB      0.365800
     53 H29         0.6810    4.8610   -1.7770 h1        1 XNB      0.037700
     54 H29A        1.3800    5.5320   -0.2330 h1        1 XNB      0.037700
     55 H30         0.8370    3.5860    1.0370 h1        1 XNB      0.058450
     56 H30A        1.5180    3.0150   -0.5610 h1        1 XNB      0.058450
@<TRIPOS>BOND
     1    1    2 1   
     2    1   31 1   
     3    1   32 1   
     4    1   33 1   
     5    2    3 1   
     6    3    4 ar  
     7    3    8 ar  
     8    4    5 ar  
     9    4   34 1   
    10    5    6 ar  
    11    5   35 1   
    12    6    7 ar  
    13    6   36 1   
    14    7    8 ar  
    15    7   37 1   
    16    8    9 1   
    17    9   10 1   
    18    9   38 1   
    19   10   11 ar  
    20   10   19 ar  
    21   11   12 ar  
    22   12   13 ar  
    23   12   25 1   
    24   13   14 ar  
    25   14   15 ar  
    26   14   19 ar  
    27   15   16 ar  
    28   15   20 1   
    29   16   17 ar  
    30   17   18 ar  
    31   17   39 1   
    32   18   19 ar  
    33   20   21 1   
    34   20   40 1   
    35   21   22 1   
    36   21   41 1   
    37   21   42 1   
    38   22   23 1   
    39   22   24 1   
    40   22   43 1   
    41   23   24 1   
    42   23   44 1   
    43   23   45 1   
    44   24   46 1   
    45   24   47 1   
    46   25   26 1   
    47   25   30 1   
    48   26   27 1   
    49   26   48 1   
    50   26   49 1   
    51   27   28 1   
    52   27   50 1   
    53   27   51 1   
    54   28   29 1   
    55   28   52 1   
    56   29   30 1   
    57   29   53 1   
    58   29   54 1   
    59   30   55 1   
    60   30   56 1   
@<TRIPOS>SUBSTRUCTURE
     1 XNB         1 TEMP              0 ****  ****    0 ROOT
