@<TRIPOS>MOLECULE
XNB
   58    62     1     0     0
SMALL
bcc


@<TRIPOS>ATOM
      1 C01         1.2180   -2.0410    0.2930 c3        1 XNB     -0.039000
      2 S02         2.7860   -1.3810    0.7380 ss        1 XNB     -0.214000
      3 C03         2.5170   -0.2850    2.0030 ca        1 XNB      0.027900
      4 C04         1.4090   -0.3370    2.8590 ca        1 XNB     -0.118000
      5 C05         1.2600    0.5740    3.9010 ca        1 XNB     -0.049000
      6 C06         2.2250    1.5620    4.1170 ca        1 XNB     -0.109000
      7 C07         3.3330    1.6500    3.2820 ca        1 XNB     -0.081000
      8 C08         3.4670    0.7390    2.2190 ca        1 XNB     -0.058400
      9 N09         4.5800    0.8910    1.2760 n4        1 XNB     -0.622100
     10 C10         5.8770    0.2790    1.6770 ca        1 XNB      0.559900
     11 N11         5.9940   -0.3170    2.8430 nb        1 XNB     -0.663000
     12 C12         7.2590   -0.9020    3.1830 ca        1 XNB      0.944900
     13 N13         8.3660   -0.8260    2.3440 nb        1 XNB     -0.801000
     14 C14         8.2060   -0.2020    1.1580 ca        1 XNB      0.302000
     15 C15         9.3090   -0.0710    0.1930 ca        1 XNB      0.443900
     16 N16         9.1630    0.5450   -0.9780 nb        1 XNB     -0.605000
     17 C17         7.9180    1.0740   -1.2700 ca        1 XNB      0.651900
     18 N18         6.8360    1.0310   -0.4900 nb        1 XNB     -0.628000
     19 C19         6.9730    0.4000    0.7150 ca        1 XNB      0.105000
     20 N20        10.6110   -0.6550    0.5730 n4        1 XNB     -0.746700
     21 C21        11.7250   -0.4800   -0.4280 c3        1 XNB      0.157800
     22 C22        12.9790   -1.1200    0.0820 cx        1 XNB     -0.230700
     23 C23        13.9030   -1.7560   -0.9340 cx        1 XNB     -0.094400
     24 C24        13.1420   -2.6200    0.0180 cx        1 XNB     -0.094400
     25 N25         7.3460   -1.5780    4.3720 nh        1 XNB     -0.659300
     26 C26         8.6490   -2.0600    4.8250 c3        1 XNB      0.196300
     27 C27         8.5930   -3.0870    5.9760 c3        1 XNB      0.154800
     28 N28         7.6420   -2.7100    6.9950 n3        1 XNB     -0.826200
     29 C29         6.3110   -2.5840    6.4500 c3        1 XNB      0.154800
     30 C30         6.2410   -1.5260    5.3280 c3        1 XNB      0.196300
     31 H01         0.4600   -1.2500    0.0960 h1        1 XNB      0.098700
     32 H01A        1.4120   -2.6110   -0.6490 h1        1 XNB      0.098700
     33 H01B        0.8270   -2.7410    1.0660 h1        1 XNB      0.098700
     34 H04         0.6420   -1.1160    2.7020 ha        1 XNB      0.171000
     35 H05         0.3770    0.5130    4.5610 ha        1 XNB      0.179000
     36 H06         2.1070    2.2800    4.9470 ha        1 XNB      0.178000
     37 H07         4.0860    2.4360    3.4590 ha        1 XNB      0.155000
     38 HN09        4.7520    1.8980    1.1270 hn        1 XNB      0.490300
     39 H17         7.8400    1.5820   -2.2610 h5        1 XNB      0.116100
     40 HN20       10.4690   -1.6640    0.7350 hn        1 XNB      0.471800
     41 H21        11.3950   -0.9460   -1.4010 hx        1 XNB      0.120700
     42 H21A       11.8820    0.6260   -0.5880 hx        1 XNB      0.120700
     43 H22        13.4460   -0.5720    0.9260 hc        1 XNB      0.111700
     44 H23        14.9940   -1.6210   -0.7960 hc        1 XNB      0.098450
     45 H23A       13.6200   -1.7440   -2.0030 hc        1 XNB      0.098450
     46 H24        12.3120   -3.2380   -0.3700 hc        1 XNB      0.098450
     47 H24A       13.6840   -3.1270    0.8390 hc        1 XNB      0.098450
     48 H26         9.1810   -2.5630    3.9690 h1        1 XNB      0.077950
     49 H26A        9.2520   -1.1660    5.1580 h1        1 XNB      0.077950
     50 H27         8.3760   -4.1040    5.5320 h1        1 XNB      0.063950
     51 H27A        9.6200   -3.1210    6.4400 h1        1 XNB      0.063950
     52 HN28        7.6670   -3.3350    7.7790 hn        1 XNB      0.409800
     53 H29         5.6200   -2.2400    7.2710 h1        1 XNB      0.063950
     54 H29A        5.9130   -3.5590    6.0420 h1        1 XNB      0.063950
     55 H30         6.2350   -0.4970    5.7930 h1        1 XNB      0.077950
     56 H30A        5.2650   -1.6910    4.7900 h1        1 XNB      0.077950
     57 H092        4.3000    0.4530    0.3700 hn        1 XNB      0.490300
     58 H202       10.8960   -0.2270    1.4670 hn        1 XNB      0.471800
@<TRIPOS>BOND
     1    1    2 1   
     2    1   31 1   
     3    1   32 1   
     4    1   33 1   
     5    2    3 1   
     6    3    4 ar  
     7    3    8 ar  
     8    4    5 ar  
     9    4   34 1   
    10    5    6 ar  
    11    5   35 1   
    12    6    7 ar  
    13    6   36 1   
    14    7    8 ar  
    15    7   37 1   
    16    8    9 1   
    17    9   10 1   
    18    9   38 1   
    19    9   57 1   
    20   10   11 ar  
    21   10   19 ar  
    22   11   12 ar  
    23   12   13 ar  
    24   12   25 1   
    25   13   14 ar  
    26   14   15 ar  
    27   14   19 ar  
    28   15   16 ar  
    29   15   20 1   
    30   16   17 ar  
    31   17   18 ar  
    32   17   39 1   
    33   18   19 ar  
    34   20   21 1   
    35   20   40 1   
    36   20   58 1   
    37   21   22 1   
    38   21   41 1   
    39   21   42 1   
    40   22   23 1   
    41   22   24 1   
    42   22   43 1   
    43   23   24 1   
    44   23   44 1   
    45   23   45 1   
    46   24   46 1   
    47   24   47 1   
    48   25   26 1   
    49   25   30 1   
    50   26   27 1   
    51   26   48 1   
    52   26   49 1   
    53   27   28 1   
    54   27   50 1   
    55   27   51 1   
    56   28   29 1   
    57   28   52 1   
    58   29   30 1   
    59   29   53 1   
    60   29   54 1   
    61   30   55 1   
    62   30   56 1   
@<TRIPOS>SUBSTRUCTURE
     1 XNB         1 TEMP              0 ****  ****    0 ROOT
