@<TRIPOS>MOLECULE
XNC
   76    81     1     0     0
SMALL
bcc


@<TRIPOS>ATOM
      1 O35        -0.0540   -0.3840   -0.4470 o         1 XNC     -0.568100
      2 C16         1.1690   -0.1960   -0.3330 c         1 XNC      0.587600
      3 C17         1.8190   -0.3100    1.0240 ca        1 XNC      0.373800
      4 C43         1.3290    0.5290    2.0460 ca        1 XNC     -0.208300
      5 C42         1.8770    0.3980    3.3220 ca        1 XNC     -0.095000
      6 C41         2.8710   -0.5540    3.5370 ca        1 XNC     -0.234300
      7 C40         3.2970   -1.3630    2.4580 ca        1 XNC      0.409600
      8 C44         4.3490   -2.3970    2.7010 c3        1 XNC     -0.148400
      9 N39         2.7800   -1.2400    1.2100 nb        1 XNC     -0.647000
     10 N7          1.9540    0.1780   -1.4200 n         1 XNC     -0.375000
     11 C4          3.3620    0.2730   -1.3270 ca        1 XNC      0.081600
     12 C3          3.9500    1.3550   -0.6380 ca        1 XNC     -0.135000
     13 C2          5.3290    1.4900   -0.5610 ca        1 XNC     -0.098000
     14 C8          1.3730    0.2030   -2.7640 c3        1 XNC      0.247200
     15 C9          1.4820   -1.1110   -3.4830 ce        1 XNC     -0.580300
     16 S12         0.2070   -1.5280   -4.4450 sy        1 XNC      1.403900
     17 O32         0.6110   -1.6580   -5.7880 o         1 XNC     -0.664800
     18 O33        -0.9270   -0.7320   -4.2290 o         1 XNC     -0.664800
     19 C13        -0.1130   -3.1030   -3.8220 c3        1 XNC     -0.304600
     20 C14         1.0850   -4.0360   -3.6940 c3        1 XNC      0.009000
     21 C37         1.1840   -4.5730   -2.2730 c3        1 XNC     -0.094600
     22 C38         0.9320   -5.2110   -4.6550 c3        1 XNC     -0.094600
     23 C15         2.3920   -3.3140   -4.0570 c3        1 XNC     -0.114200
     24 C10         2.5360   -1.9830   -3.3340 c2        1 XNC      0.322800
     25 N11         3.6950   -1.8220   -2.6330 nh        1 XNC     -0.591400
     26 C5          4.1930   -0.6900   -1.9670 ca        1 XNC      0.116600
     27 C6          5.6050   -0.5120   -1.8730 ca        1 XNC      0.096100
     28 O36         6.3980   -1.4610   -2.4910 oh        1 XNC     -0.516100
     29 C1          6.1630    0.5600   -1.1760 ca        1 XNC     -0.192000
     30 C18         1.9030    1.3570   -3.5840 ca        1 XNC     -0.166300
     31 C23         1.5390    2.6800   -3.2310 ca        1 XNC      0.178900
     32 F34         0.7580    2.9110   -2.1500 f         1 XNC     -0.131900
     33 C22         1.9720    3.7750   -3.9940 ca        1 XNC     -0.205000
     34 C21         2.7760    3.5420   -5.1210 ca        1 XNC      0.159100
     35 C20         3.1390    2.2400   -5.4850 ca        1 XNC     -0.221000
     36 C19         2.6990    1.1680   -4.7130 ca        1 XNC     -0.047000
     37 O24         3.1680    4.6850   -5.7880 os        1 XNC     -0.325900
     38 C25         3.8180    4.4710   -7.0520 c3        1 XNC      0.174700
     39 C26         4.0450    5.8050   -7.6800 ca        1 XNC     -0.095300
     40 C31         4.2570    6.9480   -6.9030 ca        1 XNC     -0.111500
     41 C30         4.4990    8.1760   -7.5190 ca        1 XNC     -0.131000
     42 C29         4.5360    8.2660   -8.9100 ca        1 XNC     -0.125000
     43 C28         4.3240    7.1260   -9.6870 ca        1 XNC     -0.131000
     44 C27         4.0760    5.8990   -9.0760 ca        1 XNC     -0.111500
     45 H43         0.5260    1.2490    1.8320 ha        1 XNC      0.163000
     46 H42         1.5240    1.0340    4.1470 ha        1 XNC      0.144000
     47 H41         3.3190   -0.6840    4.5320 ha        1 XNC      0.145000
     48 H44         5.1910   -2.2860    1.9740 hc        1 XNC      0.054033
     49 H44A        3.9150   -3.4210    2.5820 hc        1 XNC      0.054033
     50 H44B        4.7550   -2.2980    3.7370 hc        1 XNC      0.054033
     51 H3          3.3020    2.1040   -0.1560 ha        1 XNC      0.153000
     52 H2          5.7670    2.3390   -0.0150 ha        1 XNC      0.142000
     53 H8          0.2560    0.4120   -2.6050 h1        1 XNC      0.125700
     54 H13        -0.8880   -3.5930   -4.4720 h1        1 XNC      0.117700
     55 H13A       -0.6080   -3.0020   -2.8170 h1        1 XNC      0.117700
     56 H37         0.2360   -5.0950   -1.9950 hc        1 XNC      0.043533
     57 H37A        1.3570   -3.7400   -1.5500 hc        1 XNC      0.043533
     58 H37B        2.0260   -5.3010   -2.1910 hc        1 XNC      0.043533
     59 H38         0.0220   -5.8020   -4.3900 hc        1 XNC      0.043533
     60 H38A        1.8220   -5.8820   -4.5910 hc        1 XNC      0.043533
     61 H38B        0.8310   -4.8460   -5.7050 hc        1 XNC      0.043533
     62 H15         3.2440   -4.0130   -3.8430 hc        1 XNC      0.088200
     63 H15A        2.4090   -3.1000   -5.1640 hc        1 XNC      0.088200
     64 HN11        4.3600   -2.5690   -2.6970 hn        1 XNC      0.455800
     65 HO36        7.3230   -1.2240   -2.3320 ho        1 XNC      0.431000
     66 H1          7.2550    0.6680   -1.1210 ha        1 XNC      0.139000
     67 H22         1.6830    4.7990   -3.7200 ha        1 XNC      0.164000
     68 H20         3.7600    2.0480   -6.3710 ha        1 XNC      0.142000
     69 H19         2.9780    0.1440   -5.0140 ha        1 XNC      0.149000
     70 H25         3.1690    3.8240   -7.7010 h1        1 XNC      0.051200
     71 H25A        4.8030    3.9580   -6.8700 h1        1 XNC      0.051200
     72 H31         4.2190    6.8730   -5.8050 ha        1 XNC      0.139500
     73 H30         4.6600    9.0730   -6.9040 ha        1 XNC      0.133000
     74 H29         4.7290    9.2340   -9.3950 ha        1 XNC      0.132000
     75 H28         4.3500    7.1960  -10.7840 ha        1 XNC      0.133000
     76 H27         3.9000    5.0040   -9.6920 ha        1 XNC      0.139500
@<TRIPOS>BOND
     1    1    2 2   
     2    2    3 1   
     3    2   10 1   
     4    3    4 ar  
     5    3    9 ar  
     6    4    5 ar  
     7    4   45 1   
     8    5    6 ar  
     9    5   46 1   
    10    6    7 ar  
    11    6   47 1   
    12    7    8 1   
    13    7    9 ar  
    14    8   48 1   
    15    8   49 1   
    16    8   50 1   
    17   10   11 1   
    18   10   14 1   
    19   11   12 ar  
    20   11   26 ar  
    21   12   13 ar  
    22   12   51 1   
    23   13   29 ar  
    24   13   52 1   
    25   14   15 1   
    26   14   30 1   
    27   14   53 1   
    28   15   16 1   
    29   15   24 2   
    30   16   17 2   
    31   16   18 2   
    32   16   19 1   
    33   19   20 1   
    34   19   54 1   
    35   19   55 1   
    36   20   21 1   
    37   20   22 1   
    38   20   23 1   
    39   21   56 1   
    40   21   57 1   
    41   21   58 1   
    42   22   59 1   
    43   22   60 1   
    44   22   61 1   
    45   23   24 1   
    46   23   62 1   
    47   23   63 1   
    48   24   25 1   
    49   25   26 1   
    50   25   64 1   
    51   26   27 ar  
    52   27   28 1   
    53   27   29 ar  
    54   28   65 1   
    55   29   66 1   
    56   30   31 ar  
    57   30   36 ar  
    58   31   32 1   
    59   31   33 ar  
    60   33   34 ar  
    61   33   67 1   
    62   34   35 ar  
    63   34   37 1   
    64   35   36 ar  
    65   35   68 1   
    66   36   69 1   
    67   37   38 1   
    68   38   39 1   
    69   38   70 1   
    70   38   71 1   
    71   39   40 ar  
    72   39   44 ar  
    73   40   41 ar  
    74   40   72 1   
    75   41   42 ar  
    76   41   73 1   
    77   42   43 ar  
    78   42   74 1   
    79   43   44 ar  
    80   43   75 1   
    81   44   76 1   
@<TRIPOS>SUBSTRUCTURE
     1 XNC         1 TEMP              0 ****  ****    0 ROOT
