@<TRIPOS>MOLECULE
XNC
   76    81     1     0     0
SMALL
bcc


@<TRIPOS>ATOM
      1 O35         2.8260   -0.1050    2.4200 o         1 XNC     -0.568100
      2 C16         2.6080    0.6270    1.4390 c         1 XNC      0.587600
      3 C17         3.5610    1.7540    1.1220 ca        1 XNC      0.373800
      4 C43         3.7750    2.7190    2.1270 ca        1 XNC     -0.208300
      5 C42         4.6960    3.7360    1.8750 ca        1 XNC     -0.095000
      6 C41         5.3690    3.7530    0.6540 ca        1 XNC     -0.234300
      7 C40         5.1010    2.7390   -0.2940 ca        1 XNC      0.409600
      8 C44         5.8420    2.7510   -1.5930 c3        1 XNC     -0.148400
      9 N39         4.2010    1.7500   -0.0670 nb        1 XNC     -0.647000
     10 N7          1.4690    0.4740    0.6530 n         1 XNC     -0.375000
     11 C4          1.2750    1.2190   -0.5340 ca        1 XNC      0.081600
     12 C3          0.9350    2.5870   -0.4580 ca        1 XNC     -0.135000
     13 C2          0.7070    3.3320   -1.6060 ca        1 XNC     -0.098000
     14 C8          0.5790   -0.6660    0.8760 c3        1 XNC      0.247200
     15 C9          0.9600   -1.8830    0.0830 ce        1 XNC     -0.580300
     16 S12         0.7420   -3.3410    0.8250 sy        1 XNC      1.403900
     17 O32        -0.1770   -4.1360    0.1130 o         1 XNC     -0.664800
     18 O33         0.5030   -3.2250    2.2010 o         1 XNC     -0.664800
     19 C13         2.3170   -4.0070    0.6060 c3        1 XNC     -0.304600
     20 C14         2.8850   -3.9470   -0.8070 c3        1 XNC      0.009000
     21 C37         4.2520   -3.2750   -0.7950 c3        1 XNC     -0.094600
     22 C38         3.0360   -5.3590   -1.3660 c3        1 XNC     -0.094600
     23 C15         1.9490   -3.1770   -1.7500 c3        1 XNC     -0.114200
     24 C10         1.5220   -1.8360   -1.1730 c2        1 XNC      0.322800
     25 N11         1.7480   -0.7560   -1.9760 nh        1 XNC     -0.591400
     26 C5          1.3710    0.5870   -1.8050 ca        1 XNC      0.116600
     27 C6          1.1190    1.3820   -2.9610 ca        1 XNC      0.096100
     28 O36         1.2260    0.7560   -4.1890 oh        1 XNC     -0.516100
     29 C1          0.7960    2.7360   -2.8610 ca        1 XNC     -0.192000
     30 C18        -0.8750   -0.2890    0.6940 ca        1 XNC     -0.166300
     31 C23        -1.4870    0.5760    1.6340 ca        1 XNC      0.178900
     32 F34        -0.7710    1.0880    2.6620 f         1 XNC     -0.131900
     33 C22        -2.8440    0.9130    1.5260 ca        1 XNC     -0.205000
     34 C21        -3.5950    0.3780    0.4660 ca        1 XNC      0.159100
     35 C20        -3.0050   -0.4820   -0.4670 ca        1 XNC     -0.221000
     36 C19        -1.6550   -0.8020   -0.3410 ca        1 XNC     -0.047000
     37 O24        -4.9120    0.7890    0.4360 os        1 XNC     -0.325900
     38 C25        -5.7500    0.1080   -0.5120 c3        1 XNC      0.174700
     39 C26        -7.1490    0.5890   -0.3120 ca        1 XNC     -0.095300
     40 C31        -7.4160    1.8830    0.1450 ca        1 XNC     -0.111500
     41 C30        -8.7340    2.3140    0.2900 ca        1 XNC     -0.131000
     42 C29        -9.7890    1.4580   -0.0230 ca        1 XNC     -0.125000
     43 C28        -9.5250    0.1650   -0.4770 ca        1 XNC     -0.131000
     44 C27        -8.2100   -0.2720   -0.6190 ca        1 XNC     -0.111500
     45 H43         3.2370    2.6490    3.0830 ha        1 XNC      0.163000
     46 H42         4.8920    4.5090    2.6320 ha        1 XNC      0.144000
     47 H41         6.1030    4.5380    0.4280 ha        1 XNC      0.145000
     48 H44         6.5380    1.8770   -1.6440 hc        1 XNC      0.054033
     49 H44A        5.1350    2.6880   -2.4560 hc        1 XNC      0.054033
     50 H44B        6.4390    3.6910   -1.6880 hc        1 XNC      0.054033
     51 H3          0.8510    3.0680    0.5300 ha        1 XNC      0.153000
     52 H2          0.4470    4.3980   -1.5240 ha        1 XNC      0.142000
     53 H8          0.7010   -0.9310    1.9850 h1        1 XNC      0.125700
     54 H13         3.0290   -3.4940    1.3090 h1        1 XNC      0.117700
     55 H13A        2.3010   -5.0780    0.9460 h1        1 XNC      0.117700
     56 H37         4.9400   -3.8220   -0.1070 hc        1 XNC      0.043533
     57 H37A        4.6970   -3.2810   -1.8200 hc        1 XNC      0.043533
     58 H37B        4.1660   -2.2180   -0.4480 hc        1 XNC      0.043533
     59 H38         2.0520   -5.8870   -1.3620 hc        1 XNC      0.043533
     60 H38A        3.4200   -5.3210   -2.4130 hc        1 XNC      0.043533
     61 H38B        3.7580   -5.9390   -0.7430 hc        1 XNC      0.043533
     62 H15         2.4650   -3.0730   -2.7410 hc        1 XNC      0.088200
     63 H15A        1.0120   -3.7800   -1.9260 hc        1 XNC      0.088200
     64 HN11        2.1260   -0.9500   -2.8840 hn        1 XNC      0.455800
     65 HO36        1.0470    1.4160   -4.8750 ho        1 XNC      0.431000
     66 H1          0.6100    3.3240   -3.7710 ha        1 XNC      0.139000
     67 H22        -3.3170    1.5790    2.2610 ha        1 XNC      0.164000
     68 H20        -3.5860   -0.9130   -1.2930 ha        1 XNC      0.142000
     69 H19        -1.2000   -1.4900   -1.0730 ha        1 XNC      0.149000
     70 H25        -5.4020    0.3610   -1.5510 h1        1 XNC      0.051200
     71 H25A       -5.6760   -1.0000   -0.3470 h1        1 XNC      0.051200
     72 H31        -6.5790    2.5520    0.3980 ha        1 XNC      0.139500
     73 H30        -8.9400    3.3310    0.6540 ha        1 XNC      0.133000
     74 H29       -10.8280    1.7990    0.0910 ha        1 XNC      0.132000
     75 H28       -10.3560   -0.5130   -0.7220 ha        1 XNC      0.133000
     76 H27        -8.0050   -1.2950   -0.9690 ha        1 XNC      0.139500
@<TRIPOS>BOND
     1    1    2 2   
     2    2    3 1   
     3    2   10 1   
     4    3    4 ar  
     5    3    9 ar  
     6    4    5 ar  
     7    4   45 1   
     8    5    6 ar  
     9    5   46 1   
    10    6    7 ar  
    11    6   47 1   
    12    7    8 1   
    13    7    9 ar  
    14    8   48 1   
    15    8   49 1   
    16    8   50 1   
    17   10   11 1   
    18   10   14 1   
    19   11   12 ar  
    20   11   26 ar  
    21   12   13 ar  
    22   12   51 1   
    23   13   29 ar  
    24   13   52 1   
    25   14   15 1   
    26   14   30 1   
    27   14   53 1   
    28   15   16 1   
    29   15   24 2   
    30   16   17 2   
    31   16   18 2   
    32   16   19 1   
    33   19   20 1   
    34   19   54 1   
    35   19   55 1   
    36   20   21 1   
    37   20   22 1   
    38   20   23 1   
    39   21   56 1   
    40   21   57 1   
    41   21   58 1   
    42   22   59 1   
    43   22   60 1   
    44   22   61 1   
    45   23   24 1   
    46   23   62 1   
    47   23   63 1   
    48   24   25 1   
    49   25   26 1   
    50   25   64 1   
    51   26   27 ar  
    52   27   28 1   
    53   27   29 ar  
    54   28   65 1   
    55   29   66 1   
    56   30   31 ar  
    57   30   36 ar  
    58   31   32 1   
    59   31   33 ar  
    60   33   34 ar  
    61   33   67 1   
    62   34   35 ar  
    63   34   37 1   
    64   35   36 ar  
    65   35   68 1   
    66   36   69 1   
    67   37   38 1   
    68   38   39 1   
    69   38   70 1   
    70   38   71 1   
    71   39   40 ar  
    72   39   44 ar  
    73   40   41 ar  
    74   40   72 1   
    75   41   42 ar  
    76   41   73 1   
    77   42   43 ar  
    78   42   74 1   
    79   43   44 ar  
    80   43   75 1   
    81   44   76 1   
@<TRIPOS>SUBSTRUCTURE
     1 XNC         1 TEMP              0 ****  ****    0 ROOT
