@<TRIPOS>MOLECULE
XNC
   76    81     1     0     0
SMALL
bcc


@<TRIPOS>ATOM
      1 O35        -0.0710   -0.3910   -0.4710 o         1 XNC     -0.568100
      2 C16         1.1530   -0.2150   -0.3500 c         1 XNC      0.587600
      3 C17         1.7970   -0.3490    1.0080 ca        1 XNC      0.373800
      4 C43         1.3090    0.4810    2.0380 ca        1 XNC     -0.208300
      5 C42         1.8510    0.3300    3.3140 ca        1 XNC     -0.095000
      6 C41         2.8380   -0.6320    3.5220 ca        1 XNC     -0.234300
      7 C40         3.2620   -1.4310    2.4350 ca        1 XNC      0.409600
      8 C44         4.3050   -2.4760    2.6690 c3        1 XNC     -0.148400
      9 N39         2.7500   -1.2890    1.1860 nb        1 XNC     -0.647000
     10 N7          1.9440    0.1670   -1.4300 n         1 XNC     -0.375000
     11 C4          3.3530    0.2500   -1.3310 ca        1 XNC      0.081600
     12 C3          3.9470    1.3190   -0.6270 ca        1 XNC     -0.135000
     13 C2          5.3270    1.4420   -0.5430 ca        1 XNC     -0.098000
     14 C8          1.3680    0.2120   -2.7750 c3        1 XNC      0.247200
     15 C9          1.4700   -1.0940   -3.5090 ce        1 XNC     -0.580300
     16 S12         0.1950   -1.4910   -4.4800 sy        1 XNC      1.403900
     17 O32         0.6030   -1.6090   -5.8230 o         1 XNC     -0.664800
     18 O33        -0.9330   -0.6890   -4.2590 o         1 XNC     -0.664800
     19 C13        -0.1390   -3.0700   -3.8760 c3        1 XNC     -0.304600
     20 C14         1.0520   -4.0140   -3.7560 c3        1 XNC      0.009000
     21 C37         1.1420   -4.5690   -2.3400 c3        1 XNC     -0.094600
     22 C38         0.8930   -5.1760   -4.7310 c3        1 XNC     -0.094600
     23 C15         2.3650   -3.2980   -4.1060 c3        1 XNC     -0.114200
     24 C10         2.5170   -1.9760   -3.3670 c2        1 XNC      0.322800
     25 N11         3.6750   -1.8320   -2.6600 nh        1 XNC     -0.591400
     26 C5          4.1790   -0.7120   -1.9780 ca        1 XNC      0.116600
     27 C6          5.5920   -0.5460   -1.8780 ca        1 XNC      0.096100
     28 O36         6.3800   -1.4940   -2.5040 oh        1 XNC     -0.516100
     29 C1          6.1550    0.5130   -1.1660 ca        1 XNC     -0.192000
     30 C18         1.9110    1.3710   -3.5800 ca        1 XNC     -0.166300
     31 C23         1.5570    2.6930   -3.2130 ca        1 XNC      0.178900
     32 F34         0.7740    2.9170   -2.1310 f         1 XNC     -0.131900
     33 C22         2.0010    3.7930   -3.9610 ca        1 XNC     -0.205000
     34 C21         2.8070    3.5670   -5.0880 ca        1 XNC      0.159100
     35 C20         3.1610    2.2670   -5.4670 ca        1 XNC     -0.221000
     36 C19         2.7090    1.1880   -4.7080 ca        1 XNC     -0.047000
     37 O24         3.2100    4.7140   -5.7410 os        1 XNC     -0.325900
     38 C25         3.8650    4.5090   -7.0030 c3        1 XNC      0.174700
     39 C26         4.1080    5.8490   -7.6140 ca        1 XNC     -0.095300
     40 C31         4.3220    6.9820   -6.8230 ca        1 XNC     -0.111500
     41 C30         4.5780    8.2140   -7.4230 ca        1 XNC     -0.131000
     42 C29         4.6270    8.3200   -8.8120 ca        1 XNC     -0.125000
     43 C28         4.4130    7.1910   -9.6040 ca        1 XNC     -0.131000
     44 C27         4.1500    5.9590   -9.0090 ca        1 XNC     -0.111500
     45 H43         0.5130    1.2090    1.8300 ha        1 XNC      0.163000
     46 H42         1.5000    0.9590    4.1460 ha        1 XNC      0.144000
     47 H41         3.2810   -0.7780    4.5170 ha        1 XNC      0.145000
     48 H44         4.7200   -2.3810    3.7010 hc        1 XNC      0.054033
     49 H44A        3.8580   -3.4950    2.5540 hc        1 XNC      0.054033
     50 H44B        5.1420   -2.3750    1.9350 hc        1 XNC      0.054033
     51 H3          3.3030    2.0670   -0.1370 ha        1 XNC      0.153000
     52 H2          5.7690    2.2820    0.0140 ha        1 XNC      0.142000
     53 H8          0.2530    0.4280   -2.6180 h1        1 XNC      0.125700
     54 H13        -0.9150   -3.5460   -4.5340 h1        1 XNC      0.117700
     55 H13A       -0.6350   -2.9760   -2.8710 h1        1 XNC      0.117700
     56 H37         0.1890   -5.0860   -2.0720 hc        1 XNC      0.043533
     57 H37A        1.3190   -3.7450   -1.6070 hc        1 XNC      0.043533
     58 H37B        1.9780   -5.3050   -2.2640 hc        1 XNC      0.043533
     59 H38         0.7970   -4.7980   -5.7770 hc        1 XNC      0.043533
     60 H38A       -0.0220   -5.7630   -4.4760 hc        1 XNC      0.043533
     61 H38B        1.7780   -5.8540   -4.6730 hc        1 XNC      0.043533
     62 H15         2.3880   -3.0710   -5.2100 hc        1 XNC      0.088200
     63 H15A        3.2110   -4.0050   -3.8970 hc        1 XNC      0.088200
     64 HN11        4.3350   -2.5840   -2.7310 hn        1 XNC      0.455800
     65 HO36        7.3060   -1.2650   -2.3380 ho        1 XNC      0.431000
     66 H1          7.2490    0.6130   -1.1050 ha        1 XNC      0.139000
     67 H22         1.7190    4.8160   -3.6760 ha        1 XNC      0.164000
     68 H20         3.7820    2.0790   -6.3530 ha        1 XNC      0.142000
     69 H19         2.9810    0.1660   -5.0200 ha        1 XNC      0.149000
     70 H25         4.8440    3.9860   -6.8230 h1        1 XNC      0.051200
     71 H25A        3.2140    3.8760   -7.6630 h1        1 XNC      0.051200
     72 H31         4.2740    6.8950   -5.7260 ha        1 XNC      0.139500
     73 H30         4.7420    9.1040   -6.7970 ha        1 XNC      0.133000
     74 H29         4.8320    9.2920   -9.2850 ha        1 XNC      0.132000
     75 H28         4.4480    7.2730  -10.7000 ha        1 XNC      0.133000
     76 H27         3.9730    5.0720   -9.6360 ha        1 XNC      0.139500
@<TRIPOS>BOND
     1    1    2 2   
     2    2    3 1   
     3    2   10 1   
     4    3    4 ar  
     5    3    9 ar  
     6    4    5 ar  
     7    4   45 1   
     8    5    6 ar  
     9    5   46 1   
    10    6    7 ar  
    11    6   47 1   
    12    7    8 1   
    13    7    9 ar  
    14    8   48 1   
    15    8   49 1   
    16    8   50 1   
    17   10   11 1   
    18   10   14 1   
    19   11   12 ar  
    20   11   26 ar  
    21   12   13 ar  
    22   12   51 1   
    23   13   29 ar  
    24   13   52 1   
    25   14   15 1   
    26   14   30 1   
    27   14   53 1   
    28   15   16 1   
    29   15   24 2   
    30   16   17 2   
    31   16   18 2   
    32   16   19 1   
    33   19   20 1   
    34   19   54 1   
    35   19   55 1   
    36   20   21 1   
    37   20   22 1   
    38   20   23 1   
    39   21   56 1   
    40   21   57 1   
    41   21   58 1   
    42   22   59 1   
    43   22   60 1   
    44   22   61 1   
    45   23   24 1   
    46   23   62 1   
    47   23   63 1   
    48   24   25 1   
    49   25   26 1   
    50   25   64 1   
    51   26   27 ar  
    52   27   28 1   
    53   27   29 ar  
    54   28   65 1   
    55   29   66 1   
    56   30   31 ar  
    57   30   36 ar  
    58   31   32 1   
    59   31   33 ar  
    60   33   34 ar  
    61   33   67 1   
    62   34   35 ar  
    63   34   37 1   
    64   35   36 ar  
    65   35   68 1   
    66   36   69 1   
    67   37   38 1   
    68   38   39 1   
    69   38   70 1   
    70   38   71 1   
    71   39   40 ar  
    72   39   44 ar  
    73   40   41 ar  
    74   40   72 1   
    75   41   42 ar  
    76   41   73 1   
    77   42   43 ar  
    78   42   74 1   
    79   43   44 ar  
    80   43   75 1   
    81   44   76 1   
@<TRIPOS>SUBSTRUCTURE
     1 XNC         1 TEMP              0 ****  ****    0 ROOT
