@<TRIPOS>MOLECULE
XNC
   76    81     1     0     0
SMALL
bcc


@<TRIPOS>ATOM
      1 O35        -0.0350   -0.3730   -0.4210 o         1 XNC     -0.568100
      2 C16         1.1920   -0.2050   -0.3210 c         1 XNC      0.587600
      3 C17         1.8570   -0.3450    1.0270 ca        1 XNC      0.373800
      4 C43         1.3920    0.4870    2.0650 ca        1 XNC     -0.208300
      5 C42         1.9550    0.3320    3.3320 ca        1 XNC     -0.095000
      6 C41         2.9380   -0.6370    3.5220 ca        1 XNC     -0.234300
      7 C40         3.3380   -1.4380    2.4280 ca        1 XNC      0.409600
      8 C44         4.3780   -2.4900    2.6440 c3        1 XNC     -0.148400
      9 N39         2.8070   -1.2910    1.1880 nb        1 XNC     -0.647000
     10 N7          1.9680    0.1720   -1.4130 n         1 XNC     -0.375000
     11 C4          3.3790    0.2440   -1.3380 ca        1 XNC      0.081600
     12 C3          3.9920    1.3080   -0.6430 ca        1 XNC     -0.135000
     13 C2          5.3740    1.4210   -0.5830 ca        1 XNC     -0.098000
     14 C8          1.3700    0.2220   -2.7490 c3        1 XNC      0.247200
     15 C9          1.4500   -1.0840   -3.4850 ce        1 XNC     -0.580300
     16 S12         0.1560   -1.4710   -4.4360 sy        1 XNC      1.403900
     17 O32         0.5410   -1.5910   -5.7850 o         1 XNC     -0.664800
     18 O33        -0.9620   -0.6610   -4.1940 o         1 XNC     -0.664800
     19 C13        -0.1790   -3.0480   -3.8260 c3        1 XNC     -0.304600
     20 C14         1.0070   -4.0010   -3.7270 c3        1 XNC      0.009000
     21 C37         1.1160   -4.5580   -2.3140 c3        1 XNC     -0.094600
     22 C38         0.8220   -5.1610   -4.7010 c3        1 XNC     -0.094600
     23 C15         2.3190   -3.2940   -4.0980 c3        1 XNC     -0.114200
     24 C10         2.4930   -1.9740   -3.3610 c2        1 XNC      0.322800
     25 N11         3.6630   -1.8390   -2.6740 nu        1 XNC     -0.591400
     26 C5          4.1860   -0.7230   -2.0000 ca        1 XNC      0.116600
     27 C6          5.6020   -0.5680   -1.9230 ca        1 XNC      0.096100
     28 O36         6.3730   -1.5210   -2.5630 oh        1 XNC     -0.516100
     29 C1          6.1850    0.4870   -1.2200 ca        1 XNC     -0.192000
     30 C18         1.9070    1.3780   -3.5620 ca        1 XNC     -0.166300
     31 C23         1.5690    2.7020   -3.1880 ca        1 XNC      0.178900
     32 F34         0.8060    2.9310   -2.0940 f         1 XNC     -0.131900
     33 C22         2.0090    3.7990   -3.9430 ca        1 XNC     -0.205000
     34 C21         2.7940    3.5680   -5.0840 ca        1 XNC      0.159100
     35 C20         3.1320    2.2650   -5.4690 ca        1 XNC     -0.221000
     36 C19         2.6850    1.1900   -4.7040 ca        1 XNC     -0.047000
     37 O24         3.1950    4.7130   -5.7420 os        1 XNC     -0.325900
     38 C25         3.8280    4.5040   -7.0150 c3        1 XNC      0.174700
     39 C26         4.0700    5.8430   -7.6290 ca        1 XNC     -0.095300
     40 C31         4.3070    6.9730   -6.8400 ca        1 XNC     -0.111500
     41 C30         4.5640    8.2040   -7.4430 ca        1 XNC     -0.131000
     42 C29         4.5890    8.3100   -8.8340 ca        1 XNC     -0.125000
     43 C28         4.3510    7.1840   -9.6230 ca        1 XNC     -0.131000
     44 C27         4.0880    5.9540   -9.0240 ca        1 XNC     -0.111500
     45 H43         0.5980    1.2220    1.8700 ha        1 XNC      0.163000
     46 H42         1.6210    0.9630    4.1690 ha        1 XNC      0.144000
     47 H41         3.3960   -0.7860    4.5090 ha        1 XNC      0.145000
     48 H44         3.9260   -3.5060    2.5230 hc        1 XNC      0.054033
     49 H44A        4.8030   -2.4070    3.6730 hc        1 XNC      0.054033
     50 H44B        5.2100   -2.3850    1.9040 hc        1 XNC      0.054033
     51 H3          3.3610    2.0610   -0.1430 ha        1 XNC      0.153000
     52 H2          5.8320    2.2570   -0.0320 ha        1 XNC      0.142000
     53 H8          0.2590    0.4460   -2.5730 h1        1 XNC      0.125700
     54 H13        -0.9700   -3.5180   -4.4710 h1        1 XNC      0.117700
     55 H13A       -0.6580   -2.9520   -2.8130 h1        1 XNC      0.117700
     56 H37         1.3120   -3.7370   -1.5830 hc        1 XNC      0.043533
     57 H37A        0.1640   -5.0690   -2.0300 hc        1 XNC      0.043533
     58 H37B        1.9480   -5.3000   -2.2530 hc        1 XNC      0.043533
     59 H38         0.7120   -4.7810   -5.7450 hc        1 XNC      0.043533
     60 H38A       -0.0920   -5.7420   -4.4310 hc        1 XNC      0.043533
     61 H38B        1.7030   -5.8450   -4.6580 hc        1 XNC      0.043533
     62 H15         2.3250   -3.0660   -5.2030 hc        1 XNC      0.088200
     63 H15A        3.1630   -4.0080   -3.9040 hc        1 XNC      0.088200
     64 HN11        4.3160   -2.5960   -2.7560 hn        1 XNC      0.455800
     65 HO36        7.3030   -1.2990   -2.4120 ho        1 XNC      0.431000
     66 H1          7.2800    0.5780   -1.1770 ha        1 XNC      0.139000
     67 H22         1.7390    4.8240   -3.6530 ha        1 XNC      0.164000
     68 H20         3.7370    2.0740   -6.3650 ha        1 XNC      0.142000
     69 H19         2.9450    0.1660   -5.0210 ha        1 XNC      0.149000
     70 H25         4.8050    3.9730   -6.8510 h1        1 XNC      0.051200
     71 H25A        3.1600    3.8770   -7.6650 h1        1 XNC      0.051200
     72 H31         4.2790    6.8850   -5.7430 ha        1 XNC      0.139500
     73 H30         4.7450    9.0910   -6.8190 ha        1 XNC      0.133000
     74 H29         4.7930    9.2810   -9.3080 ha        1 XNC      0.132000
     75 H28         4.3660    7.2680  -10.7190 ha        1 XNC      0.133000
     76 H27         3.8920    5.0700   -9.6490 ha        1 XNC      0.139500
@<TRIPOS>BOND
     1    1    2 2   
     2    2    3 1   
     3    2   10 1   
     4    3    4 ar  
     5    3    9 ar  
     6    4    5 ar  
     7    4   45 1   
     8    5    6 ar  
     9    5   46 1   
    10    6    7 ar  
    11    6   47 1   
    12    7    8 1   
    13    7    9 ar  
    14    8   48 1   
    15    8   49 1   
    16    8   50 1   
    17   10   11 1   
    18   10   14 1   
    19   11   12 ar  
    20   11   26 ar  
    21   12   13 ar  
    22   12   51 1   
    23   13   29 ar  
    24   13   52 1   
    25   14   15 1   
    26   14   30 1   
    27   14   53 1   
    28   15   16 1   
    29   15   24 2   
    30   16   17 2   
    31   16   18 2   
    32   16   19 1   
    33   19   20 1   
    34   19   54 1   
    35   19   55 1   
    36   20   21 1   
    37   20   22 1   
    38   20   23 1   
    39   21   56 1   
    40   21   57 1   
    41   21   58 1   
    42   22   59 1   
    43   22   60 1   
    44   22   61 1   
    45   23   24 1   
    46   23   62 1   
    47   23   63 1   
    48   24   25 1   
    49   25   26 1   
    50   25   64 1   
    51   26   27 ar  
    52   27   28 1   
    53   27   29 ar  
    54   28   65 1   
    55   29   66 1   
    56   30   31 ar  
    57   30   36 ar  
    58   31   32 1   
    59   31   33 ar  
    60   33   34 ar  
    61   33   67 1   
    62   34   35 ar  
    63   34   37 1   
    64   35   36 ar  
    65   35   68 1   
    66   36   69 1   
    67   37   38 1   
    68   38   39 1   
    69   38   70 1   
    70   38   71 1   
    71   39   40 ar  
    72   39   44 ar  
    73   40   41 ar  
    74   40   72 1   
    75   41   42 ar  
    76   41   73 1   
    77   42   43 ar  
    78   42   74 1   
    79   43   44 ar  
    80   43   75 1   
    81   44   76 1   
@<TRIPOS>SUBSTRUCTURE
     1 XNC         1 TEMP              0 ****  ****    0 ROOT
