@<TRIPOS>MOLECULE
XND
   52    51     1     0     0
SMALL
bcc


@<TRIPOS>ATOM
      1 CL29       -6.2620    0.7200    0.2900 cl        1 XND     -0.013000
      2 C22        -4.5360    0.9540    0.3450 c2        1 XND     -0.052000
      3 C21        -4.0120    2.2360    0.3950 c2        1 XND     -0.128000
      4 C20        -2.6400    2.4220    0.4220 c1        1 XND     -0.036000
      5 CL28       -1.9810    4.0330    0.5220 cl        1 XND      0.005000
      6 C23        -3.6870   -0.1420    0.3220 c1        1 XND     -0.130000
      7 C24        -2.3150    0.0450    0.3490 c1        1 XND     -0.099000
      8 C16        -1.7900    1.3260    0.3980 c2        1 XND     -0.060000
      9 C11        -0.3440    1.5240    0.4030 c3        1 XND      0.118000
     10 C5          0.2060    0.2310    0.9370 c2        1 XND     -0.292000
     11 C6         -0.2340   -0.0360    2.4260 c2        1 XND      0.283000
     12 O25        -1.2080    0.5280    2.8820 o         1 XND     -0.301000
     13 C1          0.7450   -0.7280    3.3540 c3        1 XND     -0.203000
     14 N10        -0.0140    1.6000   -0.9000 n         1 XND     -0.296000
     15 C17         0.2830    2.8050   -1.5840 c2        1 XND      0.319000
     16 C19         0.6510    2.7720   -3.0480 c3        1 XND     -0.236000
     17 O18         0.2490    3.8640   -0.9900 o         1 XND     -0.345000
     18 C9         -0.0610    0.2990   -1.5220 c2        1 XND      0.060000
     19 C15        -1.1360    0.0750   -2.4040 c2        1 XND     -0.137000
     20 C14        -0.9200   -0.5840   -3.6100 c1        1 XND     -0.107000
     21 C13         0.3600   -1.0230   -3.9460 c1        1 XND     -0.187000
     22 C12         1.4210   -0.8030   -3.0750 c1        1 XND      0.038000
     23 O30         2.7190   -1.2160   -3.4300 o         1 XND     -0.271000
     24 C8          1.2040   -0.1360   -1.8540 c2        1 XND      0.032000
     25 N7          1.7860   -0.9170   -0.7760 n3        1 XND     -0.248000
     26 C4          1.6140   -0.2520    0.4980 c2        1 XND      0.126000
     27 C3          2.4890   -0.9430    1.5450 c3        1 XND     -0.144000
     28 C2          1.7110   -1.5700    2.6250 c3        1 XND     -0.042000
     29 C27         2.6900   -2.1240    3.6330 c3        1 XND     -0.210000
     30 C26         0.9470   -2.7360    2.0260 c3        1 XND     -0.210000
     31 H21        -4.6090    3.0070    0.3990 ha        1 XND      0.160000
     32 H23        -4.0560   -1.0430    0.2870 ha        1 XND      0.148000
     33 H24        -1.7180   -0.7250    0.3320 ha        1 XND      0.144000
     34 H11        -0.2210    2.3280    0.9490 h1        1 XND      0.174000
     35 H1          1.2380   -0.1700    3.9890 hc        1 XND      0.115500
     36 H1A         0.1900   -1.2800    3.9430 hc        1 XND      0.115500
     37 H19         1.4680    2.2460   -3.1670 hc        1 XND      0.107333
     38 H19A        0.8000    3.6850   -3.3670 hc        1 XND      0.107333
     39 H19B       -0.0780    2.3630   -3.5580 hc        1 XND      0.107333
     40 H15        -2.0320    0.3830   -2.1690 ha        1 XND      0.151000
     41 H14        -1.6650   -0.7380   -4.2210 ha        1 XND      0.143000
     42 H13         0.5100   -1.4850   -4.7920 ha        1 XND      0.139000
     43 HO30        2.7300   -1.4580   -4.2850 ho        1 XND      0.230000
     44 HN7         2.2330   -1.7020   -0.8910 hn        1 XND      0.237000
     45 H3          3.1450   -0.3700    1.9970 hc        1 XND      0.103000
     46 H3A         3.0810   -1.5660    1.0760 hc        1 XND      0.103000
     47 H27         3.2450   -1.3980    3.9830 hc        1 XND      0.080833
     48 H27A        3.2610   -2.7920    3.2010 hc        1 XND      0.080833
     49 H27B        2.1970   -2.5440    4.3700 hc        1 XND      0.080833
     50 H26         1.5540   -3.2790    1.4790 hc        1 XND      0.080833
     51 H26A        0.2190   -2.3970    1.4660 hc        1 XND      0.080833
     52 H26B        0.5750   -3.2880    2.7460 hc        1 XND      0.080833
@<TRIPOS>BOND
     1    1    2 1   
     2    2    3 1   
     3    2    6 1   
     4    3    4 1   
     5    3   31 1   
     6    4    8 1   
     7    6   32 1   
     8    7    8 1   
     9    7   33 1   
    10    8    9 1   
    11    9   10 1   
    12    9   14 1   
    13    9   34 1   
    14   10   11 1   
    15   10   26 1   
    16   11   12 1   
    17   11   13 1   
    18   13   28 1   
    19   13   35 1   
    20   13   36 1   
    21   14   15 1   
    22   14   18 1   
    23   15   16 1   
    24   15   17 1   
    25   16   37 1   
    26   16   38 1   
    27   16   39 1   
    28   18   19 1   
    29   18   24 1   
    30   19   20 1   
    31   19   40 1   
    32   20   41 1   
    33   21   22 1   
    34   21   42 1   
    35   22   24 1   
    36   23   43 1   
    37   24   25 1   
    38   25   26 1   
    39   25   44 1   
    40   26   27 1   
    41   27   28 1   
    42   27   45 1   
    43   27   46 1   
    44   28   29 1   
    45   28   30 1   
    46   29   47 1   
    47   29   48 1   
    48   29   49 1   
    49   30   50 1   
    50   30   51 1   
    51   30   52 1   
@<TRIPOS>SUBSTRUCTURE
     1 XND         1 TEMP              0 ****  ****    0 ROOT
