@<TRIPOS>MOLECULE
XND
   52    55     1     0     0
SMALL
bcc


@<TRIPOS>ATOM
      1 CL29       -0.2060    0.2770   -0.3160 cl        1 XND     -0.091400
      2 C22         1.4910    0.2110   -0.2460 ca        1 XND      0.026400
      3 C21         2.1300    0.1740    0.9950 ca        1 XND     -0.128000
      4 C20         3.5270    0.1220    1.0480 ca        1 XND      0.041400
      5 CL28        4.2560    0.0790    2.5830 cl        1 XND     -0.073400
      6 C23         2.2370    0.1950   -1.4270 ca        1 XND     -0.130000
      7 C24         3.6260    0.1420   -1.3580 ca        1 XND     -0.098000
      8 C16         4.2940    0.1020   -0.1300 ca        1 XND     -0.067300
      9 C11         5.8050   -0.0060   -0.0620 c3        1 XND      0.205200
     10 C5          6.3930   -0.5100   -1.3580 ce        1 XND     -0.316400
     11 C6          6.4550   -1.9820   -1.4320 c         1 XND      0.590300
     12 O25         6.0240   -2.7050   -0.5230 o         1 XND     -0.541100
     13 C1          7.0350   -2.6180   -2.6650 c3        1 XND     -0.174400
     14 N10         6.4160    1.2280    0.4190 n         1 XND     -0.393000
     15 C17         7.5010    1.1920    1.3020 c         1 XND      0.675100
     16 C19         8.1830    2.4900    1.6540 c3        1 XND     -0.169100
     17 O18         7.8750    0.1130    1.7950 o         1 XND     -0.583100
     18 C9          6.0330    2.4280   -0.2230 ca        1 XND      0.052600
     19 C15         5.3940    3.4500    0.5110 ca        1 XND     -0.137000
     20 C14         4.9790    4.6220   -0.1050 ca        1 XND     -0.107000
     21 C13         5.1700    4.8020   -1.4720 ca        1 XND     -0.187000
     22 C12         5.7830    3.7990   -2.2220 ca        1 XND      0.083100
     23 O30         5.9850    3.9370   -3.5830 oh        1 XND     -0.517100
     24 C8          6.2440    2.5890   -1.6220 ca        1 XND      0.111600
     25 N7          6.9520    1.6600   -2.3990 nh        1 XND     -0.613400
     26 C4          6.8910    0.2730   -2.3630 c2        1 XND      0.202800
     27 C3          7.4800   -0.3720   -3.6030 c3        1 XND     -0.060200
     28 C2          8.0820   -1.7500   -3.3450 c3        1 XND     -0.041000
     29 C27         9.3280   -1.6380   -2.4810 c3        1 XND     -0.092600
     30 C26         8.4590   -2.3760   -4.6820 c3        1 XND     -0.092600
     31 H21         1.5400    0.1820    1.9250 ha        1 XND      0.160000
     32 H23         1.7330    0.2220   -2.4050 ha        1 XND      0.148000
     33 H24         4.2090    0.1270   -2.2930 ha        1 XND      0.143000
     34 H11         6.0410   -0.8000    0.7300 h1        1 XND      0.136700
     35 H1          6.1880   -2.8180   -3.3760 hc        1 XND      0.074700
     36 H1A         7.4840   -3.6090   -2.3880 hc        1 XND      0.074700
     37 H19         8.5560    3.0000    0.7340 hc        1 XND      0.068033
     38 H19A        9.0460    2.2660    2.3270 hc        1 XND      0.068033
     39 H19B        7.4730    3.1700    2.1840 hc        1 XND      0.068033
     40 H15         5.2170    3.3110    1.5900 ha        1 XND      0.152000
     41 H14         4.4880    5.4090    0.4870 ha        1 XND      0.143000
     42 H13         4.8320    5.7260   -1.9640 ha        1 XND      0.139000
     43 HO30        5.6630    4.8120   -3.8430 ho        1 XND      0.431000
     44 HN7         7.2320    2.0360   -3.2860 hn        1 XND      0.441800
     45 H3          8.2790    0.2730   -4.0600 hc        1 XND      0.061700
     46 H3A         6.6500   -0.4680   -4.3560 hc        1 XND      0.061700
     47 H27         9.7680   -2.6500   -2.3100 hc        1 XND      0.042367
     48 H27A        9.0750   -1.1880   -1.4900 hc        1 XND      0.042367
     49 H27B       10.0920   -0.9980   -2.9830 hc        1 XND      0.042367
     50 H26         9.2260   -1.7490   -5.1990 hc        1 XND      0.042367
     51 H26A        8.8830   -3.3950   -4.5180 hc        1 XND      0.042367
     52 H26B        7.5640   -2.4640   -5.3430 hc        1 XND      0.042367
@<TRIPOS>BOND
     1    1    2 1   
     2    2    3 ar  
     3    2    6 ar  
     4    3    4 ar  
     5    3   31 1   
     6    4    5 1   
     7    4    8 ar  
     8    6    7 ar  
     9    6   32 1   
    10    7    8 ar  
    11    7   33 1   
    12    8    9 1   
    13    9   10 1   
    14    9   14 1   
    15    9   34 1   
    16   10   11 1   
    17   10   26 2   
    18   11   12 2   
    19   11   13 1   
    20   13   28 1   
    21   13   35 1   
    22   13   36 1   
    23   14   15 1   
    24   14   18 1   
    25   15   16 1   
    26   15   17 2   
    27   16   37 1   
    28   16   38 1   
    29   16   39 1   
    30   18   19 ar  
    31   18   24 ar  
    32   19   20 ar  
    33   19   40 1   
    34   20   21 ar  
    35   20   41 1   
    36   21   22 ar  
    37   21   42 1   
    38   22   23 1   
    39   22   24 ar  
    40   23   43 1   
    41   24   25 1   
    42   25   26 1   
    43   25   44 1   
    44   26   27 1   
    45   27   28 1   
    46   27   45 1   
    47   27   46 1   
    48   28   29 1   
    49   28   30 1   
    50   29   47 1   
    51   29   48 1   
    52   29   49 1   
    53   30   50 1   
    54   30   51 1   
    55   30   52 1   
@<TRIPOS>SUBSTRUCTURE
     1 XND         1 TEMP              0 ****  ****    0 ROOT
