@<TRIPOS>MOLECULE
XND
   52    55     1     0     0
SMALL
bcc


@<TRIPOS>ATOM
      1 CL29       -0.2060    0.3460   -0.3380 cl        1 XND     -0.091400
      2 C22         1.4900    0.2640   -0.2610 ca        1 XND      0.026400
      3 C21         2.1230    0.2150    0.9820 ca        1 XND     -0.128000
      4 C20         3.5200    0.1490    1.0410 ca        1 XND      0.041400
      5 CL28        4.2410    0.0930    2.5790 cl        1 XND     -0.073400
      6 C23         2.2410    0.2450   -1.4390 ca        1 XND     -0.130000
      7 C24         3.6300    0.1780   -1.3650 ca        1 XND     -0.098000
      8 C16         4.2920    0.1270   -0.1330 ca        1 XND     -0.067300
      9 C11         5.8010    0.0040   -0.0590 c3        1 XND      0.205200
     10 C5          6.3900   -0.5010   -1.3540 ce        1 XND     -0.316400
     11 C6          6.4390   -1.9720   -1.4350 c         1 XND      0.590300
     12 O25         5.9960   -2.6960   -0.5300 o         1 XND     -0.541100
     13 C1          7.0180   -2.6080   -2.6670 c3        1 XND     -0.174400
     14 N10         6.4210    1.2300    0.4300 n         1 XND     -0.393000
     15 C17         7.5020    1.1790    1.3180 c         1 XND      0.675100
     16 C19         8.1950    2.4690    1.6790 c3        1 XND     -0.169100
     17 O18         7.8640    0.0950    1.8080 o         1 XND     -0.583100
     18 C9          6.0530    2.4370   -0.2080 ca        1 XND      0.052600
     19 C15         5.4210    3.4610    0.5280 ca        1 XND     -0.137000
     20 C14         5.0200    4.6400   -0.0850 ca        1 XND     -0.107000
     21 C13         5.2190    4.8240   -1.4510 ca        1 XND     -0.187000
     22 C12         5.8260    3.8180   -2.2020 ca        1 XND      0.083100
     23 O30         6.0350    3.9600   -3.5620 oh        1 XND     -0.517100
     24 C8          6.2730    2.6010   -1.6050 ca        1 XND      0.111600
     25 N7          6.9740    1.6690   -2.3840 nh        1 XND     -0.613400
     26 C4          6.9000    0.2820   -2.3530 c2        1 XND      0.202800
     27 C3          7.4890   -0.3630   -3.5940 c3        1 XND     -0.060200
     28 C2          8.0760   -1.7470   -3.3390 c3        1 XND     -0.041000
     29 C27         9.3200   -1.6510   -2.4690 c3        1 XND     -0.092600
     30 C26         8.4540   -2.3710   -4.6770 c3        1 XND     -0.092600
     31 H21         1.5300    0.2250    1.9100 ha        1 XND      0.160000
     32 H23         1.7420    0.2810   -2.4190 ha        1 XND      0.148000
     33 H24         4.2160    0.1610   -2.2970 ha        1 XND      0.143000
     34 H11         6.0260   -0.7950    0.7300 h1        1 XND      0.136700
     35 H1          7.4570   -3.6050   -2.3930 hc        1 XND      0.074700
     36 H1A         6.1730   -2.7980   -3.3830 hc        1 XND      0.074700
     37 H19         7.4900    3.1540    2.2090 hc        1 XND      0.068033
     38 H19A        9.0540    2.2340    2.3540 hc        1 XND      0.068033
     39 H19B        8.5780    2.9790    0.7620 hc        1 XND      0.068033
     40 H15         5.2370    3.3190    1.6050 ha        1 XND      0.152000
     41 H14         4.5340    5.4290    0.5080 ha        1 XND      0.143000
     42 H13         4.8920    5.7530   -1.9410 ha        1 XND      0.139000
     43 HO30        5.7220    4.8400   -3.8190 ho        1 XND      0.431000
     44 HN7         7.2630    2.0460   -3.2680 hn        1 XND      0.441800
     45 H3          6.6610   -0.4480   -4.3510 hc        1 XND      0.061700
     46 H3A         8.2960    0.2760   -4.0450 hc        1 XND      0.061700
     47 H27         9.0660   -1.2030   -1.4780 hc        1 XND      0.042367
     48 H27A       10.0920   -1.0160   -2.9650 hc        1 XND      0.042367
     49 H27B        9.7490   -2.6680   -2.3000 hc        1 XND      0.042367
     50 H26         8.8670   -3.3950   -4.5160 hc        1 XND      0.042367
     51 H26A        9.2280   -1.7500   -5.1880 hc        1 XND      0.042367
     52 H26B        7.5610   -2.4480   -5.3430 hc        1 XND      0.042367
@<TRIPOS>BOND
     1    1    2 1   
     2    2    3 ar  
     3    2    6 ar  
     4    3    4 ar  
     5    3   31 1   
     6    4    5 1   
     7    4    8 ar  
     8    6    7 ar  
     9    6   32 1   
    10    7    8 ar  
    11    7   33 1   
    12    8    9 1   
    13    9   10 1   
    14    9   14 1   
    15    9   34 1   
    16   10   11 1   
    17   10   26 2   
    18   11   12 2   
    19   11   13 1   
    20   13   28 1   
    21   13   35 1   
    22   13   36 1   
    23   14   15 1   
    24   14   18 1   
    25   15   16 1   
    26   15   17 2   
    27   16   37 1   
    28   16   38 1   
    29   16   39 1   
    30   18   19 ar  
    31   18   24 ar  
    32   19   20 ar  
    33   19   40 1   
    34   20   21 ar  
    35   20   41 1   
    36   21   22 ar  
    37   21   42 1   
    38   22   23 1   
    39   22   24 ar  
    40   23   43 1   
    41   24   25 1   
    42   25   26 1   
    43   25   44 1   
    44   26   27 1   
    45   27   28 1   
    46   27   45 1   
    47   27   46 1   
    48   28   29 1   
    49   28   30 1   
    50   29   47 1   
    51   29   48 1   
    52   29   49 1   
    53   30   50 1   
    54   30   51 1   
    55   30   52 1   
@<TRIPOS>SUBSTRUCTURE
     1 XND         1 TEMP              0 ****  ****    0 ROOT
