@<TRIPOS>MOLECULE
XND
   52    55     1     0     0
SMALL
bcc


@<TRIPOS>ATOM
      1 Cl29       -0.2040    0.3480   -0.3500 cl        1 XND     -0.091400
      2 C22         1.4920    0.2660   -0.2690 ca        1 XND      0.026400
      3 C21         2.1220    0.2180    0.9760 ca        1 XND     -0.128000
      4 C20         3.5190    0.1530    1.0380 ca        1 XND      0.041400
      5 Cl28        4.2370    0.0980    2.5780 cl        1 XND     -0.073400
      6 C23         2.2460    0.2460   -1.4450 ca        1 XND     -0.130000
      7 C24         3.6340    0.1790   -1.3670 ca        1 XND     -0.098000
      8 C16         4.2930    0.1290   -0.1350 ca        1 XND     -0.067300
      9 C11         5.8030    0.0060   -0.0570 c3        1 XND      0.205200
     10 C5          6.3940   -0.5000   -1.3510 ce        1 XND     -0.316400
     11 C6          6.4430   -1.9710   -1.4300 c         1 XND      0.590300
     12 O25         5.9990   -2.6940   -0.5260 o         1 XND     -0.541100
     13 C1          7.0260   -2.6080   -2.6600 c3        1 XND     -0.174400
     14 N10         6.4220    1.2320    0.4320 n         1 XND     -0.393000
     15 C17         7.5000    1.1830    1.3230 c         1 XND      0.675100
     16 C19         8.1930    2.4730    1.6840 c3        1 XND     -0.169100
     17 O18         7.8610    0.0980    1.8140 o         1 XND     -0.583100
     18 C9          6.0550    2.4380   -0.2070 ca        1 XND      0.052600
     19 C15         5.4210    3.4640    0.5260 ca        1 XND     -0.137000
     20 C14         5.0210    4.6420   -0.0890 ca        1 XND     -0.107000
     21 C13         5.2230    4.8250   -1.4540 ca        1 XND     -0.187000
     22 C12         5.8310    3.8180   -2.2030 ca        1 XND      0.083100
     23 O30         6.0430    3.9590   -3.5620 oh        1 XND     -0.517100
     24 C8          6.2770    2.6020   -1.6050 ca        1 XND      0.111600
     25 N7          6.9800    1.6690   -2.3810 nu        1 XND     -0.613400
     26 C4          6.9060    0.2830   -2.3490 c2        1 XND      0.202800
     27 C3          7.4970   -0.3640   -3.5880 c3        1 XND     -0.060200
     28 C2          8.0850   -1.7480   -3.3310 c3        1 XND     -0.041000
     29 C27         9.3270   -1.6500   -2.4580 c3        1 XND     -0.092600
     30 C26         8.4660   -2.3720   -4.6670 c3        1 XND     -0.092600
     31 H21         1.5270    0.2290    1.9030 ha        1 XND      0.160000
     32 H23         1.7490    0.2810   -2.4260 ha        1 XND      0.148000
     33 H24         4.2220    0.1610   -2.2990 ha        1 XND      0.143000
     34 H11         6.0250   -0.7930    0.7340 h1        1 XND      0.136700
     35 H1          6.1830   -2.7990   -3.3780 hc        1 XND      0.074700
     36 H1A         7.4650   -3.6040   -2.3840 hc        1 XND      0.074700
     37 H19         9.0500    2.2380    2.3610 hc        1 XND      0.068033
     38 H19A        7.4860    3.1580    2.2120 hc        1 XND      0.068033
     39 H19B        8.5770    2.9820    0.7670 hc        1 XND      0.068033
     40 H15         5.2350    3.3220    1.6030 ha        1 XND      0.152000
     41 H14         4.5340    5.4320    0.5030 ha        1 XND      0.143000
     42 H13         4.8970    5.7540   -1.9450 ha        1 XND      0.139000
     43 HO30        5.7310    4.8380   -3.8210 ho        1 XND      0.431000
     44 HN7         7.2700    2.0460   -3.2640 hn        1 XND      0.441800
     45 H3          8.3050    0.2750   -4.0380 hc        1 XND      0.061700
     46 H3A         6.6710   -0.4500   -4.3470 hc        1 XND      0.061700
     47 H27        10.1000   -1.0150   -2.9530 hc        1 XND      0.042367
     48 H27A        9.0700   -1.2010   -1.4680 hc        1 XND      0.042367
     49 H27B        9.7560   -2.6670   -2.2880 hc        1 XND      0.042367
     50 H26         9.2410   -1.7520   -5.1760 hc        1 XND      0.042367
     51 H26A        8.8790   -3.3970   -4.5040 hc        1 XND      0.042367
     52 H26B        7.5740   -2.4510   -5.3350 hc        1 XND      0.042367
@<TRIPOS>BOND
     1    1    2 1   
     2    2    3 ar  
     3    2    6 ar  
     4    3    4 ar  
     5    3   31 1   
     6    4    5 1   
     7    4    8 ar  
     8    6    7 ar  
     9    6   32 1   
    10    7    8 ar  
    11    7   33 1   
    12    8    9 1   
    13    9   10 1   
    14    9   14 1   
    15    9   34 1   
    16   10   11 1   
    17   10   26 2   
    18   11   12 2   
    19   11   13 1   
    20   13   28 1   
    21   13   35 1   
    22   13   36 1   
    23   14   15 1   
    24   14   18 1   
    25   15   16 1   
    26   15   17 2   
    27   16   37 1   
    28   16   38 1   
    29   16   39 1   
    30   18   19 ar  
    31   18   24 ar  
    32   19   20 ar  
    33   19   40 1   
    34   20   21 ar  
    35   20   41 1   
    36   21   22 ar  
    37   21   42 1   
    38   22   23 1   
    39   22   24 ar  
    40   23   43 1   
    41   24   25 1   
    42   25   26 1   
    43   25   44 1   
    44   26   27 1   
    45   27   28 1   
    46   27   45 1   
    47   27   46 1   
    48   28   29 1   
    49   28   30 1   
    50   29   47 1   
    51   29   48 1   
    52   29   49 1   
    53   30   50 1   
    54   30   51 1   
    55   30   52 1   
@<TRIPOS>SUBSTRUCTURE
     1 XND         1 TEMP              0 ****  ****    0 ROOT
