@<TRIPOS>MOLECULE
XND
   52    55     1     0     0
SMALL
bcc


@<TRIPOS>ATOM
      1 CL29       -4.8300    1.6960    2.3990 cl        1 XND     -0.091400
      2 C22        -3.4630    1.2920    1.4730 ca        1 XND      0.026400
      3 C21        -3.6210    0.8970    0.1440 ca        1 XND     -0.128000
      4 C20        -2.4920    0.5640   -0.6130 ca        1 XND      0.041400
      5 CL28       -2.7390    0.0880   -2.2260 cl        1 XND     -0.073400
      6 C23        -2.1900    1.3590    2.0460 ca        1 XND     -0.130000
      7 C24        -1.0770    1.0260    1.2800 ca        1 XND     -0.098000
      8 C16        -1.2040    0.6280   -0.0550 ca        1 XND     -0.067300
      9 C11         0.0160    0.3140   -0.9000 c3        1 XND      0.205200
     10 C5          1.2750    0.9050   -0.3120 ce        1 XND     -0.316400
     11 C6          1.5270    2.2880   -0.7550 c         1 XND      0.590300
     12 O25         0.7460    2.8930   -1.5040 o         1 XND     -0.541100
     13 C1          2.7590    2.9920   -0.2570 c3        1 XND     -0.174400
     14 N10         0.1190   -1.1100   -1.1960 n         1 XND     -0.393000
     15 C17         0.5270   -1.5500   -2.4600 c         1 XND      0.675100
     16 C19         0.7530   -3.0260   -2.6680 c3        1 XND     -0.169100
     17 O18         0.6790   -0.7370   -3.3900 o         1 XND     -0.583100
     18 C9          0.0290   -2.0030   -0.1030 ca        1 XND      0.052600
     19 C15        -1.0160   -2.9500   -0.0470 ca        1 XND     -0.137000
     20 C14        -1.1430   -3.8130    1.0320 ca        1 XND     -0.107000
     21 C13        -0.2460   -3.7460    2.0950 ca        1 XND     -0.187000
     22 C12         0.7840   -2.8070    2.0700 ca        1 XND      0.083100
     23 O30         1.6920   -2.7040    3.1080 oh        1 XND     -0.517100
     24 C8          0.9630   -1.9160    0.9680 ca        1 XND      0.111600
     25 N7          2.0780   -1.0670    0.9430 nh        1 XND     -0.613400
     26 C4          2.1580    0.2470    0.4990 c2        1 XND      0.202800
     27 C3          3.4030    0.9590    0.9960 c3        1 XND     -0.060200
     28 C2          3.9050    2.0400    0.0460 c3        1 XND     -0.041000
     29 C27         4.4410    1.4230   -1.2370 c3        1 XND     -0.092600
     30 C26         5.0270    2.8100    0.7320 c3        1 XND     -0.092600
     31 H21        -4.6250    0.8500   -0.3080 ha        1 XND      0.160000
     32 H23        -2.0650    1.6720    3.0940 ha        1 XND      0.148000
     33 H24        -0.0760    1.0820    1.7360 ha        1 XND      0.143000
     34 H11        -0.1430    0.8320   -1.9090 h1        1 XND      0.136700
     35 H1          3.0840    3.7470   -1.0220 hc        1 XND      0.074700
     36 H1A         2.4780    3.5550    0.6740 hc        1 XND      0.074700
     37 H19        -0.2000   -3.5890   -2.5220 hc        1 XND      0.068033
     38 H19A        1.1170   -3.1860   -3.7130 hc        1 XND      0.068033
     39 H19B        1.5170   -3.4120   -1.9500 hc        1 XND      0.068033
     40 H15        -1.7460   -2.9980   -0.8720 ha        1 XND      0.152000
     41 H14        -1.9620   -4.5480    1.0530 ha        1 XND      0.143000
     42 H13        -0.3520   -4.4220    2.9550 ha        1 XND      0.139000
     43 HO30        1.4750   -3.3870    3.7590 ho        1 XND      0.431000
     44 HN7         2.7610   -1.3090    1.6370 hn        1 XND      0.441800
     45 H3          3.1470    1.4270    1.9860 hc        1 XND      0.061700
     46 H3A         4.2450    0.2350    1.1720 hc        1 XND      0.061700
     47 H27         4.8190    2.2220   -1.9180 hc        1 XND      0.042367
     48 H27A        5.2810    0.7230   -1.0080 hc        1 XND      0.042367
     49 H27B        3.6340    0.8580   -1.7620 hc        1 XND      0.042367
     50 H26         4.6660    3.2700    1.6830 hc        1 XND      0.042367
     51 H26A        5.8780    2.1260    0.9660 hc        1 XND      0.042367
     52 H26B        5.3960    3.6220    0.0610 hc        1 XND      0.042367
@<TRIPOS>BOND
     1    1    2 1   
     2    2    3 ar  
     3    2    6 ar  
     4    3    4 ar  
     5    3   31 1   
     6    4    5 1   
     7    4    8 ar  
     8    6    7 ar  
     9    6   32 1   
    10    7    8 ar  
    11    7   33 1   
    12    8    9 1   
    13    9   10 1   
    14    9   14 1   
    15    9   34 1   
    16   10   11 1   
    17   10   26 2   
    18   11   12 2   
    19   11   13 1   
    20   13   28 1   
    21   13   35 1   
    22   13   36 1   
    23   14   15 1   
    24   14   18 1   
    25   15   16 1   
    26   15   17 2   
    27   16   37 1   
    28   16   38 1   
    29   16   39 1   
    30   18   19 ar  
    31   18   24 ar  
    32   19   20 ar  
    33   19   40 1   
    34   20   21 ar  
    35   20   41 1   
    36   21   22 ar  
    37   21   42 1   
    38   22   23 1   
    39   22   24 ar  
    40   23   43 1   
    41   24   25 1   
    42   25   26 1   
    43   25   44 1   
    44   26   27 1   
    45   27   28 1   
    46   27   45 1   
    47   27   46 1   
    48   28   29 1   
    49   28   30 1   
    50   29   47 1   
    51   29   48 1   
    52   29   49 1   
    53   30   50 1   
    54   30   51 1   
    55   30   52 1   
@<TRIPOS>SUBSTRUCTURE
     1 XND         1 TEMP              0 ****  ****    0 ROOT
