@<TRIPOS>MOLECULE
XNI
   65    65     1     0     0
SMALL
bcc


@<TRIPOS>ATOM
      1 C1          0.4070    1.7760    0.9060 c3        1 XNI     -0.214000
      2 C2          0.9430    0.6990   -0.0320 c3        1 XNI     -0.038000
      3 C3          1.2670   -0.5640    0.7630 c3        1 XNI     -0.167000
      4 C4          0.2960   -0.8940    1.8600 c2        1 XNI      0.099000
      5 C5         -0.8710   -0.0090    2.2150 c3        1 XNI     -0.101000
      6 C6         -0.8870    1.3270    1.5200 c2        1 XNI      0.277000
      7 C8         -0.1950   -2.1750    3.8710 c3        1 XNI      0.052000
      8 N10         0.4130   -4.4800    4.6920 n         1 XNI     -0.170000
      9 C11        -0.6280   -5.1810    5.1470 c1        1 XNI     -0.054000
     10 C12        -0.6040   -0.8430    4.4860 c2        1 XNI     -0.313000
     11 C15         1.4480   -2.5290    5.6760 c1        1 XNI     -0.112000
     12 C16        -1.7780   -4.6420    5.8310 ca        1 XNI     -0.211000
     13 C17         1.3700   -5.1740    3.8760 c2        1 XNI      0.354000
     14 C19         1.4810   -6.6610    4.0330 c3        1 XNI     -0.225000
     15 C21        -4.1550   -4.9570    6.2700 ca        1 XNI     -0.166000
     16 C23        -3.0290   -2.9280    7.0090 ca        1 XNI     -0.254000
     17 C24        -1.8370   -3.4080    6.5030 ca        1 XNI     -0.043000
     18 C27        -5.1740    0.2200    6.0880 c2        1 XNI     -0.208000
     19 C30        -2.5160    1.6840    5.9670 c1        1 XNI     -0.202500
     20 C31        -6.2010   -0.9620    3.9720 c2        1 XNI     -0.220000
     21 C32        -5.6540   -0.4080    5.0020 c1        1 XNI      0.085000
     22 C34        -0.0780    0.3890   -1.1170 c3        1 XNI     -0.212000
     23 C35         2.2230    1.2020   -0.6870 c3        1 XNI     -0.212000
     24 CL36       -5.5360   -5.9400    6.1390 cl        1 XNI     -0.008000
     25 C20        -2.9430   -5.4320    5.7770 ca        1 XNI      0.000000
     26 C22        -4.2250   -3.6680    6.8570 ca        1 XNI      0.197000
     27 C26        -5.0670   -0.5230    7.2940 c1        1 XNI     -0.093000
     28 C29        -2.9790    2.0780    7.0140 c1        1 XNI     -0.202500
     29 C28        -4.9030    1.6330    6.0710 c1        1 XNI     -0.093000
     30 O33        -1.9160    2.0000    1.4430 o         1 XNI     -0.273000
     31 O18         2.0590   -4.5210    3.0730 o         1 XNI     -0.365000
     32 C9          0.6100   -3.0570    4.8100 c2        1 XNI     -0.052000
     33 C14         2.2540   -1.9940    6.5380 c2        1 XNI     -0.143000
     34 C13        -0.9390    0.1580    3.6900 c1        1 XNI     -0.347000
     35 N7          0.5500   -1.9530    2.6290 n3        1 XNI     -0.159000
     36 H1          1.1460    1.9790    1.7260 hc        1 XNI      0.120500
     37 H1A         0.2510    2.7300    0.3380 hc        1 XNI      0.120500
     38 H3          2.2910   -0.4430    1.2210 hc        1 XNI      0.119000
     39 H3A         1.3250   -1.4360    0.0520 hc        1 XNI      0.119000
     40 H11        -1.8220   -0.5590    1.9220 hc        1 XNI      0.155000
     41 H12        -1.1570   -2.7080    3.5870 h1        1 XNI      0.123000
     42 H15        -0.6300   -0.8150    5.5770 ha        1 XNI      0.147000
     43 H19         0.4670   -7.1340    4.0140 hc        1 XNI      0.122333
     44 H19A        2.1140   -7.0700    3.2080 hc        1 XNI      0.122333
     45 H19B        1.9570   -6.8910    5.0180 hc        1 XNI      0.122333
     46 H23        -0.9240   -2.8040    6.6320 ha        1 XNI      0.136000
     47 H24        -3.0710   -1.9550    7.5200 ha        1 XNI      0.144000
     48 H30        -5.6180   -1.5700    3.2600 ha        1 XNI      0.177000
     49 H31        -2.0410    1.3320    5.0580 ha        1 XNI      0.258500
     50 H32        -7.2760   -0.8730    3.7440 ha        1 XNI      0.177000
     51 H34        -1.0110   -0.0300   -0.6660 hc        1 XNI      0.084000
     52 H34A       -0.3410    1.3210   -1.6730 hc        1 XNI      0.084000
     53 H34B        0.3360   -0.3520   -1.8410 hc        1 XNI      0.084000
     54 H35         2.6720    0.4030   -1.3230 hc        1 XNI      0.084000
     55 H35A        2.9680    1.5080    0.0870 hc        1 XNI      0.084000
     56 H35B        1.9980    2.0870   -1.3310 hc        1 XNI      0.084000
     57 H20        -2.8880   -6.4290    5.3090 ha        1 XNI      0.155000
     58 H26        -5.3270   -2.1330    7.3680 ho        1 XNI      0.312000
     59 H26A       -4.7640    0.0420    8.1880 ha        1 XNI      0.079000
     60 H29        -4.7940    2.1400    5.1040 ha        1 XNI      0.079000
     61 H28        -3.3340    2.4570    7.9420 ha        1 XNI      0.258500
     62 H14         1.9250   -1.7060    7.5480 ha        1 XNI      0.146500
     63 H13         3.3110   -1.7890    6.3050 ha        1 XNI      0.146500
     64 HN7         1.3730   -2.5140    2.4840 hn        1 XNI      0.268000
     65 O25        -5.4080   -3.1720    7.2570 oh        1 XNI     -0.318000
@<TRIPOS>BOND
     1    1    2 1   
     2    1    6 1   
     3    1   36 1   
     4    1   37 1   
     5    2    3 1   
     6    2   22 1   
     7    2   23 1   
     8    3    4 1   
     9    3   38 1   
    10    3   39 1   
    11    4    5 1   
    12    4   35 1   
    13    5    6 1   
    14    5   34 1   
    15    5   40 1   
    16    6   30 1   
    17    7   10 1   
    18    7   32 1   
    19    7   35 1   
    20    7   41 1   
    21    8    9 1   
    22    8   13 1   
    23    8   32 1   
    24    9   12 1   
    25   10   34 1   
    26   10   42 1   
    27   11   32 1   
    28   11   33 1   
    29   12   17 1   
    30   12   25 1   
    31   13   14 1   
    32   13   31 1   
    33   14   43 1   
    34   14   44 1   
    35   14   45 1   
    36   15   24 1   
    37   15   25 1   
    38   15   26 1   
    39   16   17 1   
    40   16   26 1   
    41   16   47 1   
    42   17   46 1   
    43   18   21 1   
    44   18   27 1   
    45   18   29 1   
    46   19   28 1   
    47   19   49 1   
    48   20   21 1   
    49   20   48 1   
    50   20   50 1   
    51   22   51 1   
    52   22   52 1   
    53   22   53 1   
    54   23   54 1   
    55   23   55 1   
    56   23   56 1   
    57   25   57 1   
    58   26   65 1   
    59   27   59 1   
    60   28   61 1   
    61   29   60 1   
    62   33   62 1   
    63   33   63 1   
    64   35   64 1   
    65   58   65 1   
@<TRIPOS>SUBSTRUCTURE
     1 XNI         1 TEMP              0 ****  ****    0 ROOT
