@<TRIPOS>MOLECULE
XNI
   65    66     1     0     0
SMALL
bcc


@<TRIPOS>ATOM
      1 C1          3.2560    2.1490    1.6760 c3        1 XNI     -0.204000
      2 C2          2.2590    1.4780    0.7390 c3        1 XNI     -0.041000
      3 C3          2.4800   -0.0340    0.7450 c3        1 XNI     -0.143000
      4 C4          2.5210   -0.6230    2.1370 c2        1 XNI      0.128000
      5 C5          2.8910    0.1560    3.1950 c2        1 XNI     -0.372000
      6 C6          3.2450    1.5620    3.0600 c2        1 XNI      0.282000
      7 C8          1.9690   -2.6590    3.4550 c3        1 XNI      0.177000
      8 N10        -0.4070   -3.6370    3.5500 n         1 XNI     -0.153000
      9 C11        -1.3170   -4.1360    4.3830 c1        1 XNI     -0.062000
     10 C12         2.4220   -4.0400    3.4340 c1        1 XNI     -0.188000
     11 C15         0.1060   -1.4830    4.5830 c2        1 XNI     -0.106000
     12 C16        -1.4890   -3.6010    5.7790 c3        1 XNI     -0.097000
     13 C17        -0.4500   -4.1630    2.2000 c2        1 XNI      0.356000
     14 C19        -1.0880   -5.5100    2.0200 c3        1 XNI     -0.222000
     15 C21        -3.3010   -1.8790    6.2550 c2        1 XNI     -0.112000
     16 C23        -3.5330   -4.1840    7.0660 c2        1 XNI     -0.152000
     17 C24        -2.3580   -4.5450    6.5310 c2        1 XNI     -0.085000
     18 C27        -7.0520   -1.0540    7.1840 c2        1 XNI     -0.190000
     19 C30        -7.7160   -2.0890    2.0940 c1        1 XNI     -0.241500
     20 C31        -6.7900   -0.1830    9.6410 c2        1 XNI     -0.207000
     21 C32        -6.9160   -0.6240    8.4310 c1        1 XNI      0.026000
     22 C34         0.8350    1.8060    1.1630 c3        1 XNI     -0.209500
     23 C35         2.4840    1.9930   -0.6770 c3        1 XNI     -0.209500
     24 CL36       -3.8870   -0.2890    6.0720 cl        1 XNI     -0.006000
     25 C20        -1.9930   -2.1850    5.6930 c2        1 XNI     -0.027000
     26 C22        -4.0320   -2.8290    6.9030 c2        1 XNI      0.100000
     27 C26        -6.3440   -2.2840    6.6890 c3        1 XNI      0.038000
     28 C29        -7.7930   -1.6230    3.1940 c1        1 XNI     -0.241500
     29 C28        -7.8760   -0.4160    6.2190 c1        1 XNI     -0.071000
     30 O33         3.5480    2.2560    4.0440 o         1 XNI     -0.325000
     31 O18        -0.0010   -3.4990    1.2590 o         1 XNI     -0.321000
     32 C9          0.4920   -2.5750    3.8740 c2        1 XNI     -0.099000
     33 C14        -1.2000   -1.2370    5.1370 c2        1 XNI     -0.148000
     34 C13         2.8370   -5.1610    3.4500 c1        1 XNI     -0.172000
     35 N7          2.2620   -1.9840    2.2080 n3        1 XNI     -0.302000
     36 H1          4.2950    2.0310    1.2650 hc        1 XNI      0.111000
     37 H1A         3.0390    3.2480    1.7340 hc        1 XNI      0.111000
     38 H3          3.4630   -0.2650    0.2500 hc        1 XNI      0.105500
     39 H3A         1.6700   -0.5120    0.1300 hc        1 XNI      0.105500
     40 H11         2.9620   -0.2280    4.2240 ha        1 XNI      0.142000
     41 H12         2.5620   -2.1480    4.2830 h1        1 XNI      0.137000
     42 H15         0.8460   -0.6760    4.7550 ha        1 XNI      0.159000
     43 H19        -2.1370   -5.4950    2.4100 hc        1 XNI      0.122333
     44 H19A       -1.0890   -5.7660    0.9320 hc        1 XNI      0.122333
     45 H19B       -0.5140   -6.2820    2.5870 hc        1 XNI      0.122333
     46 H23        -1.9760   -5.5740    6.6100 ha        1 XNI      0.142000
     47 H24        -4.1660   -4.8780    7.6390 ha        1 XNI      0.153000
     48 H30        -7.4500   -0.5100   10.4600 ha        1 XNI      0.166500
     49 H31        -7.6470   -2.5010    1.1210 ha        1 XNI      0.234000
     50 H32        -6.0080    0.5400    9.9240 ha        1 XNI      0.166500
     51 H34         0.6470    1.4390    2.2010 hc        1 XNI      0.079667
     52 H34A        0.6710    2.9100    1.1390 hc        1 XNI      0.079667
     53 H34B        0.1030    1.3220    0.4730 hc        1 XNI      0.079667
     54 H35         2.3280    3.0980   -0.7100 hc        1 XNI      0.079667
     55 H35A        3.5240    1.7700   -1.0160 hc        1 XNI      0.079667
     56 H35B        1.7660    1.5100   -1.3820 hc        1 XNI      0.079667
     57 H20        -0.4880   -3.5720    6.3170 hc        1 XNI      0.121000
     58 H26        -6.0250   -2.1360    5.6250 h1        1 XNI      0.112000
     59 H26A       -7.0340   -3.1700    6.7600 h1        1 XNI      0.112000
     60 H29        -8.4280    0.4790    6.5460 ha        1 XNI      0.048000
     61 H28        -7.8640   -1.2020    4.1800 ha        1 XNI      0.234000
     62 H14        -1.5160   -0.1780    5.1140 ha        1 XNI      0.158000
     63 H13         3.2040   -6.1560    3.4710 ha        1 XNI      0.228000
     64 HN7         1.8170   -2.3850    1.4060 hn        1 XNI      0.240000
     65 O25        -5.2340   -2.5970    7.5490 os        1 XNI     -0.232000
@<TRIPOS>BOND
     1    1    2 1   
     2    1    6 1   
     3    1   36 1   
     4    1   37 1   
     5    2    3 1   
     6    2   22 1   
     7    2   23 1   
     8    3    4 1   
     9    3   38 1   
    10    3   39 1   
    11    4    5 1   
    12    4   35 1   
    13    5    6 1   
    14    5   40 1   
    15    6   30 1   
    16    7   10 1   
    17    7   32 1   
    18    7   35 1   
    19    7   41 1   
    20    8    9 1   
    21    8   13 1   
    22    8   32 1   
    23    9   12 1   
    24   10   34 1   
    25   11   32 1   
    26   11   33 1   
    27   11   42 1   
    28   12   17 1   
    29   12   25 1   
    30   12   57 1   
    31   13   14 1   
    32   13   31 1   
    33   14   43 1   
    34   14   44 1   
    35   14   45 1   
    36   15   24 1   
    37   15   25 1   
    38   15   26 1   
    39   16   17 1   
    40   16   26 1   
    41   16   47 1   
    42   17   46 1   
    43   18   21 1   
    44   18   27 1   
    45   18   29 1   
    46   19   28 1   
    47   19   49 1   
    48   20   21 1   
    49   20   48 1   
    50   20   50 1   
    51   22   51 1   
    52   22   52 1   
    53   22   53 1   
    54   23   54 1   
    55   23   55 1   
    56   23   56 1   
    57   25   33 1   
    58   26   65 1   
    59   27   58 1   
    60   27   59 1   
    61   27   65 1   
    62   28   61 1   
    63   29   60 1   
    64   33   62 1   
    65   34   63 1   
    66   35   64 1   
@<TRIPOS>SUBSTRUCTURE
     1 XNI         1 TEMP              0 ****  ****    0 ROOT
