@<TRIPOS>MOLECULE
XNI
   65    69     1     0     0
SMALL
bcc


@<TRIPOS>ATOM
      1 C1         -3.3250   -3.2520    0.5250 c3        1 XNI     -0.174400
      2 C2         -4.4710   -2.6060    1.2870 c3        1 XNI     -0.041000
      3 C3         -3.9370   -1.3820    2.0240 c3        1 XNI     -0.060200
      4 C4         -3.1900   -0.4110    1.1270 c2        1 XNI      0.199800
      5 C5         -2.5550   -0.8660    0.0060 ce        1 XNI     -0.306400
      6 C6         -2.6100   -2.2880   -0.3810 c         1 XNI      0.590300
      7 C8         -2.5060    2.0210    1.2080 ca        1 XNI      0.141600
      8 N10        -2.3620    1.3230   -1.1530 n         1 XNI     -0.395000
      9 C11        -1.8000   -0.0120   -0.9840 c3        1 XNI      0.209200
     10 C12        -2.2030    2.9890    2.1980 ca        1 XNI     -0.177000
     11 C15        -1.4100    3.4610   -0.4320 ca        1 XNI     -0.105000
     12 C16        -0.3180    0.0330   -0.6760 ca        1 XNI     -0.103300
     13 C17        -3.2670    1.5920   -2.1840 c         1 XNI      0.671100
     14 C19        -3.9470    2.9370   -2.2160 c3        1 XNI     -0.168100
     15 C21         1.9440    0.3260   -1.5150 ca        1 XNI     -0.013600
     16 C23         1.5660   -0.1830    0.8330 ca        1 XNI     -0.203000
     17 C24         0.1930   -0.2050    0.5990 ca        1 XNI     -0.077000
     18 C27         5.8280   -0.3360    1.0890 ca        1 XNI     -0.094300
     19 C30         8.6220   -0.3750    1.0190 ca        1 XNI     -0.126000
     20 C31         7.9110    0.4220    0.1220 ca        1 XNI     -0.131000
     21 C32         6.5170    0.4450    0.1560 ca        1 XNI     -0.113000
     22 C34        -5.5920   -2.2160    0.3370 c3        1 XNI     -0.092600
     23 C35        -5.0110   -3.5960    2.3130 c3        1 XNI     -0.092600
     24 CL36        2.9670    0.6550   -2.8320 cl        1 XNI     -0.076400
     25 C20         0.5660    0.2960   -1.7310 ca        1 XNI     -0.075000
     26 C22         2.4520    0.0840   -0.2190 ca        1 XNI      0.139100
     27 C26         4.3380   -0.3200    1.1800 c3        1 XNI      0.176700
     28 C29         7.9360   -1.1550    1.9500 ca        1 XNI     -0.131000
     29 C28         6.5430   -1.1400    1.9850 ca        1 XNI     -0.113000
     30 O33        -2.0690   -2.7130   -1.4120 o         1 XNI     -0.539100
     31 O18        -3.4870    0.7390   -3.0640 o         1 XNI     -0.591100
     32 C9         -2.1070    2.2720   -0.1370 ca        1 XNI      0.023600
     33 C14        -1.1360    4.3980    0.5550 ca        1 XNI     -0.145000
     34 C13        -1.5360    4.1600    1.8700 ca        1 XNI     -0.103000
     35 N7         -3.2490    0.8960    1.5930 nh        1 XNI     -0.632400
     36 H1         -2.5710   -3.6640    1.2500 hc        1 XNI      0.074700
     37 H1A        -3.7100   -4.1120   -0.0850 hc        1 XNI      0.074700
     38 H3         -4.8060   -0.8820    2.5330 hc        1 XNI      0.059200
     39 H3A        -3.2220   -1.7180    2.8240 hc        1 XNI      0.059200
     40 H11        -1.9050   -0.5240   -2.0020 h1        1 XNI      0.127700
     41 H12        -2.5020    2.8200    3.2440 ha        1 XNI      0.132000
     42 H15        -1.0740    3.6490   -1.4660 ha        1 XNI      0.146000
     43 H19        -3.1990    3.7440   -2.4050 hc        1 XNI      0.067700
     44 H19A       -4.6990    2.9350   -3.0430 hc        1 XNI      0.067700
     45 H19B       -4.4650    3.1420   -1.2480 hc        1 XNI      0.067700
     46 H23         1.9410   -0.3730    1.8480 ha        1 XNI      0.138000
     47 H24        -0.4920   -0.4170    1.4350 ha        1 XNI      0.134000
     48 H30         9.7210   -0.3910    0.9920 ha        1 XNI      0.131000
     49 H31         8.4490    1.0350   -0.6160 ha        1 XNI      0.132500
     50 H32         5.9530    1.0690   -0.5550 ha        1 XNI      0.141500
     51 H34        -5.9810   -3.1210   -0.1890 hc        1 XNI      0.042700
     52 H34A       -6.4310   -1.7430    0.9010 hc        1 XNI      0.042700
     53 H34B       -5.2180   -1.4920   -0.4270 hc        1 XNI      0.042700
     54 H35        -4.2100   -3.9000    3.0280 hc        1 XNI      0.042700
     55 H35A       -5.8500   -3.1360    2.8880 hc        1 XNI      0.042700
     56 H35B       -5.3920   -4.5090    1.7950 hc        1 XNI      0.042700
     57 H20         0.1680    0.4720   -2.7440 ha        1 XNI      0.158000
     58 H26         4.0110    0.3800    1.9970 h1        1 XNI      0.049200
     59 H26A        3.9410   -1.3510    1.3830 h1        1 XNI      0.049200
     60 H29         8.4940   -1.7870    2.6560 ha        1 XNI      0.132500
     61 H28         6.0050   -1.7620    2.7150 ha        1 XNI      0.141500
     62 H14        -0.5970    5.3220    0.3000 ha        1 XNI      0.140000
     63 H13        -1.3150    4.8990    2.6550 ha        1 XNI      0.137000
     64 HN7        -3.6720    0.9930    2.4940 hn        1 XNI      0.428800
     65 O25         3.8220    0.1570   -0.0720 os        1 XNI     -0.316900
@<TRIPOS>BOND
     1    1    2 1   
     2    1    6 1   
     3    1   36 1   
     4    1   37 1   
     5    2    3 1   
     6    2   22 1   
     7    2   23 1   
     8    3    4 1   
     9    3   38 1   
    10    3   39 1   
    11    4    5 2   
    12    4   35 1   
    13    5    6 1   
    14    5    9 1   
    15    6   30 2   
    16    7   10 ar  
    17    7   32 ar  
    18    7   35 1   
    19    8    9 1   
    20    8   13 1   
    21    8   32 1   
    22    9   12 1   
    23    9   40 1   
    24   10   34 ar  
    25   10   41 1   
    26   11   32 ar  
    27   11   33 ar  
    28   11   42 1   
    29   12   17 ar  
    30   12   25 ar  
    31   13   14 1   
    32   13   31 2   
    33   14   43 1   
    34   14   44 1   
    35   14   45 1   
    36   15   24 1   
    37   15   25 ar  
    38   15   26 ar  
    39   16   17 ar  
    40   16   26 ar  
    41   16   46 1   
    42   17   47 1   
    43   18   21 ar  
    44   18   27 1   
    45   18   29 ar  
    46   19   20 ar  
    47   19   28 ar  
    48   19   48 1   
    49   20   21 ar  
    50   20   49 1   
    51   21   50 1   
    52   22   51 1   
    53   22   52 1   
    54   22   53 1   
    55   23   54 1   
    56   23   55 1   
    57   23   56 1   
    58   25   57 1   
    59   26   65 1   
    60   27   58 1   
    61   27   59 1   
    62   27   65 1   
    63   28   29 ar  
    64   28   60 1   
    65   29   61 1   
    66   33   34 ar  
    67   33   62 1   
    68   34   63 1   
    69   35   64 1   
@<TRIPOS>SUBSTRUCTURE
     1 XNI         1 TEMP              0 ****  ****    0 ROOT
