@<TRIPOS>MOLECULE
XNI
   65    67     1     0     0
SMALL
bcc


@<TRIPOS>ATOM
      1 C1          1.3940    1.1880    0.4640 c3        1 XNI     -0.175400
      2 C2          2.2240    0.0670   -0.1500 c3        1 XNI     -0.040000
      3 C3          3.1090   -0.5790    0.9180 c3        1 XNI     -0.051200
      4 C4          2.3240   -0.9920    2.1360 c2        1 XNI      0.160800
      5 C5          1.2010   -0.3180    2.4950 ce        1 XNI     -0.326200
      6 C6          0.6490    0.7790    1.7040 c         1 XNI      0.587300
      7 C8          2.2790   -2.4300    4.1030 ce        1 XNI      0.163300
      8 N10         0.4000   -3.7640    3.1960 n         1 XNI     -0.224600
      9 C11        -0.9090   -3.9420    3.0980 cg        1 XNI     -0.088300
     10 C12         2.9930   -1.9800    5.2450 cg        1 XNI     -0.195300
     11 C15         0.6530   -3.3950    5.6450 cf        1 XNI     -0.160000
     12 C16        -1.9130   -3.5440    4.0680 ce        1 XNI     -0.131900
     13 C17         1.1730   -4.2920    2.0680 c         1 XNI      0.719100
     14 C19         2.1220   -5.4120    2.3860 c3        1 XNI     -0.175100
     15 C21        -4.1780   -3.8580    4.9290 cf        1 XNI     -0.043600
     16 C23        -2.8250   -1.9650    5.8410 c3        1 XNI     -0.059200
     17 C24        -1.6050   -2.5130    5.1090 c3        1 XNI     -0.013300
     18 C27        -6.4850   -1.2460    7.8850 cc        1 XNI     -0.117200
     19 C30        -9.8410    2.4610    6.7380 c1        1 XNI     -0.165000
     20 C31        -7.7700    0.7830    9.0640 c2        1 XNI     -0.270000
     21 C32        -7.3950   -0.3920    8.6150 cc        1 XNI     -0.077000
     22 C34         1.3210   -0.9830   -0.7800 c3        1 XNI     -0.093600
     23 C35         3.1230    0.6590   -1.2290 c3        1 XNI     -0.093600
     24 Cl36       -5.5620   -4.8380    4.8540 cl        1 XNI     -0.075400
     25 C20        -3.1220   -4.1490    3.9850 cf        1 XNI      0.001000
     26 C22        -4.0170   -2.8570    5.8350 c2        1 XNI      0.096900
     27 C26        -5.2630   -1.2870    7.1060 c3        1 XNI      0.209600
     28 C29       -10.5190    3.0870    5.9780 c1        1 XNI     -0.165000
     29 C28        -7.5530   -1.8170    8.4510 cd        1 XNI     -0.087000
     30 O33        -0.3790    1.3770    2.0540 o         1 XNI     -0.555100
     31 O18         1.0030   -3.8420    0.9370 o         1 XNI     -0.489100
     32 C9          1.1410   -3.1880    4.2710 cf        1 XNI      0.027600
     33 C14        -0.5840   -3.0810    6.0440 c2        1 XNI     -0.117200
     34 C13         3.6030   -1.5900    6.1980 c1        1 XNI     -0.111500
     35 N7          2.8110   -2.1240    2.8190 nu        1 XNI     -0.611800
     36 H1          2.0690    2.0420    0.7470 hc        1 XNI      0.072200
     37 H1A         0.6640    1.5740   -0.2950 hc        1 XNI      0.072200
     38 H3          3.8930    0.1570    1.2460 hc        1 XNI      0.060700
     39 H3A         3.6350   -1.4570    0.4570 hc        1 XNI      0.060700
     40 H11         0.6270   -0.5800    3.3990 ha        1 XNI      0.149000
     41 H12        -1.1270   -1.6300    4.5800 hc        1 XNI      0.082700
     42 H15         1.4030   -3.7950    6.3460 ha        1 XNI      0.148000
     43 H19         1.5420   -6.3160    2.6960 hc        1 XNI      0.074700
     44 H19A        2.8150   -5.1220    3.2130 hc        1 XNI      0.074700
     45 H19B        2.7180   -5.6540    1.4720 hc        1 XNI      0.074700
     46 H23        -2.5490   -1.7300    6.9050 hc        1 XNI      0.068700
     47 H24        -3.1280   -0.9940    5.3560 hc        1 XNI      0.068700
     48 H30        -8.6790    0.9110    9.6650 ha        1 XNI      0.126500
     49 H31        -9.2370    1.9020    7.4120 ha        1 XNI      0.163500
     50 H32        -7.1890    1.6940    8.8740 ha        1 XNI      0.126500
     51 H34         0.7240   -1.5100    0.0050 hc        1 XNI      0.043200
     52 H34A        1.9320   -1.7440   -1.3220 hc        1 XNI      0.043200
     53 H34B        0.6210   -0.5050   -1.5070 hc        1 XNI      0.043200
     54 H35         2.5000    1.1290   -2.0270 hc        1 XNI      0.043200
     55 H35A        3.7980    1.4370   -0.7990 hc        1 XNI      0.043200
     56 H35B        3.7500   -0.1410   -1.6910 hc        1 XNI      0.043200
     57 H20        -3.3250   -4.8940    3.1960 ha        1 XNI      0.169000
     58 H26        -5.3910   -0.7130    6.1460 h1        1 XNI      0.064700
     59 H26A       -4.4080   -0.8510    7.6940 h1        1 XNI      0.064700
     60 H29        -8.1430   -2.6850    8.6630 ha        1 XNI      0.199000
     61 H28       -11.1200    3.6430    5.3050 ha        1 XNI      0.163500
     62 H14        -0.8980   -3.2370    7.0890 ha        1 XNI      0.139000
     63 H13         4.1400   -1.2440    7.0450 ha        1 XNI      0.172500
     64 HN7         3.8100   -2.1960    2.7910 hn        1 XNI      0.410800
     65 O25        -4.9700   -2.6700    6.8180 os        1 XNI     -0.320900
@<TRIPOS>BOND
     1    1    2 1   
     2    1    6 1   
     3    1   36 1   
     4    1   37 1   
     5    2    3 1   
     6    2   22 1   
     7    2   23 1   
     8    3    4 1   
     9    3   38 1   
    10    3   39 1   
    11    4    5 2   
    12    4   35 1   
    13    5    6 1   
    14    5   40 1   
    15    6   30 2   
    16    7   10 1   
    17    7   32 2   
    18    7   35 1   
    19    8    9 3   
    20    8   13 1   
    21    8   32 1   
    22    9   12 1   
    23   10   34 3   
    24   11   32 1   
    25   11   33 2   
    26   11   42 1   
    27   12   17 1   
    28   12   25 2   
    29   13   14 1   
    30   13   31 2   
    31   14   43 1   
    32   14   44 1   
    33   14   45 1   
    34   15   24 1   
    35   15   25 1   
    36   15   26 2   
    37   16   17 1   
    38   16   26 1   
    39   16   46 1   
    40   16   47 1   
    41   17   33 1   
    42   17   41 1   
    43   18   21 1   
    44   18   27 1   
    45   18   29 2   
    46   19   28 3   
    47   19   49 1   
    48   20   21 2   
    49   20   48 1   
    50   20   50 1   
    51   21   29 1   
    52   22   51 1   
    53   22   52 1   
    54   22   53 1   
    55   23   54 1   
    56   23   55 1   
    57   23   56 1   
    58   25   57 1   
    59   26   65 1   
    60   27   58 1   
    61   27   59 1   
    62   27   65 1   
    63   28   61 1   
    64   29   60 1   
    65   33   62 1   
    66   34   63 1   
    67   35   64 1   
@<TRIPOS>SUBSTRUCTURE
     1 XNI         1 TEMP              0 ****  ****    0 ROOT
