@<TRIPOS>MOLECULE
XNM
   55    58     1     0     0
SMALL
bcc


@<TRIPOS>ATOM
      1 CLAA      -10.0990   -1.4650    0.6810 cl        1 XNM     -0.087400
      2 CAB        -8.5330   -0.8600    0.4210 ca        1 XNM      0.030400
      3 CAC        -8.2730   -0.0670   -0.7010 ca        1 XNM     -0.132000
      4 CAD        -6.9890    0.4300   -0.9090 ca        1 XNM     -0.089500
      5 CAE        -7.5130   -1.1610    1.3290 ca        1 XNM     -0.132000
      6 CAF        -6.2290   -0.6650    1.1130 ca        1 XNM     -0.089500
      7 CAG        -5.9610    0.1390   -0.0020 cp        1 XNM     -0.158500
      8 CAH        -4.6120    0.6880   -0.2340 cp        1 XNM      0.531800
      9 NAI        -3.5370   -0.0920    0.0230 nb        1 XNM     -0.743000
     10 CAJ        -2.2880    0.4650   -0.2250 ca        1 XNM      0.868900
     11 NAK        -1.1860   -0.4010   -0.0430 nh        1 XNM     -0.709300
     12 CAL         0.1320    0.0800    0.1280 ca        1 XNM      0.152600
     13 CAM         0.7620    0.8810   -0.8470 ca        1 XNM     -0.148000
     14 CAN         2.0870    1.2700   -0.6810 ca        1 XNM     -0.080000
     15 OAO         4.4850    2.5480    0.5240 o         1 XNM     -0.591100
     16 CAP        -4.4810    2.0140   -0.7080 ca        1 XNM     -0.403600
     17 CAQ        -3.1760    2.4920   -0.9050 ca        1 XNM      0.461200
     18 NAR        -2.0750    1.7600   -0.6780 nb        1 XNM     -0.728000
     19 CAS         0.8770   -0.3270    1.2600 ca        1 XNM     -0.148000
     20 CAT         2.2060    0.0520    1.4030 ca        1 XNM     -0.080000
     21 CAU         2.8190    0.8510    0.4340 ca        1 XNM     -0.149600
     22 CAV         4.2210    1.3310    0.5960 c         1 XNM      0.665700
     23 NAW         5.2210    0.4070    0.9090 n         1 XNM     -0.453800
     24 CAX         6.5920    0.8590    1.0340 c3        1 XNM      0.078000
     25 CAY         7.5000    0.4270   -0.1370 c3        1 XNM      0.142800
     26 CAZ         5.1050   -0.9910    0.5650 c3        1 XNM      0.078000
     27 CBA         6.0130   -1.4240   -0.6090 c3        1 XNM      0.142800
     28 NBB         7.3940   -0.9920   -0.4460 n3        1 XNM     -0.740600
     29 CBC         8.2330   -1.3890   -1.5680 c3        1 XNM      0.125800
     30 CBD         9.7110   -1.5520   -1.1870 c3        1 XNM      0.135400
     31 OBE         9.9290   -2.6770   -0.3640 oh        1 XNM     -0.600800
     32 HAC        -9.0760    0.1630   -1.4180 ha        1 XNM      0.151000
     33 HAD        -6.7820    1.0480   -1.7970 ha        1 XNM      0.148000
     34 HAE        -7.7190   -1.7890    2.2090 ha        1 XNM      0.151000
     35 HAF        -5.4250   -0.9090    1.8250 ha        1 XNM      0.148000
     36 HNAK       -1.3930   -1.2230    0.4910 hn        1 XNM      0.439800
     37 HAM         0.2160    1.2110   -1.7440 ha        1 XNM      0.149000
     38 HAN         2.5650    1.9220   -1.4300 ha        1 XNM      0.148500
     39 HAP        -5.3570    2.6420   -0.8980 ha        1 XNM      0.159000
     40 HAQ        -2.9920    3.5230   -1.2620 h4        1 XNM      0.031100
     41 HAS         0.4110   -0.9490    2.0400 ha        1 XNM      0.149000
     42 HAT         2.7710   -0.2680    2.2930 ha        1 XNM      0.148500
     43 HAX         6.6210    1.9820    1.1040 h1        1 XNM      0.067450
     44 HAXA        6.9970    0.4260    1.9920 h1        1 XNM      0.067450
     45 HAY         7.2630    1.0690   -1.0360 h1        1 XNM      0.041200
     46 HAYA        8.5650    0.6360    0.1630 h1        1 XNM      0.041200
     47 HAZ         5.3890   -1.5870    1.4800 h1        1 XNM      0.067450
     48 HAZA        4.0450   -1.2490    0.2900 h1        1 XNM      0.067450
     49 HBA         6.0050   -2.5490   -0.6460 h1        1 XNM      0.041200
     50 HBAA        5.5670   -1.0420   -1.5730 h1        1 XNM      0.041200
     51 HBC         7.8720   -2.3850   -1.9520 h1        1 XNM      0.044700
     52 HBCA        8.1730   -0.6490   -2.4180 h1        1 XNM      0.044700
     53 HBD        10.3050   -1.7610   -2.1170 h1        1 XNM      0.044700
     54 HBDA       10.1110   -0.6270   -0.6920 h1        1 XNM      0.044700
     55 HOBE        9.3910   -2.5650    0.4290 ho        1 XNM      0.412000
@<TRIPOS>BOND
     1    1    2 1   
     2    2    3 ar  
     3    2    5 ar  
     4    3    4 ar  
     5    3   32 1   
     6    4    7 ar  
     7    4   33 1   
     8    5    6 ar  
     9    5   34 1   
    10    6    7 ar  
    11    6   35 1   
    12    7    8 1   
    13    8    9 ar  
    14    8   16 ar  
    15    9   10 ar  
    16   10   11 1   
    17   10   18 ar  
    18   11   12 1   
    19   11   36 1   
    20   12   13 ar  
    21   12   19 ar  
    22   13   14 ar  
    23   13   37 1   
    24   14   21 ar  
    25   14   38 1   
    26   15   22 2   
    27   16   17 ar  
    28   16   39 1   
    29   17   18 ar  
    30   17   40 1   
    31   19   20 ar  
    32   19   41 1   
    33   20   21 ar  
    34   20   42 1   
    35   21   22 1   
    36   22   23 1   
    37   23   24 1   
    38   23   26 1   
    39   24   25 1   
    40   24   43 1   
    41   24   44 1   
    42   25   28 1   
    43   25   45 1   
    44   25   46 1   
    45   26   27 1   
    46   26   47 1   
    47   26   48 1   
    48   27   28 1   
    49   27   49 1   
    50   27   50 1   
    51   28   29 1   
    52   29   30 1   
    53   29   51 1   
    54   29   52 1   
    55   30   31 1   
    56   30   53 1   
    57   30   54 1   
    58   31   55 1   
@<TRIPOS>SUBSTRUCTURE
     1 XNM         1 TEMP              0 ****  ****    0 ROOT
