@<TRIPOS>MOLECULE
XNM
   56    59     1     0     0
SMALL
bcc


@<TRIPOS>ATOM
      1 CLAA        2.3290    3.2280    1.2480 cl        1 XNM     -0.042400
      2 CAB         3.4360    2.0750    0.6950 ca        1 XNM      0.052400
      3 CAC         4.2330    1.3790    1.6130 ca        1 XNM     -0.127500
      4 CAD         5.1390    0.4270    1.1570 ca        1 XNM     -0.076500
      5 CAE         3.5530    1.8220   -0.6770 ca        1 XNM     -0.127500
      6 CAF         4.4660    0.8740   -1.1300 ca        1 XNM     -0.076500
      7 CAG         5.2600    0.1660   -0.2170 cp        1 XNM     -0.206500
      8 CAH         6.2140   -0.8510   -0.6740 cp        1 XNM      0.553800
      9 NAI         6.9140   -0.6370   -1.8250 nb        1 XNM     -0.678000
     10 CAJ         7.7860   -1.6290   -2.1790 ca        1 XNM      0.712900
     11 NAK         8.5830   -1.3860   -3.4280 n4        1 XNM     -0.608100
     12 CAL         9.8420   -0.6970   -3.1210 ca        1 XNM     -0.048400
     13 CAM         9.8600    0.7060   -3.0380 ca        1 XNM     -0.097000
     14 CAN        11.0610    1.3500   -2.7490 ca        1 XNM     -0.080500
     15 OAO        13.4500    2.0290   -1.1050 o         1 XNM     -0.569100
     16 CAP         6.4010   -2.0380    0.0820 ca        1 XNM     -0.309600
     17 CAQ         7.3250   -2.9850   -0.3910 ca        1 XNM      0.459200
     18 NAR         8.0390   -2.8060   -1.5220 nb        1 XNM     -0.673000
     19 CAS        11.0090   -1.4520   -2.9080 ca        1 XNM     -0.097000
     20 CAT        12.2020   -0.7890   -2.6280 ca        1 XNM     -0.080500
     21 CAU        12.2300    0.6070   -2.5480 ca        1 XNM     -0.068600
     22 CAV        13.4790    1.3320   -2.1380 c         1 XNM      0.646700
     23 NAW        14.6440    1.1260   -2.8610 n         1 XNM     -0.437800
     24 CAX        15.8400    1.8710   -2.5060 c3        1 XNM      0.073500
     25 CAY        16.2210    2.9610   -3.5300 c3        1 XNM      0.143300
     26 CAZ        14.6310    0.6750   -4.2370 c3        1 XNM      0.073500
     27 CBA        15.0040    1.7770   -5.2520 c3        1 XNM      0.143300
     28 NBB        16.2360    2.4660   -4.9000 n3        1 XNM     -0.729600
     29 CBC        16.5940    3.5100   -5.8510 c3        1 XNM      0.168800
     30 CBD        16.9670    2.9820   -7.2410 c3        1 XNM      0.126400
     31 OBE        15.7610    2.6890   -7.9300 oh        1 XNM     -0.616800
     32 HAC         4.1450    1.5830    2.6920 ha        1 XNM      0.166000
     33 HAD         5.7710   -0.1080    1.8830 ha        1 XNM      0.145500
     34 HAE         2.9250    2.3690   -1.3980 ha        1 XNM      0.166000
     35 HAF         4.5500    0.6810   -2.2110 ha        1 XNM      0.145500
     36 HNAK        8.0260   -0.8040   -4.0710 hn        1 XNM      0.476300
     37 HAM         8.9430    1.3030   -3.1790 ha        1 XNM      0.166500
     38 HAN        11.0880    2.4500   -2.6580 ha        1 XNM      0.181000
     39 HAP         5.8270   -2.2140    1.0040 ha        1 XNM      0.193000
     40 HAQ         7.5160   -3.9360    0.1460 h4        1 XNM      0.069100
     41 HAS        10.9980   -2.5540   -2.9490 ha        1 XNM      0.166500
     42 HAT        13.1230   -1.3720   -2.4580 ha        1 XNM      0.181000
     43 HAX        15.7040    2.3610   -1.5010 h1        1 XNM      0.069200
     44 HAXA       16.6790    1.1210   -2.4330 h1        1 XNM      0.069200
     45 HAY        17.2610    3.3110   -3.2760 h1        1 XNM      0.051200
     46 HAYA       15.5200    3.8380   -3.4060 h1        1 XNM      0.051200
     47 HAZ        15.3800   -0.1650   -4.3160 h1        1 XNM      0.069200
     48 HAZA       13.6190    0.2740   -4.5160 h1        1 XNM      0.069200
     49 HBA        14.1360    2.4930   -5.3520 h1        1 XNM      0.051200
     50 HBAA       15.1590    1.2880   -6.2560 h1        1 XNM      0.051200
     51 HBC        15.7640    4.2660   -5.9740 h1        1 XNM      0.049200
     52 HBCA       17.5000    4.0430   -5.4440 h1        1 XNM      0.049200
     53 HBD        17.5330    3.7870   -7.7840 h1        1 XNM      0.039700
     54 HBDA       17.6030    2.0590   -7.1780 h1        1 XNM      0.039700
     55 HOBE       16.0040    2.4900   -8.8410 ho        1 XNM      0.407000
     56 HAK2        8.7870   -2.2920   -3.8730 hn        1 XNM      0.476300
@<TRIPOS>BOND
     1    1    2 1   
     2    2    3 ar  
     3    2    5 ar  
     4    3    4 ar  
     5    3   32 1   
     6    4    7 ar  
     7    4   33 1   
     8    5    6 ar  
     9    5   34 1   
    10    6    7 ar  
    11    6   35 1   
    12    7    8 1   
    13    8    9 ar  
    14    8   16 ar  
    15    9   10 ar  
    16   10   11 1   
    17   10   18 ar  
    18   11   12 1   
    19   11   36 1   
    20   11   56 1   
    21   12   13 ar  
    22   12   19 ar  
    23   13   14 ar  
    24   13   37 1   
    25   14   21 ar  
    26   14   38 1   
    27   15   22 2   
    28   16   17 ar  
    29   16   39 1   
    30   17   18 ar  
    31   17   40 1   
    32   19   20 ar  
    33   19   41 1   
    34   20   21 ar  
    35   20   42 1   
    36   21   22 1   
    37   22   23 1   
    38   23   24 1   
    39   23   26 1   
    40   24   25 1   
    41   24   43 1   
    42   24   44 1   
    43   25   28 1   
    44   25   45 1   
    45   25   46 1   
    46   26   27 1   
    47   26   47 1   
    48   26   48 1   
    49   27   28 1   
    50   27   49 1   
    51   27   50 1   
    52   28   29 1   
    53   29   30 1   
    54   29   51 1   
    55   29   52 1   
    56   30   31 1   
    57   30   53 1   
    58   30   54 1   
    59   31   55 1   
@<TRIPOS>SUBSTRUCTURE
     1 XNM         1 TEMP              0 ****  ****    0 ROOT
