@<TRIPOS>MOLECULE
XNM
   55    58     1     0     0
SMALL
bcc


@<TRIPOS>ATOM
      1 ClAA       -0.0340   -0.8760   -0.0070 cl        1 XNM     -0.087400
      2 CAB         1.6410   -0.5930    0.0180 ca        1 XNM      0.030400
      3 CAC         2.1780    0.3120    0.9410 ca        1 XNM     -0.132000
      4 CAD         3.5510    0.5390    0.9620 ca        1 XNM     -0.089500
      5 CAE         2.4730   -1.2640   -0.8840 ca        1 XNM     -0.132000
      6 CAF         3.8470   -1.0290   -0.8610 ca        1 XNM     -0.089500
      7 CAG         4.3940   -0.1330    0.0650 cp        1 XNM     -0.158500
      8 CAH         5.8480    0.1120    0.1140 cp        1 XNM      0.531800
      9 NAI         6.5360    0.1940   -1.0480 nb        1 XNM     -0.743000
     10 CAJ         7.9000    0.4390   -0.9500 ca        1 XNM      0.868900
     11 NAK         8.5790    0.6190   -2.1760 nu        1 XNM     -0.709300
     12 CAL         9.9810    0.4910   -2.2890 ca        1 XNM      0.152600
     13 CAM        10.8630    1.2960   -1.5390 ca        1 XNM     -0.148000
     14 CAN        12.2370    1.1960   -1.7340 ca        1 XNM     -0.080000
     15 OAO        14.9570    0.0020   -1.8360 o         1 XNM     -0.591100
     16 CAP         6.4810    0.2430    1.3720 ca        1 XNM     -0.403600
     17 CAQ         7.8670    0.4660    1.3650 ca        1 XNM      0.461200
     18 NAR         8.5970    0.5690    0.2450 nb        1 XNM     -0.728000
     19 CAS        10.5200   -0.4020   -3.2460 ca        1 XNM     -0.148000
     20 CAT        11.8930   -0.4770   -3.4450 ca        1 XNM     -0.080000
     21 CAU        12.7590    0.3220   -2.6920 ca        1 XNM     -0.149600
     22 CAV        14.2390    0.2120   -2.8340 c         1 XNM      0.665700
     23 NAW        14.8020    0.2690   -4.1120 n         1 XNM     -0.453800
     24 CAX        16.2420    0.1980   -4.2580 c3        1 XNM      0.078000
     25 CAY        16.8970    1.5400   -4.6460 c3        1 XNM      0.142800
     26 CAZ        14.1460    0.9430   -5.2080 c3        1 XNM      0.078000
     27 CBA        14.8000    2.2880   -5.5970 c3        1 XNM      0.142800
     28 NBB        16.2420    2.1860   -5.7750 n3        1 XNM     -0.740600
     29 CBC        16.8480    3.4650   -6.1210 c3        1 XNM      0.125800
     30 CBD        18.1480    3.3170   -6.9220 c3        1 XNM      0.135400
     31 OBE        17.9180    2.8420   -8.2310 oh        1 XNM     -0.600800
     32 HAC         1.5210    0.8440    1.6450 ha        1 XNM      0.151000
     33 HAD         3.9730    1.2570    1.6810 ha        1 XNM      0.148000
     34 HAE         2.0480   -1.9720   -1.6110 ha        1 XNM      0.151000
     35 HAF         4.4990   -1.5530   -1.5770 ha        1 XNM      0.148000
     36 HNAK        8.0720    0.2930   -2.9770 hn        1 XNM      0.439800
     37 HAM        10.4790    2.0070   -0.7910 ha        1 XNM      0.149000
     38 HAN        12.9230    1.8050   -1.1240 ha        1 XNM      0.148500
     39 HAP         5.9180    0.1580    2.3080 ha        1 XNM      0.159000
     40 HAQ         8.4340    0.5670    2.3100 h4        1 XNM      0.031100
     41 HAS         9.8570   -1.0470   -3.8430 ha        1 XNM      0.149000
     42 HAT        12.2990   -1.1800   -4.1890 ha        1 XNM      0.148500
     43 HAX        16.7090   -0.1540   -3.2950 h1        1 XNM      0.067450
     44 HAXA       16.4560   -0.5630   -5.0620 h1        1 XNM      0.067450
     45 HAY        16.9200    2.2090   -3.7370 h1        1 XNM      0.041200
     46 HAYA       17.9620    1.3260   -4.9420 h1        1 XNM      0.041200
     47 HAZ        13.0670    1.1450   -4.9640 h1        1 XNM      0.067450
     48 HAZA       14.1850    0.2510   -6.0990 h1        1 XNM      0.067450
     49 HBA        14.5280    3.0620   -4.8210 h1        1 XNM      0.041200
     50 HBAA       14.3530    2.6110   -6.5790 h1        1 XNM      0.041200
     51 HBC        16.1220    4.0450   -6.7590 h1        1 XNM      0.044700
     52 HBCA       17.0730    4.0840   -5.2040 h1        1 XNM      0.044700
     53 HBD        18.6040    4.3350   -7.0660 h1        1 XNM      0.044700
     54 HBDA       18.8830    2.6540   -6.3930 h1        1 XNM      0.044700
     55 HOBE       17.4750    1.9880   -8.1560 ho        1 XNM      0.412000
@<TRIPOS>BOND
     1    1    2 1   
     2    2    3 ar  
     3    2    5 ar  
     4    3    4 ar  
     5    3   32 1   
     6    4    7 ar  
     7    4   33 1   
     8    5    6 ar  
     9    5   34 1   
    10    6    7 ar  
    11    6   35 1   
    12    7    8 1   
    13    8    9 ar  
    14    8   16 ar  
    15    9   10 ar  
    16   10   11 1   
    17   10   18 ar  
    18   11   12 1   
    19   11   36 1   
    20   12   13 ar  
    21   12   19 ar  
    22   13   14 ar  
    23   13   37 1   
    24   14   21 ar  
    25   14   38 1   
    26   15   22 2   
    27   16   17 ar  
    28   16   39 1   
    29   17   18 ar  
    30   17   40 1   
    31   19   20 ar  
    32   19   41 1   
    33   20   21 ar  
    34   20   42 1   
    35   21   22 1   
    36   22   23 1   
    37   23   24 1   
    38   23   26 1   
    39   24   25 1   
    40   24   43 1   
    41   24   44 1   
    42   25   28 1   
    43   25   45 1   
    44   25   46 1   
    45   26   27 1   
    46   26   47 1   
    47   26   48 1   
    48   27   28 1   
    49   27   49 1   
    50   27   50 1   
    51   28   29 1   
    52   29   30 1   
    53   29   51 1   
    54   29   52 1   
    55   30   31 1   
    56   30   53 1   
    57   30   54 1   
    58   31   55 1   
@<TRIPOS>SUBSTRUCTURE
     1 XNM         1 TEMP              0 ****  ****    0 ROOT
