@<TRIPOS>MOLECULE
XNM
   55    58     1     0     0
SMALL
bcc


@<TRIPOS>ATOM
      1 CLAA       -0.0260   -0.8850    0.0160 cl        1 XNM     -0.087400
      2 CAB         1.6480   -0.5990    0.0380 ca        1 XNM      0.030400
      3 CAC         2.1840    0.3120    0.9550 ca        1 XNM     -0.132000
      4 CAD         3.5570    0.5420    0.9730 ca        1 XNM     -0.089500
      5 CAE         2.4800   -1.2720   -0.8620 ca        1 XNM     -0.132000
      6 CAF         3.8530   -1.0340   -0.8430 ca        1 XNM     -0.089500
      7 CAG         4.3990   -0.1320    0.0790 cp        1 XNM     -0.158500
      8 CAH         5.8530    0.1160    0.1250 cp        1 XNM      0.531800
      9 NAI         6.5390    0.1950   -1.0390 nb        1 XNM     -0.743000
     10 CAJ         7.9030    0.4430   -0.9440 ca        1 XNM      0.868900
     11 NAK         8.5790    0.6190   -2.1720 nh        1 XNM     -0.709300
     12 CAL         9.9820    0.4930   -2.2860 ca        1 XNM      0.152600
     13 CAM        10.8630    1.3040   -1.5410 ca        1 XNM     -0.148000
     14 CAN        12.2370    1.2050   -1.7380 ca        1 XNM     -0.080000
     15 OAO        14.9590    0.0150   -1.8370 o         1 XNM     -0.591100
     16 CAP         6.4870    0.2540    1.3810 ca        1 XNM     -0.403600
     17 CAQ         7.8730    0.4810    1.3710 ca        1 XNM      0.461200
     18 NAR         8.6010    0.5800    0.2490 nb        1 XNM     -0.728000
     19 CAS        10.5210   -0.4040   -3.2390 ca        1 XNM     -0.148000
     20 CAT        11.8950   -0.4770   -3.4390 ca        1 XNM     -0.080000
     21 CAU        12.7600    0.3270   -2.6920 ca        1 XNM     -0.149600
     22 CAV        14.2390    0.2190   -2.8350 c         1 XNM      0.665700
     23 NAW        14.8010    0.2700   -4.1140 n         1 XNM     -0.453800
     24 CAX        16.2410    0.2000   -4.2600 c3        1 XNM      0.078000
     25 CAY        16.8940    1.5410   -4.6570 c3        1 XNM      0.142800
     26 CAZ        14.1430    0.9370   -5.2130 c3        1 XNM      0.078000
     27 CBA        14.7950    2.2810   -5.6090 c3        1 XNM      0.142800
     28 NBB        16.2360    2.1810   -5.7880 n3        1 XNM     -0.740600
     29 CBC        16.8400    3.4580   -6.1410 c3        1 XNM      0.125800
     30 CBD        18.1400    3.3090   -6.9430 c3        1 XNM      0.135400
     31 OBE        17.9090    2.8270   -8.2490 oh        1 XNM     -0.600800
     32 HAC         1.5260    0.8460    1.6580 ha        1 XNM      0.151000
     33 HAD         3.9780    1.2640    1.6890 ha        1 XNM      0.148000
     34 HAE         2.0550   -1.9840   -1.5860 ha        1 XNM      0.151000
     35 HAF         4.5050   -1.5600   -1.5570 ha        1 XNM      0.148000
     36 HNAK        8.0720    0.2880   -2.9700 hn        1 XNM      0.439800
     37 HAM        10.4790    2.0170   -0.7960 ha        1 XNM      0.149000
     38 HAN        12.9220    1.8180   -1.1310 ha        1 XNM      0.148500
     39 HAP         5.9260    0.1720    2.3170 ha        1 XNM      0.159000
     40 HAQ         8.4420    0.5870    2.3140 h4        1 XNM      0.031100
     41 HAS         9.8590   -1.0520   -3.8330 ha        1 XNM      0.149000
     42 HAT        12.3000   -1.1830   -4.1810 ha        1 XNM      0.148500
     43 HAX        16.4560   -0.5640   -5.0610 h1        1 XNM      0.067450
     44 HAXA       16.7090   -0.1450   -3.2960 h1        1 XNM      0.067450
     45 HAY        17.9590    1.3280   -4.9530 h1        1 XNM      0.041200
     46 HAYA       16.9160    2.2160   -3.7510 h1        1 XNM      0.041200
     47 HAZ        13.0640    1.1390   -4.9690 h1        1 XNM      0.067450
     48 HAZA       14.1820    0.2410   -6.1000 h1        1 XNM      0.067450
     49 HBA        14.3460    2.5980   -6.5920 h1        1 XNM      0.041200
     50 HBAA       14.5220    3.0590   -4.8380 h1        1 XNM      0.041200
     51 HBC        17.0640    4.0830   -5.2280 h1        1 XNM      0.044700
     52 HBCA       16.1130    4.0340   -6.7820 h1        1 XNM      0.044700
     53 HBD        18.8750    2.6500   -6.4110 h1        1 XNM      0.044700
     54 HBDA       18.5930    4.3260   -7.0930 h1        1 XNM      0.044700
     55 HOBE       17.4670    1.9720   -8.1690 ho        1 XNM      0.412000
@<TRIPOS>BOND
     1    1    2 1   
     2    2    3 ar  
     3    2    5 ar  
     4    3    4 ar  
     5    3   32 1   
     6    4    7 ar  
     7    4   33 1   
     8    5    6 ar  
     9    5   34 1   
    10    6    7 ar  
    11    6   35 1   
    12    7    8 1   
    13    8    9 ar  
    14    8   16 ar  
    15    9   10 ar  
    16   10   11 1   
    17   10   18 ar  
    18   11   12 1   
    19   11   36 1   
    20   12   13 ar  
    21   12   19 ar  
    22   13   14 ar  
    23   13   37 1   
    24   14   21 ar  
    25   14   38 1   
    26   15   22 2   
    27   16   17 ar  
    28   16   39 1   
    29   17   18 ar  
    30   17   40 1   
    31   19   20 ar  
    32   19   41 1   
    33   20   21 ar  
    34   20   42 1   
    35   21   22 1   
    36   22   23 1   
    37   23   24 1   
    38   23   26 1   
    39   24   25 1   
    40   24   43 1   
    41   24   44 1   
    42   25   28 1   
    43   25   45 1   
    44   25   46 1   
    45   26   27 1   
    46   26   47 1   
    47   26   48 1   
    48   27   28 1   
    49   27   49 1   
    50   27   50 1   
    51   28   29 1   
    52   29   30 1   
    53   29   51 1   
    54   29   52 1   
    55   30   31 1   
    56   30   53 1   
    57   30   54 1   
    58   31   55 1   
@<TRIPOS>SUBSTRUCTURE
     1 XNM         1 TEMP              0 ****  ****    0 ROOT
