@<TRIPOS>MOLECULE
XNN
   57    62     1     0     0
SMALL
bcc


@<TRIPOS>ATOM
      1 C01         0.4170    0.0120   -0.5060 c3        1 XNN     -0.062000
      2 S02         2.0700   -0.2460    0.0080 ss        1 XNN     -0.185000
      3 C03         2.0970    0.1090    1.6720 ca        1 XNN     -0.038100
      4 C04         0.9480    0.1250    2.4660 ca        1 XNN     -0.126000
      5 C05         1.0160    0.3890    3.8300 ca        1 XNN     -0.130000
      6 C06         2.2500    0.6450    4.4230 ca        1 XNN     -0.124000
      7 C07         3.4120    0.6470    3.6580 ca        1 XNN     -0.108000
      8 C08         3.3570    0.3780    2.2750 ca        1 XNN      0.158600
      9 N09         4.5110    0.4490    1.4680 nu        1 XNN     -0.727300
     10 C10         5.7040   -0.2050    1.7400 ca        1 XNN      0.675900
     11 N11         5.8650   -0.9010    2.8820 nb        1 XNN     -0.790000
     12 C12         7.1120   -1.4850    3.1230 ca        1 XNN      0.871900
     13 N13         8.1770   -1.4590    2.2720 nb        1 XNN     -0.766000
     14 C14         8.0120   -0.7610    1.1090 ca        1 XNN      0.214000
     15 C15         9.1210   -0.6570    0.1220 ca        1 XNN      0.653900
     16 N16         8.9410    0.0300   -1.0340 nb        1 XNN     -0.785000
     17 C17         7.7120    0.6060   -1.2320 ca        1 XNN      0.662900
     18 N18         6.6470    0.5880   -0.4290 nb        1 XNN     -0.721000
     19 C19         6.8000   -0.1000    0.7540 ca        1 XNN      0.159000
     20 N20        10.3210   -1.2660    0.3950 nu        1 XNN     -0.858900
     21 C21        11.4470   -1.1960   -0.5020 c3        1 XNN      0.249800
     22 C22        12.6730   -1.8720    0.0590 cx        1 XNN     -0.153700
     23 C23        13.6610   -2.4600   -0.9130 cx        1 XNN     -0.124400
     24 C24        12.8240   -3.3650   -0.0610 cx        1 XNN     -0.124400
     25 N25         7.2980   -2.0670    4.4040 nh        1 XNN     -0.691300
     26 C26         8.1920   -3.2360    4.5760 cy        1 XNN      0.188300
     27 C27         7.0910   -3.9400    5.3920 cy        1 XNN     -0.154000
     28 C28         7.3480   -4.4230    6.8320 cy        1 XNN      0.143300
     29 N29         6.9650   -5.8030    6.4480 n7        1 XNN     -0.786200
     30 C30         6.6510   -5.3800    5.0630 cy        1 XNN      0.143300
     31 C31         6.1740   -2.7360    5.1000 cy        1 XNN      0.188300
     32 H01        -0.2690   -0.7860   -0.1410 h1        1 XNN      0.070700
     33 H01A        0.0170    0.9990   -0.1860 h1        1 XNN      0.070700
     34 H01B        0.4500   -0.0250   -1.6210 h1        1 XNN      0.070700
     35 H04        -0.0320   -0.0820    2.0070 ha        1 XNN      0.132000
     36 H05         0.0980    0.3920    4.4350 ha        1 XNN      0.134000
     37 H06         2.3110    0.8540    5.5010 ha        1 XNN      0.135000
     38 H07         4.3770    0.8650    4.1430 ha        1 XNN      0.157000
     39 HN09        4.3600    0.7400    0.5200 hn        1 XNN      0.475800
     40 H17         7.6080    1.1560   -2.1910 h5        1 XNN      0.051100
     41 HN20       10.4300   -1.7500    1.2550 hn        1 XNN      0.463800
     42 H21        11.6940   -0.1140   -0.7120 h1        1 XNN      0.057200
     43 H21A       11.1620   -1.6740   -1.4860 h1        1 XNN      0.057200
     44 H22        13.0640   -1.3770    0.9700 hc        1 XNN      0.086700
     45 H23        13.4520   -2.3960   -1.9960 hc        1 XNN      0.075200
     46 H23A       14.7390   -2.3580   -0.6960 hc        1 XNN      0.075200
     47 H24        12.0140   -3.9480   -0.5350 hc        1 XNN      0.075200
     48 H24A       13.3010   -3.9200    0.7670 hc        1 XNN      0.075200
     49 H26         9.1020   -2.9500    5.1560 h1        1 XNN      0.073950
     50 H26A        8.4850   -3.7740    3.6420 h1        1 XNN      0.073950
     51 H28         8.4170   -4.3810    7.1510 h1        1 XNN      0.059700
     52 H28A        6.7050   -3.9320    7.6000 h1        1 XNN      0.059700
     53 HN29        6.1660   -6.1380    6.9450 hn        1 XNN      0.348800
     54 H30         5.5820   -5.4710    4.7530 h1        1 XNN      0.059700
     55 H30A        7.3030   -5.9080    4.3280 h1        1 XNN      0.059700
     56 H31         5.8650   -2.1460    5.9960 h1        1 XNN      0.073950
     57 H31A        5.2810   -2.9800    4.4760 h1        1 XNN      0.073950
@<TRIPOS>BOND
     1    1    2 1   
     2    1   32 1   
     3    1   33 1   
     4    1   34 1   
     5    2    3 1   
     6    3    4 ar  
     7    3    8 ar  
     8    4    5 ar  
     9    4   35 1   
    10    5    6 ar  
    11    5   36 1   
    12    6    7 ar  
    13    6   37 1   
    14    7    8 ar  
    15    7   38 1   
    16    8    9 1   
    17    9   10 1   
    18    9   39 1   
    19   10   11 ar  
    20   10   19 ar  
    21   11   12 ar  
    22   12   13 ar  
    23   12   25 1   
    24   13   14 ar  
    25   14   15 ar  
    26   14   19 ar  
    27   15   16 ar  
    28   15   20 1   
    29   16   17 ar  
    30   17   18 ar  
    31   17   40 1   
    32   18   19 ar  
    33   20   21 1   
    34   20   41 1   
    35   21   22 1   
    36   21   42 1   
    37   21   43 1   
    38   22   23 1   
    39   22   24 1   
    40   22   44 1   
    41   23   24 1   
    42   23   45 1   
    43   23   46 1   
    44   24   47 1   
    45   24   48 1   
    46   25   26 1   
    47   25   31 1   
    48   26   27 1   
    49   26   49 1   
    50   26   50 1   
    51   27   28 1   
    52   27   30 1   
    53   27   31 1   
    54   28   29 1   
    55   28   51 1   
    56   28   52 1   
    57   29   30 1   
    58   29   53 1   
    59   30   54 1   
    60   30   55 1   
    61   31   56 1   
    62   31   57 1   
@<TRIPOS>SUBSTRUCTURE
     1 XNN         1 TEMP              0 ****  ****    0 ROOT
