@<TRIPOS>MOLECULE
XNN
   59    64     1     0     0
SMALL
bcc


@<TRIPOS>ATOM
      1 C01         0.9660   -1.0920   -0.3420 c3        1 XNN     -0.040000
      2 S02         2.5810   -0.8240    0.3030 ss        1 XNN     -0.214000
      3 C03         2.3890   -0.0600    1.8030 ca        1 XNN      0.027900
      4 C04         1.2320   -0.1560    2.5870 ca        1 XNN     -0.117000
      5 C05         1.1470    0.4690    3.8270 ca        1 XNN     -0.050000
      6 C06         2.2280    1.2070    4.3200 ca        1 XNN     -0.109000
      7 C07         3.3890    1.3320    3.5670 ca        1 XNN     -0.081000
      8 C08         3.4610    0.7140    2.3050 ca        1 XNN     -0.057400
      9 N09         4.6430    0.9270    1.4650 n4        1 XNN     -0.622100
     10 C10         5.8080    0.0370    1.7220 ca        1 XNN      0.558900
     11 N11         5.7620   -0.8480    2.6950 nb        1 XNN     -0.661000
     12 C12         6.9150   -1.6820    2.8840 ca        1 XNN      0.961900
     13 N13         8.0630   -1.6010    2.1030 nb        1 XNN     -0.800000
     14 C14         8.0660   -0.6720    1.1240 ca        1 XNN      0.304000
     15 C15         9.2220   -0.4840    0.2340 ca        1 XNN      0.440900
     16 N16         9.2370    0.4290   -0.7340 nb        1 XNN     -0.604000
     17 C17         8.1090    1.2160   -0.8850 ca        1 XNN      0.648900
     18 N18         6.9950    1.1530   -0.1530 nb        1 XNN     -0.628000
     19 C19         6.9660    0.2180    0.8430 ca        1 XNN      0.100000
     20 N20        10.3920   -1.3580    0.4570 n4        1 XNN     -0.746700
     21 C21        11.5690   -1.1210   -0.4550 c3        1 XNN      0.157800
     22 C22        12.6770   -2.0730   -0.1220 cx        1 XNN     -0.230700
     23 C23        13.5350   -2.5750   -1.2630 cx        1 XNN     -0.094900
     24 C24        12.5970   -3.5120   -0.5750 cx        1 XNN     -0.094900
     25 N25         6.8560   -2.5760    3.8840 nh        1 XNN     -0.714300
     26 C26         7.8080   -3.6000    4.3450 cy        1 XNN      0.235300
     27 C27         6.7470   -4.0280    5.3820 cy        1 XNN     -0.150000
     28 C28         7.1140   -4.1160    6.8790 cy        1 XNN      0.153800
     29 N29         6.7780   -5.5550    6.8780 n3        1 XNN     -0.775200
     30 C30         6.3040   -5.5040    5.4790 cy        1 XNN      0.153800
     31 C31         5.7990   -2.9340    4.8440 cy        1 XNN      0.235300
     32 H01         0.3460   -0.1670   -0.3440 h1        1 XNN      0.098367
     33 H01A        1.1370   -1.4240   -1.3960 h1        1 XNN      0.098367
     34 H01B        0.4270   -1.8960    0.2080 h1        1 XNN      0.098367
     35 H04         0.3730   -0.7400    2.2110 ha        1 XNN      0.171000
     36 H05         0.2230    0.3810    4.4250 ha        1 XNN      0.179000
     37 H06         2.1590    1.6980    5.3060 ha        1 XNN      0.177000
     38 H07         4.2330    1.9200    3.9630 ha        1 XNN      0.155000
     39 HN09        4.9690    1.8980    1.5910 hn        1 XNN      0.490300
     40 H17         8.1640    1.9690   -1.7070 h5        1 XNN      0.115100
     41 HN20       10.0810   -2.3350    0.3460 hn        1 XNN      0.471800
     42 H21        11.2190   -1.2580   -1.5190 hx        1 XNN      0.120200
     43 H21A       11.9110   -0.0540   -0.3180 hx        1 XNN      0.120200
     44 H22        13.1830   -1.8460    0.8390 hc        1 XNN      0.111700
     45 H23        13.3120   -2.2420   -2.2940 hc        1 XNN      0.098450
     46 H23A       14.6240   -2.6670   -1.0890 hc        1 XNN      0.098450
     47 H24        11.6980   -3.8600   -1.1150 hc        1 XNN      0.098450
     48 H24A       13.0080   -4.2970    0.0890 hc        1 XNN      0.098450
     49 H26         8.7450   -3.1640    4.7720 h1        1 XNN      0.093450
     50 H26A        8.0470   -4.3630    3.5630 h1        1 XNN      0.093450
     51 H28         8.1970   -3.9590    7.1040 h1        1 XNN      0.073450
     52 H28A        6.4920   -3.4620    7.5380 h1        1 XNN      0.073450
     53 HN29        6.0750   -5.8130    7.5390 hn        1 XNN      0.378800
     54 H30         6.8850   -6.2080    4.8340 h1        1 XNN      0.073450
     55 H30A        5.2100   -5.6610    5.3190 h1        1 XNN      0.073450
     56 H31         5.5650   -2.1080    5.5610 h1        1 XNN      0.093450
     57 H31A        4.8660   -3.3060    4.3520 h1        1 XNN      0.093450
     58 H092        4.3620    0.7870    0.4690 hn        1 XNN      0.490300
     59 H202       10.6960   -1.2300    1.4330 hn        1 XNN      0.471800
@<TRIPOS>BOND
     1    1    2 1   
     2    1   32 1   
     3    1   33 1   
     4    1   34 1   
     5    2    3 1   
     6    3    4 ar  
     7    3    8 ar  
     8    4    5 ar  
     9    4   35 1   
    10    5    6 ar  
    11    5   36 1   
    12    6    7 ar  
    13    6   37 1   
    14    7    8 ar  
    15    7   38 1   
    16    8    9 1   
    17    9   10 1   
    18    9   39 1   
    19    9   58 1   
    20   10   11 ar  
    21   10   19 ar  
    22   11   12 ar  
    23   12   13 ar  
    24   12   25 1   
    25   13   14 ar  
    26   14   15 ar  
    27   14   19 ar  
    28   15   16 ar  
    29   15   20 1   
    30   16   17 ar  
    31   17   18 ar  
    32   17   40 1   
    33   18   19 ar  
    34   20   21 1   
    35   20   41 1   
    36   20   59 1   
    37   21   22 1   
    38   21   42 1   
    39   21   43 1   
    40   22   23 1   
    41   22   24 1   
    42   22   44 1   
    43   23   24 1   
    44   23   45 1   
    45   23   46 1   
    46   24   47 1   
    47   24   48 1   
    48   25   26 1   
    49   25   31 1   
    50   26   27 1   
    51   26   49 1   
    52   26   50 1   
    53   27   28 1   
    54   27   30 1   
    55   27   31 1   
    56   28   29 1   
    57   28   51 1   
    58   28   52 1   
    59   29   30 1   
    60   29   53 1   
    61   30   54 1   
    62   30   55 1   
    63   31   56 1   
    64   31   57 1   
@<TRIPOS>SUBSTRUCTURE
     1 XNN         1 TEMP              0 ****  ****    0 ROOT
