@<TRIPOS>MOLECULE
XNN
   57    62     1     0     0
SMALL
bcc


@<TRIPOS>ATOM
      1 C01         5.4360    3.5850    1.5280 c3        1 XNN     -0.062000
      2 S02         3.9270    2.8080    1.0990 ss        1 XNN     -0.185000
      3 C03         4.3350    1.5940   -0.0210 ca        1 XNN     -0.037100
      4 C04         5.6290    1.0850   -0.1550 ca        1 XNN     -0.126000
      5 C05         5.9150    0.0690   -1.0620 ca        1 XNN     -0.129000
      6 C06         4.8970   -0.4540   -1.8570 ca        1 XNN     -0.123000
      7 C07         3.6000    0.0390   -1.7550 ca        1 XNN     -0.107000
      8 C08         3.2970    1.0650   -0.8380 ca        1 XNN      0.156600
      9 N09         2.0070    1.6300   -0.7700 nh        1 XNN     -0.727300
     10 C10         0.8350    0.9010   -0.6280 ca        1 XNN      0.675900
     11 N11         0.8530   -0.4460   -0.6460 nb        1 XNN     -0.789000
     12 C12        -0.3690   -1.1190   -0.5600 ca        1 XNN      0.872900
     13 N13        -1.5890   -0.5300   -0.4030 nb        1 XNN     -0.769000
     14 C14        -1.6090    0.8350   -0.3740 ca        1 XNN      0.215000
     15 C15        -2.8910    1.5740   -0.2240 ca        1 XNN      0.651900
     16 N16        -2.8970    2.9310   -0.1970 nb        1 XNN     -0.783000
     17 C17        -1.6830    3.5610   -0.3040 ca        1 XNN      0.661900
     18 N18        -0.4740    3.0160   -0.4400 nb        1 XNN     -0.720000
     19 C19        -0.4360    1.6410   -0.4790 ca        1 XNN      0.158000
     20 N20        -4.0610    0.8660   -0.0950 nh        1 XNN     -0.857900
     21 C21        -5.3480    1.5100   -0.0120 c3        1 XNN      0.248800
     22 C22        -6.4880    0.5230    0.0040 cx        1 XNN     -0.153700
     23 C23        -7.7550    0.9200    0.7130 cx        1 XNN     -0.124400
     24 C24        -6.8790   -0.1480    1.2940 cx        1 XNN     -0.124400
     25 N25        -0.3280   -2.5250   -0.7510 nh        1 XNN     -0.691300
     26 C26        -1.2980   -3.4030   -0.0600 cy        1 XNN      0.188800
     27 C27        -0.1380   -4.3220    0.3720 cy        1 XNN     -0.154000
     28 C28        -0.1180   -5.8170   -0.0000 cy        1 XNN      0.143300
     29 N29         0.0990   -6.1780    1.4200 n3        1 XNN     -0.786200
     30 C30         0.0340   -4.7590    1.8400 cy        1 XNN      0.143300
     31 C31         0.8320   -3.3200   -0.2830 cy        1 XNN      0.188800
     32 H01         6.0300    3.8900    0.6390 h1        1 XNN      0.070367
     33 H01A        5.1410    4.4970    2.1000 h1        1 XNN      0.070367
     34 H01B        6.0720    2.9430    2.1790 h1        1 XNN      0.070367
     35 H04         6.4390    1.4870    0.4720 ha        1 XNN      0.132000
     36 H05         6.9400   -0.3190   -1.1460 ha        1 XNN      0.134000
     37 H06         5.1160   -1.2580   -2.5750 ha        1 XNN      0.136000
     38 H07         2.8130   -0.3800   -2.4010 ha        1 XNN      0.156000
     39 HN09        1.9700    2.5990   -0.5140 hn        1 XNN      0.475800
     40 H17        -1.7350    4.6700   -0.2740 h5        1 XNN      0.051100
     41 HN20       -4.0330   -0.1230   -0.1800 hn        1 XNN      0.461800
     42 H21        -5.3760    2.1440    0.9230 h1        1 XNN      0.057200
     43 H21A       -5.4850    2.2040   -0.8930 h1        1 XNN      0.057200
     44 H22        -6.5750   -0.0580   -0.9360 hc        1 XNN      0.085700
     45 H23        -7.8040    1.9050    1.2120 hc        1 XNN      0.074450
     46 H23A       -8.7230    0.6390    0.2630 hc        1 XNN      0.074450
     47 H24        -7.2180   -1.1980    1.2660 hc        1 XNN      0.074450
     48 H24A       -6.2980    0.0740    2.2070 hc        1 XNN      0.074450
     49 H26        -1.8600   -2.9450    0.7900 h1        1 XNN      0.073700
     50 H26A       -2.0110   -3.8510   -0.7930 h1        1 XNN      0.073700
     51 H28        -1.0660   -6.1860   -0.4610 h1        1 XNN      0.059950
     52 H28A        0.7520   -6.1250   -0.6270 h1        1 XNN      0.059950
     53 HN29       -0.6420   -6.7310    1.8000 hn        1 XNN      0.347800
     54 H30         0.9960   -4.4380    2.3080 h1        1 XNN      0.059950
     55 H30A       -0.8200   -4.4820    2.5030 h1        1 XNN      0.059950
     56 H31         1.4080   -3.7180   -1.1530 h1        1 XNN      0.073700
     57 H31A        1.5220   -2.8150    0.4350 h1        1 XNN      0.073700
@<TRIPOS>BOND
     1    1    2 1   
     2    1   32 1   
     3    1   33 1   
     4    1   34 1   
     5    2    3 1   
     6    3    4 ar  
     7    3    8 ar  
     8    4    5 ar  
     9    4   35 1   
    10    5    6 ar  
    11    5   36 1   
    12    6    7 ar  
    13    6   37 1   
    14    7    8 ar  
    15    7   38 1   
    16    8    9 1   
    17    9   10 1   
    18    9   39 1   
    19   10   11 ar  
    20   10   19 ar  
    21   11   12 ar  
    22   12   13 ar  
    23   12   25 1   
    24   13   14 ar  
    25   14   15 ar  
    26   14   19 ar  
    27   15   16 ar  
    28   15   20 1   
    29   16   17 ar  
    30   17   18 ar  
    31   17   40 1   
    32   18   19 ar  
    33   20   21 1   
    34   20   41 1   
    35   21   22 1   
    36   21   42 1   
    37   21   43 1   
    38   22   23 1   
    39   22   24 1   
    40   22   44 1   
    41   23   24 1   
    42   23   45 1   
    43   23   46 1   
    44   24   47 1   
    45   24   48 1   
    46   25   26 1   
    47   25   31 1   
    48   26   27 1   
    49   26   49 1   
    50   26   50 1   
    51   27   28 1   
    52   27   30 1   
    53   27   31 1   
    54   28   29 1   
    55   28   51 1   
    56   28   52 1   
    57   29   30 1   
    58   29   53 1   
    59   30   54 1   
    60   30   55 1   
    61   31   56 1   
    62   31   57 1   
@<TRIPOS>SUBSTRUCTURE
     1 XNN         1 TEMP              0 ****  ****    0 ROOT
