@<TRIPOS>MOLECULE
XNN
   57    56     1     0     0
SMALL
bcc


@<TRIPOS>ATOM
      1 C01        -6.0910    3.7100    1.9560 c3        1 XNN     -0.372000
      2 S02        -4.8870    2.8380    0.9740 ss        1 XNN      0.248000
      3 C03        -4.7770    1.1420    1.5320 c2        1 XNN     -0.256000
      4 C04        -5.7600    0.6220    2.3720 c2        1 XNN     -0.121000
      5 C05        -5.7320   -0.7230    2.7260 c1        1 XNN     -0.135000
      6 C06        -4.7220   -1.5500    2.2410 c1        1 XNN     -0.123000
      7 C07        -3.7400   -1.0310    1.4020 c1        1 XNN     -0.123000
      8 C08        -3.7670    0.3140    1.0470 c1        1 XNN      0.089000
      9 N09        -2.8060    0.8290    0.1020 n3        1 XNN     -0.240000
     10 C10        -1.4240    0.4490    0.2040 c2        1 XNN      0.205000
     11 N11        -1.2610   -0.4050   -0.8240 n2        1 XNN     -0.258000
     12 C12        -0.0020   -0.7430   -1.2410 c1        1 XNN      0.149000
     13 N13         1.0940   -0.2140   -0.6130 n2        1 XNN     -0.229000
     14 C14         0.9310    0.6570    0.4350 c1        1 XNN     -0.052000
     15 C15         2.0470    1.2450    1.0360 c1        1 XNN      0.175000
     16 N16         1.8830    2.1430    2.0220 n1        1 XNN     -0.242000
     17 C17         0.6240    2.4810    2.4390 c1        1 XNN     -0.012000
     18 N18        -0.4700    1.9060    1.8520 n1        1 XNN     -0.154000
     19 C19        -0.3070    0.9900    0.8450 c1        1 XNN     -0.090000
     20 N20         3.4410    1.4760    0.7510 n3        1 XNN     -0.269000
     21 C21         4.4270    1.2920    1.7860 c3        1 XNN     -0.009000
     22 C22         4.2710   -0.1050    2.3990 cx        1 XNN     -0.200000
     23 C23         5.4870   -0.6390    3.1420 cx        1 XNN     -0.208000
     24 C24         5.1240   -1.1990    1.7740 cx        1 XNN     -0.208000
     25 N25         1.1780   -0.9250   -2.0320 n2        1 XNN     -0.181000
     26 C26         1.1760   -2.2770   -2.6150 cy        1 XNN     -0.047500
     27 C27         0.9810   -1.7140   -3.9650 cy        1 XNN     -0.154000
     28 C28         0.5650   -2.8000   -4.8710 cy        1 XNN     -0.093000
     29 N29         1.5380   -2.3550   -5.8810 n3        1 XNN     -0.264000
     30 C30         1.9530   -1.2660   -4.9810 cy        1 XNN     -0.093000
     31 C31         0.9610   -0.3620   -3.3750 cy        1 XNN     -0.047500
     32 H01        -6.8730    3.1380    2.0970 h1        1 XNN      0.108333
     33 H01A       -6.3650    4.5300    1.4860 h1        1 XNN      0.108333
     34 H01B       -5.6970    3.9450    2.8230 h1        1 XNN      0.108333
     35 H04        -6.4740    1.2060    2.7160 ha        1 XNN      0.132000
     36 H05        -6.4240   -1.0880    3.3180 ha        1 XNN      0.133000
     37 H06        -4.7030   -2.4990    2.4920 ha        1 XNN      0.135000
     38 H07        -3.0310   -1.6130    1.0610 ha        1 XNN      0.135000
     39 HN09       -3.0840    1.3640   -0.5870 hn        1 XNN      0.245000
     40 H17         0.5050    3.1380    3.1600 ha        1 XNN      0.192000
     41 HN20        3.6940    1.7980   -0.0740 hn        1 XNN      0.235000
     42 H21         5.3270    1.3820    1.4000 h1        1 XNN      0.107000
     43 H21A        4.3010    1.9730    2.4840 h1        1 XNN      0.107000
     44 H22         3.3970   -0.3910    2.7490 hc        1 XNN      0.136000
     45 H23         5.2960   -1.2250    3.9070 hc        1 XNN      0.110250
     46 H23A        6.2670   -0.0450    3.1640 hc        1 XNN      0.110250
     47 H24         5.7040   -0.9170    1.0280 hc        1 XNN      0.110250
     48 H24A        4.7280   -2.1010    1.7730 hc        1 XNN      0.110250
     49 H26         2.0400   -2.7330   -2.5170 h1        1 XNN      0.113000
     50 H26A        0.4110   -2.8180   -2.3160 h1        1 XNN      0.113000
     51 H28         0.7720   -3.6900   -4.5140 h1        1 XNN      0.099500
     52 H28A       -0.3630   -2.7060   -5.1740 h1        1 XNN      0.099500
     53 HN29        2.2180   -2.9740   -5.9470 hn        1 XNN      0.144000
     54 H30         2.8830   -1.3570   -4.6810 h1        1 XNN      0.099500
     55 H30A        1.7410   -0.3750   -5.3420 h1        1 XNN      0.099500
     56 H31         1.7120    0.1950   -3.6780 h1        1 XNN      0.113000
     57 H31A        0.0850    0.0780   -3.4640 h1        1 XNN      0.113000
@<TRIPOS>BOND
     1    1    2 1   
     2    1   32 1   
     3    1   33 1   
     4    1   34 1   
     5    2    3 1   
     6    3    4 1   
     7    3    8 1   
     8    4    5 1   
     9    4   35 1   
    10    5   36 1   
    11    6    7 1   
    12    6   37 1   
    13    7   38 1   
    14    8    9 1   
    15    9   10 1   
    16    9   39 1   
    17   10   11 1   
    18   10   19 1   
    19   11   12 1   
    20   12   13 1   
    21   13   14 1   
    22   14   19 1   
    23   15   16 1   
    24   15   20 1   
    25   17   18 1   
    26   17   40 1   
    27   20   21 1   
    28   20   41 1   
    29   21   22 1   
    30   21   42 1   
    31   21   43 1   
    32   22   23 1   
    33   22   24 1   
    34   22   44 1   
    35   23   24 1   
    36   23   45 1   
    37   23   46 1   
    38   24   47 1   
    39   24   48 1   
    40   25   26 1   
    41   25   31 1   
    42   26   27 1   
    43   26   49 1   
    44   26   50 1   
    45   27   28 1   
    46   27   30 1   
    47   27   31 1   
    48   28   29 1   
    49   28   51 1   
    50   28   52 1   
    51   29   30 1   
    52   29   53 1   
    53   30   54 1   
    54   30   55 1   
    55   31   56 1   
    56   31   57 1   
@<TRIPOS>SUBSTRUCTURE
     1 XNN         1 TEMP              0 ****  ****    0 ROOT
