@<TRIPOS>MOLECULE
XNN
   57    62     1     0     0
SMALL
bcc


@<TRIPOS>ATOM
      1 C01         0.4110   -0.0170   -0.5090 c3        1 XNN     -0.062000
      2 S02         2.0650   -0.2680    0.0050 ss        1 XNN     -0.185000
      3 C03         2.0930    0.0990    1.6660 ca        1 XNN     -0.038100
      4 C04         0.9450    0.1190    2.4610 ca        1 XNN     -0.126000
      5 C05         1.0150    0.3920    3.8230 ca        1 XNN     -0.130000
      6 C06         2.2500    0.6540    4.4130 ca        1 XNN     -0.124000
      7 C07         3.4110    0.6520    3.6460 ca        1 XNN     -0.108000
      8 C08         3.3540    0.3740    2.2660 ca        1 XNN      0.158600
      9 N09         4.5070    0.4400    1.4570 nh        1 XNN     -0.728300
     10 C10         5.7010   -0.2100    1.7310 ca        1 XNN      0.675900
     11 N11         5.8640   -0.8990    2.8780 nb        1 XNN     -0.790000
     12 C12         7.1130   -1.4800    3.1210 ca        1 XNN      0.871900
     13 N13         8.1770   -1.4570    2.2690 nb        1 XNN     -0.766000
     14 C14         8.0100   -0.7670    1.1020 ca        1 XNN      0.214000
     15 C15         9.1170   -0.6670    0.1130 ca        1 XNN      0.653900
     16 N16         8.9350    0.0120   -1.0470 nb        1 XNN     -0.785000
     17 C17         7.7050    0.5840   -1.2470 ca        1 XNN      0.662900
     18 N18         6.6410    0.5690   -0.4430 nb        1 XNN     -0.721000
     19 C19         6.7960   -0.1100    0.7440 ca        1 XNN      0.159000
     20 N20        10.3180   -1.2730    0.3890 nh        1 XNN     -0.858900
     21 C21        11.4440   -1.2060   -0.5090 c3        1 XNN      0.249800
     22 C22        12.6720   -1.8760    0.0550 cx        1 XNN     -0.153700
     23 C23        13.6610   -2.4670   -0.9130 cx        1 XNN     -0.124400
     24 C24        12.8270   -3.3690   -0.0560 cx        1 XNN     -0.124400
     25 N25         7.3000   -2.0530    4.4060 nh        1 XNN     -0.691300
     26 C26         8.1960   -3.2190    4.5850 cy        1 XNN      0.188300
     27 C27         7.0970   -3.9200    5.4060 cy        1 XNN     -0.154000
     28 C28         7.3560   -4.3940    6.8480 cy        1 XNN      0.143300
     29 N29         6.9750   -5.7760    6.4740 n3        1 XNN     -0.786200
     30 C30         6.6580   -5.3620    5.0870 cy        1 XNN      0.143300
     31 C31         6.1780   -2.7190    5.1070 cy        1 XNN      0.188300
     32 H01         0.4420   -0.0610   -1.6230 h1        1 XNN      0.070700
     33 H01A        0.0100    0.9730   -0.1950 h1        1 XNN      0.070700
     34 H01B       -0.2740   -0.8120   -0.1370 h1        1 XNN      0.070700
     35 H04        -0.0350   -0.0920    2.0060 ha        1 XNN      0.132000
     36 H05         0.0980    0.3990    4.4300 ha        1 XNN      0.134000
     37 H06         2.3120    0.8710    5.4900 ha        1 XNN      0.135000
     38 H07         4.3760    0.8740    4.1290 ha        1 XNN      0.157000
     39 HN09        4.3550    0.7250    0.5070 hn        1 XNN      0.475800
     40 H17         7.6000    1.1280   -2.2100 h5        1 XNN      0.051100
     41 HN20       10.4290   -1.7500    1.2530 hn        1 XNN      0.463800
     42 H21        11.1600   -1.6900   -1.4900 h1        1 XNN      0.057200
     43 H21A       11.6890   -0.1250   -0.7260 h1        1 XNN      0.057200
     44 H22        13.0620   -1.3750    0.9640 hc        1 XNN      0.086700
     45 H23        13.4510   -2.4090   -1.9960 hc        1 XNN      0.075200
     46 H23A       14.7390   -2.3610   -0.6970 hc        1 XNN      0.075200
     47 H24        12.0170   -3.9560   -0.5260 hc        1 XNN      0.075200
     48 H24A       13.3050   -3.9180    0.7750 hc        1 XNN      0.075200
     49 H26         9.1070   -2.9280    5.1620 h1        1 XNN      0.073950
     50 H26A        8.4890   -3.7630    3.6540 h1        1 XNN      0.073950
     51 H28         8.4250   -4.3480    7.1670 h1        1 XNN      0.059700
     52 H28A        6.7130   -3.8980    7.6140 h1        1 XNN      0.059700
     53 HN29        6.1760   -6.1090    6.9730 hn        1 XNN      0.348800
     54 H30         5.5890   -5.4570    4.7790 h1        1 XNN      0.059700
     55 H30A        7.3110   -5.8940    4.3540 h1        1 XNN      0.059700
     56 H31         5.2850   -2.9680    4.4860 h1        1 XNN      0.073950
     57 H31A        5.8700   -2.1240    6.0000 h1        1 XNN      0.073950
@<TRIPOS>BOND
     1    1    2 1   
     2    1   32 1   
     3    1   33 1   
     4    1   34 1   
     5    2    3 1   
     6    3    4 ar  
     7    3    8 ar  
     8    4    5 ar  
     9    4   35 1   
    10    5    6 ar  
    11    5   36 1   
    12    6    7 ar  
    13    6   37 1   
    14    7    8 ar  
    15    7   38 1   
    16    8    9 1   
    17    9   10 1   
    18    9   39 1   
    19   10   11 ar  
    20   10   19 ar  
    21   11   12 ar  
    22   12   13 ar  
    23   12   25 1   
    24   13   14 ar  
    25   14   15 ar  
    26   14   19 ar  
    27   15   16 ar  
    28   15   20 1   
    29   16   17 ar  
    30   17   18 ar  
    31   17   40 1   
    32   18   19 ar  
    33   20   21 1   
    34   20   41 1   
    35   21   22 1   
    36   21   42 1   
    37   21   43 1   
    38   22   23 1   
    39   22   24 1   
    40   22   44 1   
    41   23   24 1   
    42   23   45 1   
    43   23   46 1   
    44   24   47 1   
    45   24   48 1   
    46   25   26 1   
    47   25   31 1   
    48   26   27 1   
    49   26   49 1   
    50   26   50 1   
    51   27   28 1   
    52   27   30 1   
    53   27   31 1   
    54   28   29 1   
    55   28   51 1   
    56   28   52 1   
    57   29   30 1   
    58   29   53 1   
    59   30   54 1   
    60   30   55 1   
    61   31   56 1   
    62   31   57 1   
@<TRIPOS>SUBSTRUCTURE
     1 XNN         1 TEMP              0 ****  ****    0 ROOT
