@<TRIPOS>MOLECULE
XNS
   54    54     1     0     0
SMALL
bcc


@<TRIPOS>ATOM
      1 C14        -7.0650    0.3670   -0.7180 c3        1 XNS     -0.127400
      2 O7         -8.6940    0.2250    1.1320 o         1 XNS     -0.541000
      3 C15        -8.3640    0.0560   -0.0430 c         1 XNS      0.629100
      4 O8         -9.2900   -0.4760   -0.9010 os        1 XNS     -0.443900
      5 C16       -10.5730   -0.7820   -0.3540 c3        1 XNS      0.125700
      6 C13        -5.8950    0.1110    0.2090 c3        1 XNS     -0.079400
      7 C12        -4.5980    0.5610   -0.4270 c3        1 XNS     -0.078400
      8 C11        -3.4220    0.2900    0.4860 c3        1 XNS     -0.079400
      9 C10        -2.1230    0.7450   -0.1440 c3        1 XNS     -0.078400
     10 C9         -0.9470    0.4710    0.7690 c3        1 XNS     -0.078400
     11 C8          0.3490    0.9280    0.1360 c3        1 XNS     -0.083400
     12 C7          1.5160    0.6420    1.0620 c3        1 XNS      0.131400
     13 O1          2.6900    1.1100    0.3860 os        1 XNS     -0.445600
     14 C1          3.8830    0.8620    1.0950 c3        1 XNS      0.300900
     15 C2          5.0180    1.6230    0.3830 c3        1 XNS      0.093100
     16 O2          6.1800    1.6320    1.1900 oh        1 XNS     -0.593800
     17 C3          5.3150    0.9990   -0.9860 c3        1 XNS      0.076100
     18 O3          6.4620    1.5650   -1.5860 oh        1 XNS     -0.595800
     19 C4          5.4970   -0.5250   -0.8610 c3        1 XNS      0.086100
     20 O4          5.6340   -1.1300   -2.1330 oh        1 XNS     -0.592800
     21 C5          4.2570   -1.1310   -0.1830 c3        1 XNS      0.141100
     22 O5          4.0980   -0.5360    1.1110 os        1 XNS     -0.444600
     23 C6          4.4330   -2.6310    0.0530 c3        1 XNS      0.135400
     24 O6          3.1320   -3.1900    0.1360 oh        1 XNS     -0.598800
     25 H141       -6.9700   -0.2470   -1.6530 hc        1 XNS      0.078200
     26 H142       -7.0950    1.4490   -1.0200 hc        1 XNS      0.078200
     27 H131       -6.0590    0.6570    1.1760 hc        1 XNS      0.057700
     28 H132       -5.8400   -0.9830    0.4510 hc        1 XNS      0.057700
     29 H161      -11.1420   -1.1930   -1.2240 h1        1 XNS      0.050367
     30 H162      -10.4690   -1.5380    0.4620 h1        1 XNS      0.050367
     31 H163      -11.0480    0.1460    0.0450 h1        1 XNS      0.050367
     32 H121       -4.4490    0.0250   -1.4020 hc        1 XNS      0.041700
     33 H122       -4.6510    1.6580   -0.6570 hc        1 XNS      0.041700
     34 H111       -3.5740    0.8220    1.4620 hc        1 XNS      0.043200
     35 H112       -3.3660   -0.8080    0.7130 hc        1 XNS      0.043200
     36 H101       -1.9720    0.2140   -1.1210 hc        1 XNS      0.041700
     37 H102       -2.1780    1.8430   -0.3690 hc        1 XNS      0.041700
     38 H91C       -1.0980    1.0010    1.7460 hc        1 XNS      0.043200
     39 H92C       -0.8910   -0.6270    0.9910 hc        1 XNS      0.043200
     40 H81C        0.5120    0.3990   -0.8390 hc        1 XNS      0.054700
     41 H82C        0.3070    2.0270   -0.0850 hc        1 XNS      0.054700
     42 H71C        1.4100    1.1940    2.0340 h1        1 XNS      0.042700
     43 H72C        1.6200   -0.4570    1.2640 h1        1 XNS      0.042700
     44 H1          3.8120    1.1500    2.1820 h2        1 XNS      0.089700
     45 H2          4.7420    2.7080    0.2600 h1        1 XNS      0.109700
     46 HA          6.3370    0.7230    1.4810 ho        1 XNS      0.412000
     47 H3          4.4680    1.2210   -1.6960 h1        1 XNS      0.108700
     48 HB          7.1310    1.6710   -0.8940 ho        1 XNS      0.417000
     49 H4          6.4190   -0.7460   -0.2510 h1        1 XNS      0.037700
     50 HC          6.1930   -0.5400   -2.6610 ho        1 XNS      0.423000
     51 H5          3.3390   -0.9360   -0.8020 h1        1 XNS      0.092700
     52 H61C        4.9890   -3.0730   -0.8170 h1        1 XNS      0.045200
     53 H62C        4.9960   -2.8150    1.0060 h1        1 XNS      0.045200
     54 H6          3.2500   -4.1290    0.3170 ho        1 XNS      0.402000
@<TRIPOS>BOND
     1    1    3 1   
     2    1    6 1   
     3    1   25 1   
     4    1   26 1   
     5    2    3 2   
     6    3    4 1   
     7    4    5 1   
     8    5   29 1   
     9    5   30 1   
    10    5   31 1   
    11    6    7 1   
    12    6   27 1   
    13    6   28 1   
    14    7    8 1   
    15    7   32 1   
    16    7   33 1   
    17    8    9 1   
    18    8   34 1   
    19    8   35 1   
    20    9   10 1   
    21    9   36 1   
    22    9   37 1   
    23   10   11 1   
    24   10   38 1   
    25   10   39 1   
    26   11   12 1   
    27   11   40 1   
    28   11   41 1   
    29   12   13 1   
    30   12   42 1   
    31   12   43 1   
    32   13   14 1   
    33   14   15 1   
    34   14   22 1   
    35   14   44 1   
    36   15   16 1   
    37   15   17 1   
    38   15   45 1   
    39   16   46 1   
    40   17   18 1   
    41   17   19 1   
    42   17   47 1   
    43   18   48 1   
    44   19   20 1   
    45   19   21 1   
    46   19   49 1   
    47   20   50 1   
    48   21   22 1   
    49   21   23 1   
    50   21   51 1   
    51   23   24 1   
    52   23   52 1   
    53   23   53 1   
    54   24   54 1   
@<TRIPOS>SUBSTRUCTURE
     1 XNS         1 TEMP              0 ****  ****    0 ROOT
