@<TRIPOS>MOLECULE
XNS
   54    54     1     0     0
SMALL
bcc


@<TRIPOS>ATOM
      1 C14         0.0030    0.0300   -0.0950 c3        1 XNS     -0.127400
      2 O7          2.2030    0.9300   -0.7610 o         1 XNS     -0.541000
      3 C15         1.4880    0.2090   -0.0620 c         1 XNS      0.629100
      4 O8          2.0890   -0.5430    0.9110 os        1 XNS     -0.443900
      5 C16         3.5060   -0.4190    1.0380 c3        1 XNS      0.125700
      6 C13        -0.5220    0.0900   -1.5140 c3        1 XNS     -0.079400
      7 C12        -2.0350    0.0510   -1.5300 c3        1 XNS     -0.078400
      8 C11        -2.5650    0.0910   -2.9470 c3        1 XNS     -0.079400
      9 C10        -4.0780    0.0600   -2.9660 c3        1 XNS     -0.078400
     10 C9         -4.6080    0.0960   -4.3840 c3        1 XNS     -0.078400
     11 C8         -6.1200    0.0660   -4.3980 c3        1 XNS     -0.083400
     12 C7         -6.6330    0.0990   -5.8270 c3        1 XNS      0.131400
     13 O1         -8.0630    0.0730   -5.7400 os        1 XNS     -0.445600
     14 C1         -8.7000    0.0370   -6.9980 c3        1 XNS      0.300900
     15 C2        -10.2070    0.2600   -6.7650 c3        1 XNS      0.093100
     16 O2        -10.8610    0.5000   -7.9970 oh        1 XNS     -0.593800
     17 C3        -10.8290   -0.9460   -6.0490 c3        1 XNS      0.076100
     18 O3        -12.2370   -0.8480   -5.9770 oh        1 XNS     -0.595800
     19 C4        -10.4390   -2.2580   -6.7550 c3        1 XNS      0.086100
     20 O4        -10.8920   -3.3840   -6.0260 oh        1 XNS     -0.592800
     21 C5         -8.9080   -2.3460   -6.8540 c3        1 XNS      0.141100
     22 O5         -8.4250   -1.2160   -7.5910 os        1 XNS     -0.444600
     23 C6         -8.4740   -3.5860   -7.6350 c3        1 XNS      0.135400
     24 O6         -7.1540   -3.8940   -7.2180 oh        1 XNS     -0.598800
     25 H141       -0.2700   -0.9460    0.3860 hc        1 XNS      0.078200
     26 H142       -0.4470    0.8540    0.5230 hc        1 XNS      0.078200
     27 H131       -0.1140   -0.7740   -2.1020 hc        1 XNS      0.057700
     28 H132       -0.1550    1.0290   -2.0090 hc        1 XNS      0.057700
     29 H161        3.7750    0.6360    1.2820 h1        1 XNS      0.050367
     30 H162        3.7590   -1.1120    1.8780 h1        1 XNS      0.050367
     31 H163        4.0010   -0.7300    0.0870 h1        1 XNS      0.050367
     32 H121       -2.3940   -0.8810   -1.0190 hc        1 XNS      0.041700
     33 H122       -2.4410    0.9240   -0.9520 hc        1 XNS      0.041700
     34 H111       -2.1630   -0.7840   -3.5230 hc        1 XNS      0.043200
     35 H112       -2.2000    1.0200   -3.4590 hc        1 XNS      0.043200
     36 H101       -4.4800    0.9350   -2.3910 hc        1 XNS      0.041700
     37 H102       -4.4420   -0.8690   -2.4520 hc        1 XNS      0.041700
     38 H91C       -4.2080   -0.7810   -4.9580 hc        1 XNS      0.043200
     39 H92C       -4.2430    1.0240   -4.8980 hc        1 XNS      0.043200
     40 H81C       -6.4950   -0.8620   -3.8920 hc        1 XNS      0.054700
     41 H82C       -6.5320    0.9420   -3.8330 hc        1 XNS      0.054700
     42 H71C       -6.2820   -0.7940   -6.4090 h1        1 XNS      0.042700
     43 H72C       -6.3150    1.0380   -6.3520 h1        1 XNS      0.042700
     44 H1         -8.2800    0.7920   -7.7220 h2        1 XNS      0.089700
     45 H2        -10.3750    1.1940   -6.1610 h1        1 XNS      0.109700
     46 HA        -10.5790   -0.1910   -8.6130 ho        1 XNS      0.412000
     47 H3        -10.4790   -0.9740   -4.9780 h1        1 XNS      0.108700
     48 HB        -12.5510   -0.5170   -6.8310 ho        1 XNS      0.417000
     49 H4        -10.8970   -2.2830   -7.7840 h1        1 XNS      0.037700
     50 HC        -11.7770   -3.1650   -5.6990 ho        1 XNS      0.423000
     51 H5         -8.4490   -2.3490   -5.8270 h1        1 XNS      0.092700
     52 H61C       -8.4960   -3.3820   -8.7380 h1        1 XNS      0.045200
     53 H62C       -9.1670   -4.4340   -7.3840 h1        1 XNS      0.045200
     54 H6         -6.8750   -4.6570   -7.7380 ho        1 XNS      0.402000
@<TRIPOS>BOND
     1    1    3 1   
     2    1    6 1   
     3    1   25 1   
     4    1   26 1   
     5    2    3 2   
     6    3    4 1   
     7    4    5 1   
     8    5   29 1   
     9    5   30 1   
    10    5   31 1   
    11    6    7 1   
    12    6   27 1   
    13    6   28 1   
    14    7    8 1   
    15    7   32 1   
    16    7   33 1   
    17    8    9 1   
    18    8   34 1   
    19    8   35 1   
    20    9   10 1   
    21    9   36 1   
    22    9   37 1   
    23   10   11 1   
    24   10   38 1   
    25   10   39 1   
    26   11   12 1   
    27   11   40 1   
    28   11   41 1   
    29   12   13 1   
    30   12   42 1   
    31   12   43 1   
    32   13   14 1   
    33   14   15 1   
    34   14   22 1   
    35   14   44 1   
    36   15   16 1   
    37   15   17 1   
    38   15   45 1   
    39   16   46 1   
    40   17   18 1   
    41   17   19 1   
    42   17   47 1   
    43   18   48 1   
    44   19   20 1   
    45   19   21 1   
    46   19   49 1   
    47   20   50 1   
    48   21   22 1   
    49   21   23 1   
    50   21   51 1   
    51   23   24 1   
    52   23   52 1   
    53   23   53 1   
    54   24   54 1   
@<TRIPOS>SUBSTRUCTURE
     1 XNS         1 TEMP              0 ****  ****    0 ROOT
