@<TRIPOS>MOLECULE
XNS
   54    54     1     0     0
SMALL
bcc


@<TRIPOS>ATOM
      1 C14         0.0020    0.0390   -0.0850 c3        1 XNS     -0.127400
      2 O7          2.2180    0.8900   -0.7620 o         1 XNS     -0.541000
      3 C15         1.4890    0.2030   -0.0440 c         1 XNS      0.629100
      4 O8          2.0730   -0.5200    0.9610 os        1 XNS     -0.442900
      5 C16         3.4890   -0.4070    1.0970 c3        1 XNS      0.125700
      6 C13        -0.5090    0.0600   -1.5100 c3        1 XNS     -0.079400
      7 C12        -2.0220    0.0410   -1.5380 c3        1 XNS     -0.078400
      8 C11        -2.5390    0.0410   -2.9610 c3        1 XNS     -0.079400
      9 C10        -4.0520    0.0330   -2.9930 c3        1 XNS     -0.078400
     10 C9         -4.5690    0.0290   -4.4160 c3        1 XNS     -0.078400
     11 C8         -6.0810    0.0250   -4.4440 c3        1 XNS     -0.084400
     12 C7         -6.5820    0.0170   -5.8770 c3        1 XNS      0.134400
     13 O1         -8.0120    0.0210   -5.8040 os        1 XNS     -0.442600
     14 C1         -8.6390   -0.0630   -7.0640 c3        1 XNS      0.302900
     15 C2        -10.1330    0.2570   -6.8700 c3        1 XNS      0.095100
     16 O2        -10.7570    0.4430   -8.1260 oh        1 XNS     -0.591800
     17 C3        -10.8310   -0.8560   -6.0770 c3        1 XNS      0.075100
     18 O3        -12.2310   -0.6700   -6.0300 oh        1 XNS     -0.594800
     19 C4        -10.5120   -2.2360   -6.6810 c3        1 XNS      0.090100
     20 O4        -11.0210   -3.2770   -5.8680 oh        1 XNS     -0.591800
     21 C5         -8.9910   -2.4190   -6.7660 c3        1 XNS      0.101100
     22 O5         -8.4220   -1.3700   -7.5600 os        1 XNS     -0.460600
     23 C6         -8.6220   -3.7240   -7.4740 c3        1 XNS      0.140400
     24 O6         -7.2290   -3.9400   -7.4540 oh        1 XNS     -0.594800
     25 H141       -0.2850   -0.9190    0.4240 hc        1 XNS      0.078700
     26 H142       -0.4440    0.8860    0.5030 hc        1 XNS      0.078700
     27 H131       -0.1080   -0.8280   -2.0660 hc        1 XNS      0.057700
     28 H132       -0.1260    0.9770   -2.0310 hc        1 XNS      0.057700
     29 H161        3.7270   -1.0710    1.9630 h1        1 XNS      0.050367
     30 H162        3.9900   -0.7570    0.1620 h1        1 XNS      0.050367
     31 H163        3.7690    0.6540    1.3040 h1        1 XNS      0.050367
     32 H121       -2.4210    0.9370   -0.9930 hc        1 XNS      0.041700
     33 H122       -2.3990   -0.8690   -1.0010 hc        1 XNS      0.041700
     34 H111       -2.1550    0.9470   -3.5000 hc        1 XNS      0.043200
     35 H112       -2.1460   -0.8590   -3.5040 hc        1 XNS      0.043200
     36 H101       -4.4460    0.9340   -2.4520 hc        1 XNS      0.042700
     37 H102       -4.4360   -0.8720   -2.4520 hc        1 XNS      0.042700
     38 H91C       -4.1830    0.9330   -4.9590 hc        1 XNS      0.042200
     39 H92C       -4.1780   -0.8740   -4.9560 hc        1 XNS      0.042200
     40 H81C       -6.4820    0.9280   -3.9140 hc        1 XNS      0.056700
     41 H82C       -6.4770   -0.8780   -3.9090 hc        1 XNS      0.056700
     42 H71C       -6.2400    0.9290   -6.4330 h1        1 XNS      0.037700
     43 H72C       -6.2420   -0.9030   -6.4230 h1        1 XNS      0.037700
     44 H1         -8.1700    0.6140   -7.8340 h2        1 XNS      0.089700
     45 H2        -10.2530    1.2410   -6.3390 h1        1 XNS      0.110700
     46 HA        -10.5240   -0.3140   -8.6810 ho        1 XNS      0.412000
     47 H3        -10.4920   -0.8260   -5.0030 h1        1 XNS      0.108700
     48 HB        -12.5180   -0.3900   -6.9110 ho        1 XNS      0.417000
     49 H4        -10.9720   -2.3150   -7.7070 h1        1 XNS      0.039700
     50 HC        -11.9040   -2.9990   -5.5840 ho        1 XNS      0.424000
     51 H5         -8.5400   -2.3890   -5.7370 h1        1 XNS      0.085700
     52 H61C       -9.0000   -3.7090   -8.5310 h1        1 XNS      0.062700
     53 H62C       -9.0720   -4.5850   -6.9110 h1        1 XNS      0.062700
     54 H6         -6.8180   -3.1790   -7.8830 ho        1 XNS      0.407000
@<TRIPOS>BOND
     1    1    3 1   
     2    1    6 1   
     3    1   25 1   
     4    1   26 1   
     5    2    3 2   
     6    3    4 1   
     7    4    5 1   
     8    5   29 1   
     9    5   30 1   
    10    5   31 1   
    11    6    7 1   
    12    6   27 1   
    13    6   28 1   
    14    7    8 1   
    15    7   32 1   
    16    7   33 1   
    17    8    9 1   
    18    8   34 1   
    19    8   35 1   
    20    9   10 1   
    21    9   36 1   
    22    9   37 1   
    23   10   11 1   
    24   10   38 1   
    25   10   39 1   
    26   11   12 1   
    27   11   40 1   
    28   11   41 1   
    29   12   13 1   
    30   12   42 1   
    31   12   43 1   
    32   13   14 1   
    33   14   15 1   
    34   14   22 1   
    35   14   44 1   
    36   15   16 1   
    37   15   17 1   
    38   15   45 1   
    39   16   46 1   
    40   17   18 1   
    41   17   19 1   
    42   17   47 1   
    43   18   48 1   
    44   19   20 1   
    45   19   21 1   
    46   19   49 1   
    47   20   50 1   
    48   21   22 1   
    49   21   23 1   
    50   21   51 1   
    51   23   24 1   
    52   23   52 1   
    53   23   53 1   
    54   24   54 1   
@<TRIPOS>SUBSTRUCTURE
     1 XNS         1 TEMP              0 ****  ****    0 ROOT
