@<TRIPOS>MOLECULE
XNV
   69    71     1     0     0
SMALL
bcc


@<TRIPOS>ATOM
      1 C01         7.9310   -4.1380    1.8670 c3        1 XNV     -0.100100
      2 C02         7.6480   -2.6610    1.9920 c3        1 XNV      0.138400
      3 O03         6.3920   -2.4330    1.3300 os        1 XNV     -0.442900
      4 C04         5.9390   -1.1430    1.3020 c         1 XNV      0.633100
      5 C05         4.6520   -0.9970    0.5530 c3        1 XNV     -0.130400
      6 C06         3.8270    0.1420    1.1090 c3        1 XNV     -0.093400
      7 C07         2.7140    0.5610    0.1310 c3        1 XNV      0.094700
      8 N08         1.7030   -0.4610   -0.0400 n         1 XNV     -0.559900
      9 C09         1.7760   -1.4130   -1.0240 c         1 XNV      0.645100
     10 C10         0.5700   -2.3890   -1.1220 c3        1 XNV      0.025700
     11 N11        -0.6400   -1.6910   -1.5340 n         1 XNV     -0.318000
     12 C12        -1.4850   -1.1710   -0.5380 c         1 XNV      0.677700
     13 C13        -2.7610   -0.5380   -0.9750 cc        1 XNV     -0.056600
     14 N14        -3.5860   -0.0920    0.0690 n         1 XNV     -0.449100
     15 C15        -4.8790    0.3730   -0.0720 c         1 XNV      0.600600
     16 C16        -5.5960    0.7590    1.1720 cc        1 XNV      0.261800
     17 N17        -5.1020    0.8540    2.4260 nd        1 XNV     -0.330300
     18 O18        -6.0590    1.2340    3.2340 os        1 XNV     -0.109100
     19 C19        -7.2740    1.4110    2.5130 cd        1 XNV      0.260000
     20 C20        -8.4370    1.8330    3.2880 c3        1 XNV     -0.141400
     21 C21        -7.0140    1.1170    1.1890 cc        1 XNV     -0.312600
     22 O22        -5.4550    0.4870   -1.1720 o         1 XNV     -0.590100
     23 C23        -3.0330   -0.4160   -2.3170 cd        1 XNV     -0.079000
     24 C24        -2.1030   -0.9070   -3.2760 cd        1 XNV     -0.212000
     25 C25        -0.9490   -1.5230   -2.8730 cc        1 XNV     -0.004400
     26 O26        -1.1330   -1.2430    0.6640 o         1 XNV     -0.685500
     27 C27         0.9900   -3.5680   -2.0160 c3        1 XNV     -0.003300
     28 C28        -0.0350   -4.5560   -2.1520 c1        1 XNV     -0.159100
     29 C29        -0.8740   -5.4000   -2.2740 c1        1 XNV     -0.130500
     30 O30         2.7470   -1.5250   -1.7960 o         1 XNV     -0.607100
     31 C31         2.0910    1.8810    0.6290 c3        1 XNV     -0.077400
     32 C32         2.9370    3.0820    0.2610 c3        1 XNV     -0.139700
     33 C33         2.4870    4.3490    1.0030 c3        1 XNV     -0.094400
     34 C34         2.1420    5.3860   -0.0890 c3        1 XNV      0.091000
     35 N35         2.3300    4.7280   -1.3590 n         1 XNV     -0.585900
     36 C36         2.8160    3.4370   -1.2280 c         1 XNV      0.695500
     37 O37         3.1100    2.7060   -2.1860 o         1 XNV     -0.625500
     38 O38         6.6170   -0.2760    1.8600 o         1 XNV     -0.555000
     39 H10         0.3720   -2.8050   -0.0830 h1        1 XNV      0.110700
     40 H20        -8.8740    2.7640    2.8440 hc        1 XNV      0.069367
     41 H20A       -9.2170    1.0300    3.2720 hc        1 XNV      0.069367
     42 H20B       -8.1540    2.0380    4.3510 hc        1 XNV      0.069367
     43 H01         7.1220   -4.7350    2.3500 hc        1 XNV      0.047033
     44 H21        -7.6660    1.1340    0.3210 ha        1 XNV      0.197000
     45 H31         1.0640    2.0180    0.1960 hc        1 XNV      0.056700
     46 H01A        7.9920   -4.4350    0.7920 hc        1 XNV      0.047033
     47 H31A        1.9820    1.8380    1.7450 hc        1 XNV      0.056700
     48 H01B        8.9030   -4.3650    2.3660 hc        1 XNV      0.047033
     49 H02         7.5530   -2.3410    3.0630 h1        1 XNV      0.049700
     50 H32         4.0210    2.8730    0.4690 hc        1 XNV      0.089700
     51 H02A        8.4360   -2.0380    1.4940 h1        1 XNV      0.049700
     52 H23        -3.9620    0.0560   -2.6830 ha        1 XNV      0.183000
     53 H33         1.5920    4.1510    1.6410 hc        1 XNV      0.060200
     54 H33A        3.3040    4.7330    1.6590 hc        1 XNV      0.060200
     55 HN14       -3.1980   -0.1940    0.9860 hn        1 XNV      0.356500
     56 H24        -2.3210   -0.7860   -4.3450 ha        1 XNV      0.159000
     57 H34         1.0770    5.7320    0.0110 h1        1 XNV      0.042700
     58 H34A        2.8100    6.2870   -0.0070 h1        1 XNV      0.042700
     59 H05         4.9010   -0.8130   -0.5300 hc        1 XNV      0.093200
     60 H25        -0.2110   -1.9140   -3.5980 h4        1 XNV      0.170000
     61 HN35        2.2650    5.2090   -2.2180 hn        1 XNV      0.332500
     62 H05A        4.0810   -1.9620    0.5930 hc        1 XNV      0.093200
     63 H06         3.3880   -0.1510    2.0980 hc        1 XNV      0.059200
     64 H07         3.1850    0.7470   -0.8870 h1        1 XNV      0.111700
     65 H27         1.3210   -3.1960   -3.0270 hc        1 XNV      0.089200
     66 H27A        1.9020   -4.0270   -1.5350 hc        1 XNV      0.089200
     67 HN08        0.9320   -0.4670    0.5920 hn        1 XNV      0.337500
     68 H29        -1.6190   -6.1470   -2.3810 ha        1 XNV      0.168500
     69 H06A        4.4940    1.0270    1.2880 hc        1 XNV      0.059200
@<TRIPOS>BOND
     1    1    2 1   
     2    1   43 1   
     3    1   46 1   
     4    1   48 1   
     5    2    3 1   
     6    2   49 1   
     7    2   51 1   
     8    3    4 1   
     9    4    5 1   
    10    4   38 2   
    11    5    6 1   
    12    5   59 1   
    13    5   62 1   
    14    6    7 1   
    15    6   63 1   
    16    6   69 1   
    17    7    8 1   
    18    7   31 1   
    19    7   64 1   
    20    8    9 1   
    21    8   67 1   
    22    9   10 1   
    23    9   30 2   
    24   10   11 1   
    25   10   27 1   
    26   10   39 1   
    27   11   12 1   
    28   11   25 1   
    29   12   13 1   
    30   12   26 2   
    31   13   14 1   
    32   13   23 2   
    33   14   15 1   
    34   14   55 1   
    35   15   16 1   
    36   15   22 2   
    37   16   17 2   
    38   16   21 1   
    39   17   18 1   
    40   18   19 1   
    41   19   20 1   
    42   19   21 2   
    43   20   40 1   
    44   20   41 1   
    45   20   42 1   
    46   21   44 1   
    47   23   24 1   
    48   23   52 1   
    49   24   25 2   
    50   24   56 1   
    51   25   60 1   
    52   27   28 1   
    53   27   65 1   
    54   27   66 1   
    55   28   29 3   
    56   29   68 1   
    57   31   32 1   
    58   31   45 1   
    59   31   47 1   
    60   32   33 1   
    61   32   36 1   
    62   32   50 1   
    63   33   34 1   
    64   33   53 1   
    65   33   54 1   
    66   34   35 1   
    67   34   57 1   
    68   34   58 1   
    69   35   36 1   
    70   35   61 1   
    71   36   37 2   
@<TRIPOS>SUBSTRUCTURE
     1 XNV         1 TEMP              0 ****  ****    0 ROOT
