@<TRIPOS>MOLECULE
XNV
   71    73     1     0     0
SMALL
bcc


@<TRIPOS>ATOM
      1 C01         1.6200   -3.8530    0.9570 c3        1 XNV     -0.110100
      2 C02         2.3060   -3.3180    2.1880 c3        1 XNV      0.143400
      3 O03         3.2940   -2.3710    1.7040 os        1 XNV     -0.395900
      4 C04         4.0600   -1.7460    2.6160 c         1 XNV      0.656100
      5 C05         5.0200   -0.7630    2.0140 c3        1 XNV     -0.157400
      6 C06         6.3470   -0.6760    2.7340 c3        1 XNV     -0.100400
      7 C07         6.3290    0.2090    3.9910 c3        1 XNV      0.131500
      8 N08         5.8380   -0.5550    5.1950 n4        1 XNV     -0.679800
      9 C09         4.6860    0.0600    5.9150 c         1 XNV      0.543100
     10 C10         3.8330   -0.9230    6.7530 c3        1 XNV      0.036700
     11 N11         4.4130   -1.0910    8.0800 n         1 XNV     -0.314000
     12 C12         5.4940   -1.9930    8.2120 c         1 XNV      0.717700
     13 C13         5.9880   -2.2550    9.5710 cc        1 XNV     -0.210200
     14 N14         7.0910   -3.1970    9.6760 n4        1 XNV     -0.519600
     15 C15         6.8110   -4.4170   10.5500 c         1 XNV      0.497600
     16 C16         7.8670   -5.4180   10.5320 cc        1 XNV      0.194800
     17 N17         9.0420   -5.3410    9.8430 nd        1 XNV     -0.319300
     18 O18         9.7310   -6.4110   10.0740 os        1 XNV     -0.052100
     19 C19         9.0300   -7.2870   10.9580 cd        1 XNV      0.326000
     20 C20         9.7020   -8.5340   11.3040 c3        1 XNV     -0.166400
     21 C21         7.8250   -6.6730   11.2690 cc        1 XNV     -0.298600
     22 O22         5.7680   -4.4390   11.1790 o         1 XNV     -0.390100
     23 C23         5.4260   -1.6250   10.6650 cd        1 XNV      0.080000
     24 C24         4.3700   -0.7090   10.4630 cd        1 XNV     -0.232000
     25 C25         3.8870   -0.4700    9.1930 cc        1 XNV      0.088600
     26 O26         5.9990   -2.5110    7.1880 o         1 XNV     -0.687500
     27 C27         2.3800   -0.4060    6.7020 c3        1 XNV      0.007700
     28 C28         1.4860   -1.2180    7.4640 c1        1 XNV     -0.235100
     29 C29         0.6810   -1.8770    8.0570 c1        1 XNV     -0.034500
     30 O30         4.4790    1.2590    5.8100 o         1 XNV     -0.422100
     31 C31         7.7290    0.7980    4.2230 c3        1 XNV     -0.093400
     32 C32         7.7770    1.8330    5.3280 c3        1 XNV     -0.160700
     33 C33         8.7990    2.9490    5.0540 c3        1 XNV     -0.093400
     34 C34         9.6930    3.0280    6.3120 c3        1 XNV      0.076000
     35 N35         9.2790    1.9390    7.1790 n         1 XNV     -0.529900
     36 C36         8.2230    1.2360    6.6740 c         1 XNV      0.701500
     37 O37         7.6820    0.2510    7.2350 o         1 XNV     -0.746500
     38 O38         3.9000   -2.0040    3.8240 o         1 XNV     -0.657000
     39 H10         3.8420   -1.9440    6.2430 h1        1 XNV      0.151700
     40 H20         9.8700   -8.5820   12.4120 hc        1 XNV      0.098033
     41 H20A       10.6930   -8.6150   10.7870 hc        1 XNV      0.098033
     42 H20B        9.0660   -9.4070   11.0020 hc        1 XNV      0.098033
     43 H01         0.8420   -4.5910    1.2720 hc        1 XNV      0.066700
     44 H21         7.0180   -7.0210   11.9110 ha        1 XNV      0.216000
     45 H31         8.4680   -0.0230    4.4190 hc        1 XNV      0.091200
     46 H01A        1.1310   -3.0280    0.3860 hc        1 XNV      0.066700
     47 H31A        8.0280    1.2920    3.2560 hc        1 XNV      0.091200
     48 H01B        2.3530   -4.3610    0.2840 hc        1 XNV      0.066700
     49 H02         1.6020   -2.7720    2.8670 h1        1 XNV      0.057200
     50 H32         6.7570    2.2850    5.4820 hc        1 XNV      0.097700
     51 H02A        2.8410   -4.1180    2.7620 h1        1 XNV      0.057200
     52 H23         5.7720   -1.8240   11.6970 ha        1 XNV      0.182000
     53 H33         9.4250    2.7240    4.1560 hc        1 XNV      0.081200
     54 H33A        8.2830    3.9250    4.8810 hc        1 XNV      0.081200
     55 HN14        7.3280   -3.5250    8.7210 hn        1 XNV      0.483800
     56 H24         3.9220   -0.1890   11.3260 ha        1 XNV      0.203000
     57 H34         9.5580    4.0110    6.8410 h1        1 XNV      0.078200
     58 H34A       10.7790    2.9120    6.0460 h1        1 XNV      0.078200
     59 H05         5.2070   -1.0630    0.9430 hc        1 XNV      0.112700
     60 H25         3.0420    0.2310    9.0260 h4        1 XNV      0.206000
     61 HN35        9.7160    1.7590    8.0480 hn        1 XNV      0.352500
     62 H05A        4.5050    0.2370    1.9850 hc        1 XNV      0.112700
     63 H06         7.0860   -0.2180    2.0160 hc        1 XNV      0.092200
     64 H07         5.6080    1.0680    3.8210 hx        1 XNV      0.116700
     65 H27         2.3290    0.6690    7.0370 hc        1 XNV      0.100700
     66 H27A        2.0740   -0.4300    5.6140 hc        1 XNV      0.100700
     67 HN08        6.6110   -0.6650    5.8880 hn        1 XNV      0.498800
     68 H29        -0.0380   -2.4580    8.5850 ha        1 XNV      0.192500
     69 H06A        6.7290   -1.7050    2.9700 hc        1 XNV      0.092200
     70 H082        5.5500   -1.5100    4.9040 hn        1 XNV      0.498800
     71 H142        7.9120   -2.7070   10.0570 hn        1 XNV      0.483800
@<TRIPOS>BOND
     1    1    2 1   
     2    1   43 1   
     3    1   46 1   
     4    1   48 1   
     5    2    3 1   
     6    2   49 1   
     7    2   51 1   
     8    3    4 1   
     9    4    5 1   
    10    4   38 2   
    11    5    6 1   
    12    5   59 1   
    13    5   62 1   
    14    6    7 1   
    15    6   63 1   
    16    6   69 1   
    17    7    8 1   
    18    7   31 1   
    19    7   64 1   
    20    8    9 1   
    21    8   67 1   
    22    8   70 1   
    23    9   10 1   
    24    9   30 2   
    25   10   11 1   
    26   10   27 1   
    27   10   39 1   
    28   11   12 1   
    29   11   25 1   
    30   12   13 1   
    31   12   26 2   
    32   13   14 1   
    33   13   23 2   
    34   14   15 1   
    35   14   55 1   
    36   14   71 1   
    37   15   16 1   
    38   15   22 2   
    39   16   17 2   
    40   16   21 1   
    41   17   18 1   
    42   18   19 1   
    43   19   20 1   
    44   19   21 2   
    45   20   40 1   
    46   20   41 1   
    47   20   42 1   
    48   21   44 1   
    49   23   24 1   
    50   23   52 1   
    51   24   25 2   
    52   24   56 1   
    53   25   60 1   
    54   27   28 1   
    55   27   65 1   
    56   27   66 1   
    57   28   29 3   
    58   29   68 1   
    59   31   32 1   
    60   31   45 1   
    61   31   47 1   
    62   32   33 1   
    63   32   36 1   
    64   32   50 1   
    65   33   34 1   
    66   33   53 1   
    67   33   54 1   
    68   34   35 1   
    69   34   57 1   
    70   34   58 1   
    71   35   36 1   
    72   35   61 1   
    73   36   37 2   
@<TRIPOS>SUBSTRUCTURE
     1 XNV         1 TEMP              0 ****  ****    0 ROOT
