@<TRIPOS>MOLECULE
XNV
   71    73     1     0     0
SMALL
bcc


@<TRIPOS>ATOM
      1 C01         1.6880   -3.8690    0.9070 c3        1 XNV     -0.110100
      2 C02         2.3570   -3.3380    2.1490 c3        1 XNV      0.143400
      3 O03         3.3170   -2.3540    1.6850 os        1 XNV     -0.395900
      4 C04         4.0650   -1.7240    2.6080 c         1 XNV      0.656100
      5 C05         4.9950   -0.7020    2.0260 c3        1 XNV     -0.157400
      6 C06         6.3190   -0.5890    2.7490 c3        1 XNV     -0.100400
      7 C07         6.2730    0.2710    4.0230 c3        1 XNV      0.131500
      8 N08         5.8060   -0.5310    5.2110 ny        1 XNV     -0.679800
      9 C09         4.6350    0.0350    5.9410 c         1 XNV      0.543100
     10 C10         3.8120   -0.9890    6.7600 c3        1 XNV      0.037700
     11 N11         4.3950   -1.1620    8.0840 n         1 XNV     -0.314000
     12 C12         5.5040   -2.0320    8.2020 c         1 XNV      0.717700
     13 C13         6.0040   -2.3030    9.5560 cc        1 XNV     -0.210200
     14 N14         7.1360   -3.2110    9.6460 ny        1 XNV     -0.519600
     15 C15         6.8960   -4.4540   10.4970 c         1 XNV      0.497600
     16 C16         7.9840   -5.4210   10.4640 cc        1 XNV      0.194800
     17 N17         9.1570   -5.2930    9.7780 nd        1 XNV     -0.319300
     18 O18         9.8800   -6.3430    9.9920 os        1 XNV     -0.052100
     19 C19         9.2070   -7.2570   10.8600 cd        1 XNV      0.326000
     20 C20         9.9190   -8.4890   11.1840 c3        1 XNV     -0.166400
     21 C21         7.9820   -6.6890   11.1790 cc        1 XNV     -0.298600
     22 O22         5.8530   -4.5220   11.1240 o         1 XNV     -0.390100
     23 C23         5.4220   -1.7110   10.6610 cd        1 XNV      0.080000
     24 C24         4.3370   -0.8260   10.4730 cd        1 XNV     -0.232000
     25 C25         3.8480   -0.5790    9.2070 cc        1 XNV      0.088600
     26 O26         6.0260   -2.5160    7.1700 o         1 XNV     -0.687500
     27 C27         2.3430   -0.5160    6.7150 c3        1 XNV      0.007700
     28 C28         1.4740   -1.3700    7.4600 c1        1 XNV     -0.235100
     29 C29         0.6890   -2.0640    8.0390 c1        1 XNV     -0.034500
     30 O30         4.3920    1.2300    5.8590 o         1 XNV     -0.422100
     31 C31         7.6550    0.8970    4.2670 c3        1 XNV     -0.093400
     32 C32         7.6720    1.9120    5.3910 c3        1 XNV     -0.160700
     33 C33         8.6600    3.0640    5.1390 c3        1 XNV     -0.093400
     34 C34         9.5500    3.1450    6.3990 c3        1 XNV      0.076000
     35 N35         9.1690    2.0290    7.2450 ns        1 XNV     -0.529900
     36 C36         8.1350    1.3040    6.7260 c         1 XNV      0.701500
     37 O37         7.6230    0.2930    7.2680 o         1 XNV     -0.746500
     38 O38         3.9120   -2.0090    3.8110 o         1 XNV     -0.657000
     39 H10         3.8530   -2.0000    6.2310 h1        1 XNV      0.151700
     40 H20        10.0870   -8.5500   12.2920 hc        1 XNV      0.098033
     41 H20A        9.3120   -9.3760   10.8660 hc        1 XNV      0.098033
     42 H20B       10.9120   -8.5280   10.6680 hc        1 XNV      0.098033
     43 H01         1.1740   -3.0480    0.3520 hc        1 XNV      0.066700
     44 H21         7.1860   -7.0750   11.8130 ha        1 XNV      0.216000
     45 H31         7.9400    1.4180    3.3090 hc        1 XNV      0.091200
     46 H01A        2.4340   -4.3430    0.2260 hc        1 XNV      0.066700
     47 H31A        8.4190    0.0950    4.4480 hc        1 XNV      0.091200
     48 H01B        0.9310   -4.6350    1.2090 hc        1 XNV      0.066700
     49 H02         1.6380   -2.8250    2.8370 h1        1 XNV      0.057200
     50 H32         6.6390    2.3300    5.5530 hc        1 XNV      0.097700
     51 H02A        2.9150   -4.1330    2.7090 h1        1 XNV      0.057200
     52 H23         5.7720   -1.9180   11.6890 ha        1 XNV      0.182000
     53 H33         9.2930    2.8740    4.2370 hc        1 XNV      0.081200
     54 H33A        8.1150    4.0260    4.9840 hc        1 XNV      0.081200
     55 HN14        7.9420   -2.7020   10.0380 hn        1 XNV      0.483800
     56 H24         3.8720   -0.3360   11.3450 ha        1 XNV      0.203000
     57 H34         9.3860    4.1140    6.9460 h1        1 XNV      0.078200
     58 H34A       10.6400    3.0670    6.1310 h1        1 XNV      0.078200
     59 H05         4.4520    0.2830    2.0150 hc        1 XNV      0.112700
     60 H25         2.9810    0.0980    9.0510 h4        1 XNV      0.206000
     61 HN35        9.6110    1.8460    8.1110 hn        1 XNV      0.352500
     62 H05A        5.1920   -0.9770    0.9490 hc        1 XNV      0.112700
     63 H06         7.0440   -0.0960    2.0410 hc        1 XNV      0.092200
     64 H07         5.5280    1.1110    3.8680 hx        1 XNV      0.116700
     65 H27         2.2590    0.5500    7.0690 hc        1 XNV      0.100700
     66 H27A        2.0400   -0.5300    5.6260 hc        1 XNV      0.100700
     67 HN08        6.5810   -0.6300    5.9030 hn        1 XNV      0.498800
     68 H29        -0.0120   -2.6780    8.5550 ha        1 XNV      0.192500
     69 H06A        6.7310   -1.6110    2.9660 hc        1 XNV      0.092200
     70 H082        5.5470   -1.4890    4.9020 hn        1 XNV      0.498800
     71 H142        7.3850   -3.5140    8.6860 hn        1 XNV      0.483800
@<TRIPOS>BOND
     1    1    2 1   
     2    1   43 1   
     3    1   46 1   
     4    1   48 1   
     5    2    3 1   
     6    2   49 1   
     7    2   51 1   
     8    3    4 1   
     9    4    5 1   
    10    4   38 2   
    11    5    6 1   
    12    5   59 1   
    13    5   62 1   
    14    6    7 1   
    15    6   63 1   
    16    6   69 1   
    17    7    8 1   
    18    7   31 1   
    19    7   64 1   
    20    8    9 1   
    21    8   67 1   
    22    8   70 1   
    23    9   10 1   
    24    9   30 2   
    25   10   11 1   
    26   10   27 1   
    27   10   39 1   
    28   11   12 1   
    29   11   25 1   
    30   12   13 1   
    31   12   26 2   
    32   13   14 1   
    33   13   23 2   
    34   14   15 1   
    35   14   55 1   
    36   14   71 1   
    37   15   16 1   
    38   15   22 2   
    39   16   17 2   
    40   16   21 1   
    41   17   18 1   
    42   18   19 1   
    43   19   20 1   
    44   19   21 2   
    45   20   40 1   
    46   20   41 1   
    47   20   42 1   
    48   21   44 1   
    49   23   24 1   
    50   23   52 1   
    51   24   25 2   
    52   24   56 1   
    53   25   60 1   
    54   27   28 1   
    55   27   65 1   
    56   27   66 1   
    57   28   29 3   
    58   29   68 1   
    59   31   32 1   
    60   31   45 1   
    61   31   47 1   
    62   32   33 1   
    63   32   36 1   
    64   32   50 1   
    65   33   34 1   
    66   33   53 1   
    67   33   54 1   
    68   34   35 1   
    69   34   57 1   
    70   34   58 1   
    71   35   36 1   
    72   35   61 1   
    73   36   37 2   
@<TRIPOS>SUBSTRUCTURE
     1 XNV         1 TEMP              0 ****  ****    0 ROOT
