@<TRIPOS>MOLECULE
XNW
   39    38     1     0     0
SMALL
bcc


@<TRIPOS>ATOM
      1 CAA        -1.1740   -2.0990   -5.6000 c3        1 XNW     -0.071000
      2 OAN         0.1280   -1.8230   -5.1290 os        1 XNW     -0.225000
      3 CAR         0.1600   -1.2420   -3.8440 c2        1 XNW      0.054000
      4 CAK         0.3470   -2.0530   -2.7170 c2        1 XNW     -0.171000
      5 CAI         0.4710   -1.4790   -1.4590 c1        1 XNW     -0.105000
      6 CAJ         0.0980    0.1470   -3.7030 c1        1 XNW     -0.201000
      7 CAH         0.2220    0.7270   -2.4400 c1        1 XNW     -0.076000
      8 CAQ         0.4100   -0.0880   -1.3130 c1        1 XNW     -0.090000
      9 CAL         0.6810    0.5540    0.0720 c3        1 XNW     -0.128000
     10 CAU        -0.2830    0.0010    1.0780 c3        1 XNW     -0.151000
     11 CAP         0.4050   -1.0070    2.0220 c2        1 XNW      0.220000
     12 OAC         0.5440   -2.2040    1.6690 o         1 XNW     -0.303000
     13 CAT         1.4090   -0.3720    3.0220 c3        1 XNW     -0.047000
     14 OAF         2.5930    0.0430    2.3620 oh        1 XNW     -0.323000
     15 CAS         0.7440    0.7630    3.7880 c3        1 XNW      0.015000
     16 OAE        -0.2290    0.2030    4.6850 oh        1 XNW     -0.341000
     17 CAM         0.0590    1.7790    2.9190 c3        1 XNW     -0.188000
     18 CAV        -0.9650    1.1680    1.9250 c3        1 XNW      0.004000
     19 CAO        -1.5880    2.2190    1.0400 c2        1 XNW      0.320000
     20 OAD        -1.0820    3.3430    0.9730 o         1 XNW     -0.553500
     21 OAB        -2.5220    1.9210    0.2970 o         1 XNW     -0.553500
     22 OAG        -2.1090    0.6830    2.6220 oh        1 XNW     -0.380000
     23 HAA1       -1.7680   -1.3410   -5.3880 h1        1 XNW      0.075667
     24 HAA2       -1.5150   -2.9170   -5.1640 h1        1 XNW      0.075667
     25 HAA3       -1.1490   -2.2300   -6.5490 h1        1 XNW      0.075667
     26 HAK         0.3660   -3.0110   -2.8140 ha        1 XNW      0.132000
     27 HAJ        -0.0380    0.7280   -4.5130 ha        1 XNW      0.133000
     28 HAI         0.5180   -2.0740   -0.6340 ha        1 XNW      0.127000
     29 HAH         0.2810    1.7440   -2.3480 ha        1 XNW      0.196000
     30 HAL1        1.6080    0.3480    0.3550 hc        1 XNW      0.110000
     31 HAL2        0.5670    1.5210    0.0110 hc        1 XNW      0.110000
     32 HAU        -0.9370   -0.4470    0.4920 hc        1 XNW      0.131000
     33 HAT         1.7580   -1.0300    3.6300 h1        1 XNW      0.131000
     34 HAF         2.9870    0.6780    2.8340 ho        1 XNW      0.207000
     35 HAS         1.4480    1.2340    4.3330 h1        1 XNW      0.101000
     36 HAE        -0.0010    0.4070    5.5460 ho        1 XNW      0.231000
     37 HAM1       -0.4110    2.4160    3.4990 hc        1 XNW      0.110500
     38 HAM2        0.7430    2.2670    2.4060 hc        1 XNW      0.110500
     39 HAG        -2.7750    0.5270    2.0340 ho        1 XNW      0.239000
@<TRIPOS>BOND
     1    1    2 1   
     2    1   23 1   
     3    1   24 1   
     4    1   25 1   
     5    2    3 1   
     6    3    4 1   
     7    3    6 1   
     8    4    5 1   
     9    4   26 1   
    10    5   28 1   
    11    6   27 1   
    12    7    8 1   
    13    7   29 1   
    14    8    9 1   
    15    9   10 1   
    16    9   30 1   
    17    9   31 1   
    18   10   11 1   
    19   10   18 1   
    20   10   32 1   
    21   11   12 1   
    22   11   13 1   
    23   13   14 1   
    24   13   15 1   
    25   13   33 1   
    26   14   34 1   
    27   15   16 1   
    28   15   17 1   
    29   15   35 1   
    30   16   36 1   
    31   17   18 1   
    32   17   37 1   
    33   17   38 1   
    34   18   19 1   
    35   18   22 1   
    36   19   20 1   
    37   19   21 1   
    38   22   39 1   
@<TRIPOS>SUBSTRUCTURE
     1 XNW         1 TEMP              0 ****  ****    0 ROOT
