@<TRIPOS>MOLECULE
XNW
   39    40     1     0     0
SMALL
bcc


@<TRIPOS>ATOM
      1 CAA         0.5980   -0.4280   -0.5580 c3        1 XNW      0.119700
      2 OAN         1.9500   -0.2360   -0.1750 os        1 XNW     -0.336900
      3 CAR         2.1830   -0.1200    1.1890 ca        1 XNW      0.097100
      4 CAK         3.5290    0.0900    1.5430 ca        1 XNW     -0.187000
      5 CAI         3.8660    0.2170    2.8840 ca        1 XNW     -0.098000
      6 CAJ         1.1890   -0.1990    2.1670 ca        1 XNW     -0.187000
      7 CAH         1.5480   -0.0690    3.5110 ca        1 XNW     -0.098000
      8 CAQ         2.8780    0.1360    3.8800 ca        1 XNW     -0.098300
      9 CAL         3.2650    0.2440    5.3140 c3        1 XNW     -0.028100
     10 CAU         3.8740    1.6010    5.6510 c3        1 XNW     -0.150700
     11 CAP         2.9050    2.5130    6.3430 c         1 XNW      0.573100
     12 OAC         1.7310    2.2470    6.6260 o         1 XNW     -0.567100
     13 CAT         3.4790    3.8680    6.7170 c3        1 XNW     -0.005900
     14 OAF         2.5490    4.7010    7.3900 oh        1 XNW     -0.615800
     15 CAS         4.7240    3.6600    7.6010 c3        1 XNW      0.131100
     16 OAE         5.3270    4.9120    7.8990 oh        1 XNW     -0.605800
     17 CAM         5.7450    2.8020    6.8720 c3        1 XNW     -0.074400
     18 CAV         5.1640    1.4420    6.4890 c3        1 XNW      0.024800
     19 CAO         6.2200    0.6800    5.6100 c         1 XNW      0.903600
     20 OAD         6.6540   -0.4040    6.0870 o         1 XNW     -0.817300
     21 OAB         6.5400    1.1820    4.5010 o         1 XNW     -0.817300
     22 OAG         4.8650    0.7250    7.6760 oh        1 XNW     -0.635800
     23 HAA1       -0.0340    0.4350   -0.2340 h1        1 XNW      0.033367
     24 HAA2        0.1960   -1.3800   -0.1340 h1        1 XNW      0.033367
     25 HAA3        0.6420   -0.4840   -1.6750 h1        1 XNW      0.033367
     26 HAK         4.2940    0.1510    0.7580 ha        1 XNW      0.131000
     27 HAJ         0.1370   -0.3590    1.9000 ha        1 XNW      0.131000
     28 HAI         4.9220    0.3880    3.1860 ha        1 XNW      0.165500
     29 HAH         0.7680   -0.1250    4.2850 ha        1 XNW      0.165500
     30 HAL1        4.0290   -0.5550    5.5390 hc        1 XNW      0.071700
     31 HAL2        2.3780    0.0550    5.9740 hc        1 XNW      0.071700
     32 HAU         4.2030    2.1120    4.6970 hc        1 XNW      0.103700
     33 HAT         3.7630    4.4360    5.7870 h1        1 XNW      0.095700
     34 HAF         1.9220    4.1250    7.8500 ho        1 XNW      0.416000
     35 HAS         4.4140    3.1630    8.5640 h1        1 XNW      0.048700
     36 HAE         4.6120    5.4950    8.1850 ho        1 XNW      0.402000
     37 HAM1        6.6300    2.6440    7.5400 hc        1 XNW      0.069700
     38 HAM2        6.0970    3.3180    5.9420 hc        1 XNW      0.069700
     39 HAG         5.3890   -0.0940    7.6540 ho        1 XNW      0.434000
@<TRIPOS>BOND
     1    1    2 1   
     2    1   23 1   
     3    1   24 1   
     4    1   25 1   
     5    2    3 1   
     6    3    4 ar  
     7    3    6 ar  
     8    4    5 ar  
     9    4   26 1   
    10    5    8 ar  
    11    5   28 1   
    12    6    7 ar  
    13    6   27 1   
    14    7    8 ar  
    15    7   29 1   
    16    8    9 1   
    17    9   10 1   
    18    9   30 1   
    19    9   31 1   
    20   10   11 1   
    21   10   18 1   
    22   10   32 1   
    23   11   12 2   
    24   11   13 1   
    25   13   14 1   
    26   13   15 1   
    27   13   33 1   
    28   14   34 1   
    29   15   16 1   
    30   15   17 1   
    31   15   35 1   
    32   16   36 1   
    33   17   18 1   
    34   17   37 1   
    35   17   38 1   
    36   18   19 1   
    37   18   22 1   
    38   19   20 1   
    39   19   21 1   
    40   22   39 1   
@<TRIPOS>SUBSTRUCTURE
     1 XNW         1 TEMP              0 ****  ****    0 ROOT
