@<TRIPOS>MOLECULE
XNW
   39    40     1     0     0
SMALL
bcc


@<TRIPOS>ATOM
      1 CAA         0.6130   -0.4240   -0.5820 c3        1 XNW      0.119700
      2 OAN         1.9640   -0.2320   -0.1940 os        1 XNW     -0.336900
      3 CAR         2.1910   -0.1200    1.1720 ca        1 XNW      0.097100
      4 CAK         3.5350    0.0920    1.5320 ca        1 XNW     -0.187000
      5 CAI         3.8690    0.2140    2.8740 ca        1 XNW     -0.098000
      6 CAJ         1.1950   -0.2060    2.1460 ca        1 XNW     -0.187000
      7 CAH         1.5480   -0.0800    3.4920 ca        1 XNW     -0.098000
      8 CAQ         2.8770    0.1270    3.8660 ca        1 XNW     -0.098300
      9 CAL         3.2590    0.2300    5.3010 c3        1 XNW     -0.028100
     10 CAU         3.8630    1.5880    5.6460 c3        1 XNW     -0.150700
     11 CAP         2.8890    2.4950    6.3380 c         1 XNW      0.573100
     12 OAC         1.7150    2.2240    6.6170 o         1 XNW     -0.567100
     13 CAT         3.4580    3.8490    6.7200 c3        1 XNW     -0.005900
     14 OAF         2.5230    4.6770    7.3930 oh        1 XNW     -0.615800
     15 CAS         4.7000    3.6420    7.6070 c3        1 XNW      0.131100
     16 OAE         5.2990    4.8940    7.9130 oh        1 XNW     -0.605800
     17 CAM         5.7260    2.7900    6.8780 c3        1 XNW     -0.074400
     18 CAV         5.1510    1.4290    6.4870 c3        1 XNW      0.024800
     19 CAO         6.2110    0.6740    5.6090 c         1 XNW      0.903600
     20 OAD         6.6470   -0.4100    6.0830 o         1 XNW     -0.817300
     21 OAB         6.5340    1.1810    4.5030 o         1 XNW     -0.817300
     22 OAG         4.8500    0.7070    7.6710 oh        1 XNW     -0.635800
     23 HAA1        0.6620   -0.4760   -1.6990 h1        1 XNW      0.033367
     24 HAA2        0.2120   -1.3800   -0.1630 h1        1 XNW      0.033367
     25 HAA3       -0.0210    0.4360   -0.2570 h1        1 XNW      0.033367
     26 HAK         4.3030    0.1580    0.7490 ha        1 XNW      0.131000
     27 HAJ         0.1440   -0.3680    1.8750 ha        1 XNW      0.131000
     28 HAI         4.9220    0.3870    3.1800 ha        1 XNW      0.165500
     29 HAH         0.7660   -0.1410    4.2630 ha        1 XNW      0.165500
     30 HAL1        4.0240   -0.5670    5.5270 hc        1 XNW      0.071700
     31 HAL2        2.3700    0.0360    5.9580 hc        1 XNW      0.071700
     32 HAU         4.1930    2.1040    4.6950 hc        1 XNW      0.103700
     33 HAT         3.7430    4.4220    5.7930 h1        1 XNW      0.095700
     34 HAF         1.8970    4.0980    7.8490 ho        1 XNW      0.416000
     35 HAS         4.3880    3.1400    8.5670 h1        1 XNW      0.048700
     36 HAE         4.5810    5.4740    8.1990 ho        1 XNW      0.402000
     37 HAM1        6.0800    3.3100    5.9510 hc        1 XNW      0.069700
     38 HAM2        6.6090    2.6310    7.5480 hc        1 XNW      0.069700
     39 HAG         5.3760   -0.1110    7.6470 ho        1 XNW      0.434000
@<TRIPOS>BOND
     1    1    2 1   
     2    1   23 1   
     3    1   24 1   
     4    1   25 1   
     5    2    3 1   
     6    3    4 ar  
     7    3    6 ar  
     8    4    5 ar  
     9    4   26 1   
    10    5    8 ar  
    11    5   28 1   
    12    6    7 ar  
    13    6   27 1   
    14    7    8 ar  
    15    7   29 1   
    16    8    9 1   
    17    9   10 1   
    18    9   30 1   
    19    9   31 1   
    20   10   11 1   
    21   10   18 1   
    22   10   32 1   
    23   11   12 2   
    24   11   13 1   
    25   13   14 1   
    26   13   15 1   
    27   13   33 1   
    28   14   34 1   
    29   15   16 1   
    30   15   17 1   
    31   15   35 1   
    32   16   36 1   
    33   17   18 1   
    34   17   37 1   
    35   17   38 1   
    36   18   19 1   
    37   18   22 1   
    38   19   20 1   
    39   19   21 1   
    40   22   39 1   
@<TRIPOS>SUBSTRUCTURE
     1 XNW         1 TEMP              0 ****  ****    0 ROOT
