@<TRIPOS>MOLECULE
XNW
   39    40     1     0     0
SMALL
bcc


@<TRIPOS>ATOM
      1 CAA        -6.4970    0.1280   -0.2610 c3        1 XNW      0.119700
      2 OAN        -5.4610   -0.6130   -0.8860 os        1 XNW     -0.336900
      3 CAR        -4.2000   -0.4890   -0.3170 ca        1 XNW      0.097100
      4 CAK        -3.1850   -1.2150   -0.9670 ca        1 XNW     -0.187000
      5 CAI        -1.8880   -1.1610   -0.4730 ca        1 XNW     -0.098000
      6 CAJ        -3.9170    0.2830    0.8110 ca        1 XNW     -0.187000
      7 CAH        -2.6070    0.3270    1.2930 ca        1 XNW     -0.098000
      8 CAQ        -1.5890   -0.3900    0.6630 ca        1 XNW     -0.098300
      9 CAL        -0.1980   -0.3690    1.1940 c3        1 XNW     -0.028100
     10 CAU         0.7960    0.2240    0.2010 c3        1 XNW     -0.150700
     11 CAP         1.1630    1.6410    0.5270 c         1 XNW      0.573100
     12 OAC         0.7340    2.3040    1.4800 o         1 XNW     -0.567100
     13 CAT         2.1690    2.2620   -0.4260 c3        1 XNW     -0.005900
     14 OAF         2.5160    3.5930   -0.0800 oh        1 XNW     -0.615800
     15 CAS         3.4370    1.3880   -0.4600 c3        1 XNW      0.131100
     16 OAE         4.3630    1.9040   -1.4060 oh        1 XNW     -0.605800
     17 CAM         3.0810   -0.0320   -0.8700 c3        1 XNW     -0.074400
     18 CAV         2.0630   -0.6540    0.0860 c3        1 XNW      0.024800
     19 CAO         1.6320   -2.0510   -0.4880 c         1 XNW      0.903600
     20 OAD         1.8990   -3.0500    0.2350 o         1 XNW     -0.817300
     21 OAB         1.0420   -2.0800   -1.5990 o         1 XNW     -0.817300
     22 OAG         2.6610   -0.7820    1.3650 oh        1 XNW     -0.635800
     23 HAA1       -6.2770    1.2230   -0.2900 h1        1 XNW      0.033367
     24 HAA2       -7.4010   -0.1070   -0.8770 h1        1 XNW      0.033367
     25 HAA3       -6.6440   -0.2080    0.7940 h1        1 XNW      0.033367
     26 HAK        -3.4280   -1.8160   -1.8540 ha        1 XNW      0.131000
     27 HAJ        -4.7020    0.8560    1.3230 ha        1 XNW      0.131000
     28 HAI        -1.0700   -1.7220   -0.9740 ha        1 XNW      0.165500
     29 HAH        -2.3780    0.9390    2.1790 ha        1 XNW      0.165500
     30 HAL1       -0.1550    0.2060    2.1580 hc        1 XNW      0.071700
     31 HAL2        0.1150   -1.4280    1.4210 hc        1 XNW      0.071700
     32 HAU         0.3380    0.2200   -0.8340 hc        1 XNW      0.103700
     33 HAT         1.7270    2.3330   -1.4590 h1        1 XNW      0.095700
     34 HAF         2.4050    3.6850    0.8760 ho        1 XNW      0.416000
     35 HAS         3.9140    1.3910    0.5610 h1        1 XNW      0.048700
     36 HAE         4.4240    2.8530   -1.2330 ho        1 XNW      0.402000
     37 HAM1        2.6570   -0.0460   -1.9070 hc        1 XNW      0.069700
     38 HAM2        4.0110   -0.6560   -0.8650 hc        1 XNW      0.069700
     39 HAG         2.6470   -1.7270    1.5930 ho        1 XNW      0.434000
@<TRIPOS>BOND
     1    1    2 1   
     2    1   23 1   
     3    1   24 1   
     4    1   25 1   
     5    2    3 1   
     6    3    4 ar  
     7    3    6 ar  
     8    4    5 ar  
     9    4   26 1   
    10    5    8 ar  
    11    5   28 1   
    12    6    7 ar  
    13    6   27 1   
    14    7    8 ar  
    15    7   29 1   
    16    8    9 1   
    17    9   10 1   
    18    9   30 1   
    19    9   31 1   
    20   10   11 1   
    21   10   18 1   
    22   10   32 1   
    23   11   12 2   
    24   11   13 1   
    25   13   14 1   
    26   13   15 1   
    27   13   33 1   
    28   14   34 1   
    29   15   16 1   
    30   15   17 1   
    31   15   35 1   
    32   16   36 1   
    33   17   18 1   
    34   17   37 1   
    35   17   38 1   
    36   18   19 1   
    37   18   22 1   
    38   19   20 1   
    39   19   21 1   
    40   22   39 1   
@<TRIPOS>SUBSTRUCTURE
     1 XNW         1 TEMP              0 ****  ****    0 ROOT
