@<TRIPOS>MOLECULE
XNZ
   66    70     1     0     0
SMALL
bcc


@<TRIPOS>ATOM
      1 CL37        0.1990    1.8480   -2.8490 cl        1 XNZ     -0.078400
      2 C17         0.7970    0.8650   -1.5960 ca        1 XNZ      0.066400
      3 C18         2.1790    0.8280   -1.4110 ca        1 XNZ     -0.160000
      4 C19         2.7120    0.0270   -0.3860 ca        1 XNZ      0.138100
      5 O22         4.0870    0.0780   -0.2760 os        1 XNZ     -0.324900
      6 C23         4.6660   -0.8420    0.6620 c3        1 XNZ      0.175700
      7 C24         6.1510   -0.7110    0.5760 ca        1 XNZ     -0.094300
      8 C29         6.7560    0.4930    0.2040 ca        1 XNZ     -0.112500
      9 C28         8.1460    0.5920    0.1640 ca        1 XNZ     -0.131500
     10 C27         8.9370   -0.5070    0.4990 ca        1 XNZ     -0.125000
     11 C26         8.3350   -1.7100    0.8700 ca        1 XNZ     -0.131500
     12 C25         6.9460   -1.8150    0.9050 ca        1 XNZ     -0.112500
     13 C20         1.8690   -0.7260    0.4380 ca        1 XNZ     -0.209000
     14 C21         0.4920   -0.6730    0.2300 ca        1 XNZ     -0.071000
     15 C16        -0.0680    0.1120   -0.7800 ca        1 XNZ     -0.104300
     16 C8         -1.5620    0.1240   -1.0300 c3        1 XNZ      0.210200
     17 N7         -2.1670    1.3970   -0.6510 n         1 XNZ     -0.392000
     18 C30        -3.1720    1.9740   -1.4350 c         1 XNZ      0.675100
     19 O32        -3.4770    1.4770   -2.5340 o         1 XNZ     -0.585100
     20 C31        -3.8540    3.2180   -0.9250 c3        1 XNZ     -0.169100
     21 C4         -1.8710    1.8910    0.6400 ca        1 XNZ      0.055600
     22 C3         -1.2030    3.1240    0.7900 ca        1 XNZ     -0.137000
     23 C2         -0.8720    3.6110    2.0470 ca        1 XNZ     -0.108000
     24 C9         -2.2460   -1.0760   -0.4180 ce        1 XNZ     -0.312400
     25 C12        -2.2800   -2.2450   -1.3150 c         1 XNZ      0.589300
     26 O36        -1.7640   -2.2270   -2.4420 o         1 XNZ     -0.539100
     27 C13        -2.9380   -3.5070   -0.8290 c3        1 XNZ     -0.174400
     28 C14        -4.0600   -3.2460    0.1630 c3        1 XNZ     -0.041000
     29 C34        -5.2340   -2.5650   -0.5240 c3        1 XNZ     -0.092600
     30 C35        -4.5300   -4.5730    0.7480 c3        1 XNZ     -0.092600
     31 C15        -3.5190   -2.3780    1.2940 c3        1 XNZ     -0.060200
     32 C10        -2.8450   -1.1070    0.8120 c2        1 XNZ      0.199800
     33 N11        -2.9440   -0.0670    1.7290 nh        1 XNZ     -0.614400
     34 C5         -2.2000    1.1200    1.7910 ca        1 XNZ      0.112600
     35 C6         -1.8230    1.6450    3.0640 ca        1 XNZ      0.082100
     36 O33        -2.1380    0.8810    4.1730 oh        1 XNZ     -0.518100
     37 C1         -1.1790    2.8760    3.1880 ca        1 XNZ     -0.188000
     38 H18         2.8580    1.4090   -2.0520 ha        1 XNZ      0.163000
     39 H23         4.3160   -0.5750    1.6980 h1        1 XNZ      0.048700
     40 H23A        4.3390   -1.8860    0.4100 h1        1 XNZ      0.048700
     41 H29         6.1280    1.3560   -0.0670 ha        1 XNZ      0.139500
     42 H28         8.6180    1.5400   -0.1330 ha        1 XNZ      0.132500
     43 H27        10.0330   -0.4270    0.4690 ha        1 XNZ      0.132000
     44 H26         8.9560   -2.5780    1.1310 ha        1 XNZ      0.132500
     45 H25         6.4740   -2.7670    1.1900 ha        1 XNZ      0.139500
     46 H20         2.2700   -1.3570    1.2420 ha        1 XNZ      0.137000
     47 H21        -0.1670   -1.2690    0.8810 ha        1 XNZ      0.138000
     48 H8         -1.7080    0.0360   -2.1620 h1        1 XNZ      0.134700
     49 H31        -4.3120    3.0330    0.0760 hc        1 XNZ      0.067367
     50 H31A       -3.1210    4.0560   -0.8410 hc        1 XNZ      0.067367
     51 H31B       -4.6560    3.5050   -1.6490 hc        1 XNZ      0.067367
     52 H3         -0.9330    3.7050   -0.1060 ha        1 XNZ      0.152000
     53 H2         -0.3570    4.5790    2.1420 ha        1 XNZ      0.142000
     54 H13        -3.3350   -4.0760   -1.7110 hc        1 XNZ      0.073700
     55 H13A       -2.1460   -4.1420   -0.3470 hc        1 XNZ      0.073700
     56 H34        -5.6300   -3.2150   -1.3410 hc        1 XNZ      0.042533
     57 H34A       -6.0540   -2.3740    0.2080 hc        1 XNZ      0.042533
     58 H34B       -4.9120   -1.5920   -0.9680 hc        1 XNZ      0.042533
     59 H35        -3.6900   -5.0950    1.2660 hc        1 XNZ      0.042533
     60 H35A       -5.3520   -4.4010    1.4830 hc        1 XNZ      0.042533
     61 H35B       -4.9120   -5.2340   -0.0670 hc        1 XNZ      0.042533
     62 H15        -4.3710   -2.1500    1.9910 hc        1 XNZ      0.061200
     63 H15A       -2.7540   -2.9630    1.8740 hc        1 XNZ      0.061200
     64 HN11       -3.3030   -0.3430    2.6240 hn        1 XNZ      0.440800
     65 HO33       -1.8730    1.3790    4.9600 ho        1 XNZ      0.430000
     66 H1         -0.9090    3.2550    4.1850 ha        1 XNZ      0.138000
@<TRIPOS>BOND
     1    1    2 1   
     2    2    3 ar  
     3    2   15 ar  
     4    3    4 ar  
     5    3   38 1   
     6    4    5 1   
     7    4   13 ar  
     8    5    6 1   
     9    6    7 1   
    10    6   39 1   
    11    6   40 1   
    12    7    8 ar  
    13    7   12 ar  
    14    8    9 ar  
    15    8   41 1   
    16    9   10 ar  
    17    9   42 1   
    18   10   11 ar  
    19   10   43 1   
    20   11   12 ar  
    21   11   44 1   
    22   12   45 1   
    23   13   14 ar  
    24   13   46 1   
    25   14   15 ar  
    26   14   47 1   
    27   15   16 1   
    28   16   17 1   
    29   16   24 1   
    30   16   48 1   
    31   17   18 1   
    32   17   21 1   
    33   18   19 2   
    34   18   20 1   
    35   20   49 1   
    36   20   50 1   
    37   20   51 1   
    38   21   22 ar  
    39   21   34 ar  
    40   22   23 ar  
    41   22   52 1   
    42   23   37 ar  
    43   23   53 1   
    44   24   25 1   
    45   24   32 2   
    46   25   26 2   
    47   25   27 1   
    48   27   28 1   
    49   27   54 1   
    50   27   55 1   
    51   28   29 1   
    52   28   30 1   
    53   28   31 1   
    54   29   56 1   
    55   29   57 1   
    56   29   58 1   
    57   30   59 1   
    58   30   60 1   
    59   30   61 1   
    60   31   32 1   
    61   31   62 1   
    62   31   63 1   
    63   32   33 1   
    64   33   34 1   
    65   33   64 1   
    66   34   35 ar  
    67   35   36 1   
    68   35   37 ar  
    69   36   65 1   
    70   37   66 1   
@<TRIPOS>SUBSTRUCTURE
     1 XNZ         1 TEMP              0 ****  ****    0 ROOT
