@<TRIPOS>MOLECULE
XNZ
   66    70     1     0     0
SMALL
bcc


@<TRIPOS>ATOM
      1 CL37        0.2650   -0.4390    0.2410 cl        1 XNZ     -0.078400
      2 C17         1.9540   -0.2880    0.1130 ca        1 XNZ      0.066400
      3 C18         2.6940   -0.3130    1.2940 ca        1 XNZ     -0.160000
      4 C19         4.0930   -0.1910    1.2300 ca        1 XNZ      0.138100
      5 O22         4.7300   -0.2480    2.4540 os        1 XNZ     -0.324900
      6 C23         6.1400    0.0240    2.4290 c3        1 XNZ      0.175700
      7 C24         6.6330    0.0140    3.8380 ca        1 XNZ     -0.094300
      8 C29         6.0170   -0.7680    4.8200 ca        1 XNZ     -0.112500
      9 C28         6.5220   -0.7810    6.1200 ca        1 XNZ     -0.131500
     10 C27         7.6440   -0.0190    6.4440 ca        1 XNZ     -0.125000
     11 C26         8.2600    0.7620    5.4650 ca        1 XNZ     -0.131500
     12 C25         7.7550    0.7830    4.1670 ca        1 XNZ     -0.112500
     13 C20         4.7370   -0.0450   -0.0030 ca        1 XNZ     -0.209000
     14 C21         3.9740   -0.0220   -1.1690 ca        1 XNZ     -0.071000
     15 C16         2.5830   -0.1390   -1.1380 ca        1 XNZ     -0.104300
     16 C8          1.7590   -0.0630   -2.4070 c3        1 XNZ      0.210200
     17 N7          1.1740   -1.3530   -2.7540 n         1 XNZ     -0.392000
     18 C30        -0.1290   -1.4370   -3.2560 c         1 XNZ      0.675100
     19 O32        -0.8560   -0.4280   -3.2940 o         1 XNZ     -0.585100
     20 C31        -0.6340   -2.7790   -3.7240 c3        1 XNZ     -0.169100
     21 C4          2.0450   -2.4660   -2.7890 ca        1 XNZ      0.055600
     22 C3          1.8390   -3.5550   -1.9160 ca        1 XNZ     -0.137000
     23 C2          2.7010   -4.6420   -1.9100 ca        1 XNZ     -0.108000
     24 C9          2.5260    0.5770   -3.5400 ce        1 XNZ     -0.311400
     25 C12         2.3970    2.0460   -3.5710 c         1 XNZ      0.589300
     26 O36         1.7410    2.6690   -2.7240 o         1 XNZ     -0.539100
     27 C13         3.1090    2.8080   -4.6540 c3        1 XNZ     -0.174400
     28 C14         3.2690    2.0070   -5.9360 c3        1 XNZ     -0.041000
     29 C34         1.9180    1.7780   -6.5970 c3        1 XNZ     -0.092600
     30 C35         4.1680    2.7750   -6.8980 c3        1 XNZ     -0.092600
     31 C15         3.9360    0.6780   -5.6000 c3        1 XNZ     -0.060200
     32 C10         3.2300   -0.0940   -4.5010 c2        1 XNZ      0.199800
     33 N11         3.3830   -1.4700   -4.6300 nh        1 XNZ     -0.614400
     34 C5          3.1640   -2.4690   -3.6710 ca        1 XNZ      0.111600
     35 C6          4.0390   -3.5940   -3.6180 ca        1 XNZ      0.082100
     36 O33         5.1290   -3.5790   -4.4700 oh        1 XNZ     -0.518100
     37 C1          3.8040   -4.6680   -2.7590 ca        1 XNZ     -0.188000
     38 H18         2.2050   -0.4220    2.2740 ha        1 XNZ      0.163000
     39 H23         6.6560   -0.7790    1.8350 h1        1 XNZ      0.048700
     40 H23A        6.3180    1.0230    1.9480 h1        1 XNZ      0.048700
     41 H29         5.1270   -1.3620    4.5620 ha        1 XNZ      0.139500
     42 H28         6.0310   -1.3940    6.8910 ha        1 XNZ      0.132500
     43 H27         8.0420   -0.0320    7.4690 ha        1 XNZ      0.132000
     44 H26         9.1430    1.3670    5.7190 ha        1 XNZ      0.132500
     45 H25         8.2380    1.4070    3.4000 ha        1 XNZ      0.139500
     46 H20         5.8290    0.0520   -0.0690 ha        1 XNZ      0.137000
     47 H21         4.4870    0.0950   -2.1370 ha        1 XNZ      0.138000
     48 H8          0.8750    0.6290   -2.1840 h1        1 XNZ      0.134700
     49 H31         0.0310   -3.1920   -4.5210 hc        1 XNZ      0.067367
     50 H31A       -0.6700   -3.4990   -2.8720 hc        1 XNZ      0.067367
     51 H31B       -1.6640   -2.6470   -4.1360 hc        1 XNZ      0.067367
     52 H3          0.9820   -3.5370   -1.2220 ha        1 XNZ      0.152000
     53 H2          2.5190   -5.4840   -1.2250 ha        1 XNZ      0.142000
     54 H13         2.5460    3.7560   -4.8660 hc        1 XNZ      0.073700
     55 H13A        4.1200    3.0980   -4.2590 hc        1 XNZ      0.073700
     56 H34         1.4450    2.7570   -6.8500 hc        1 XNZ      0.042533
     57 H34A        1.2390    1.2210   -5.9070 hc        1 XNZ      0.042533
     58 H34B        2.0410    1.1880   -7.5360 hc        1 XNZ      0.042533
     59 H35         3.7070    3.7620   -7.1430 hc        1 XNZ      0.042533
     60 H35A        4.3010    2.1990   -7.8450 hc        1 XNZ      0.042533
     61 H35B        5.1710    2.9530   -6.4430 hc        1 XNZ      0.042533
     62 H15         4.9880    0.8710   -5.2500 hc        1 XNZ      0.061200
     63 H15A        4.0000    0.0750   -6.5470 hc        1 XNZ      0.061200
     64 HN11        4.0520   -1.7450   -5.3250 hn        1 XNZ      0.440800
     65 HO33        5.5990   -4.4180   -4.3640 ho        1 XNZ      0.430000
     66 H1          4.4950   -5.5230   -2.7480 ha        1 XNZ      0.138000
@<TRIPOS>BOND
     1    1    2 1   
     2    2    3 ar  
     3    2   15 ar  
     4    3    4 ar  
     5    3   38 1   
     6    4    5 1   
     7    4   13 ar  
     8    5    6 1   
     9    6    7 1   
    10    6   39 1   
    11    6   40 1   
    12    7    8 ar  
    13    7   12 ar  
    14    8    9 ar  
    15    8   41 1   
    16    9   10 ar  
    17    9   42 1   
    18   10   11 ar  
    19   10   43 1   
    20   11   12 ar  
    21   11   44 1   
    22   12   45 1   
    23   13   14 ar  
    24   13   46 1   
    25   14   15 ar  
    26   14   47 1   
    27   15   16 1   
    28   16   17 1   
    29   16   24 1   
    30   16   48 1   
    31   17   18 1   
    32   17   21 1   
    33   18   19 2   
    34   18   20 1   
    35   20   49 1   
    36   20   50 1   
    37   20   51 1   
    38   21   22 ar  
    39   21   34 ar  
    40   22   23 ar  
    41   22   52 1   
    42   23   37 ar  
    43   23   53 1   
    44   24   25 1   
    45   24   32 2   
    46   25   26 2   
    47   25   27 1   
    48   27   28 1   
    49   27   54 1   
    50   27   55 1   
    51   28   29 1   
    52   28   30 1   
    53   28   31 1   
    54   29   56 1   
    55   29   57 1   
    56   29   58 1   
    57   30   59 1   
    58   30   60 1   
    59   30   61 1   
    60   31   32 1   
    61   31   62 1   
    62   31   63 1   
    63   32   33 1   
    64   33   34 1   
    65   33   64 1   
    66   34   35 ar  
    67   35   36 1   
    68   35   37 ar  
    69   36   65 1   
    70   37   66 1   
@<TRIPOS>SUBSTRUCTURE
     1 XNZ         1 TEMP              0 ****  ****    0 ROOT
