@<TRIPOS>MOLECULE
XNZ
   66    65     1     0     0
SMALL
bcc


@<TRIPOS>ATOM
      1 CL37       -2.8580    0.3480    1.6700 cl        1 XNZ     -0.015000
      2 C17        -1.1150    0.2340    1.7050 c2        1 XNZ     -0.011000
      3 C18        -0.4450    0.2130    2.9210 c1        1 XNZ     -0.214000
      4 C19         0.9340    0.0810    2.9510 c1        1 XNZ      0.100000
      5 O22         1.6230    0.0410    4.2070 os        1 XNZ     -0.205000
      6 C23         1.5770   -1.2280    4.8520 c3        1 XNZ      0.016000
      7 C24         2.0690   -1.0840    6.2950 c2        1 XNZ     -0.088000
      8 C29         3.3430   -0.5960    6.5460 c1        1 XNZ     -0.101000
      9 C28         3.8290   -0.5580    7.8460 c1        1 XNZ     -0.128000
     10 C27         3.0390   -1.0070    8.8970 c1        1 XNZ     -0.128000
     11 C26         1.7670   -1.4950    8.6470 c1        1 XNZ     -0.131000
     12 C25         1.2800   -1.5340    7.3440 c2        1 XNZ     -0.122000
     13 C20         1.6460   -0.0300    1.7660 c1        1 XNZ     -0.162000
     14 C21         0.9760   -0.0080    0.5460 c1        1 XNZ     -0.080000
     15 C16        -0.4030    0.1230    0.5160 c2        1 XNZ     -0.105000
     16 C8         -1.1470   -0.0660   -0.7870 c3        1 XNZ      0.144000
     17 N7         -0.6390   -1.1820   -1.4610 n         1 XNZ     -0.296000
     18 C30         0.1970   -2.1840   -0.8590 c2        1 XNZ      0.322000
     19 O32         0.5070   -2.0920    0.3130 o         1 XNZ     -0.360000
     20 C31         0.7920   -3.2890   -1.7170 c3        1 XNZ     -0.244000
     21 C4         -1.1480   -1.2410   -2.8380 c2        1 XNZ      0.061000
     22 C3         -0.6030   -2.2870   -3.6010 c2        1 XNZ     -0.103000
     23 C2         -1.4350   -3.0770   -4.3940 c1        1 XNZ     -0.113000
     24 C9         -0.9000    1.1150   -1.6880 c2        1 XNZ     -0.326000
     25 C12         0.4010    1.9860   -1.5030 c2        1 XNZ      0.303000
     26 O36         1.1720    1.7390   -0.6020 o         1 XNZ     -0.312000
     27 C13         0.8300    2.8870   -2.6430 c3        1 XNZ     -0.208000
     28 C14        -0.2860    3.2720   -3.5150 c3        1 XNZ     -0.037000
     29 C34         0.2840    4.0860   -4.6660 c3        1 XNZ     -0.210000
     30 C35        -1.2030    4.1750   -2.7160 c3        1 XNZ     -0.210000
     31 C15        -1.1060    2.1980   -4.0900 c3        1 XNZ     -0.146000
     32 C10        -1.6670    1.2360   -3.0270 c2        1 XNZ      0.120000
     33 N11        -2.7920    0.3870   -3.2870 n3        1 XNZ     -0.242000
     34 C5         -2.5150   -0.9950   -2.8740 c2        1 XNZ      0.029000
     35 C6         -3.3530   -1.7940   -3.6760 c2        1 XNZ      0.031000
     36 O33        -4.7400   -1.5650   -3.6880 oh        1 XNZ     -0.275000
     37 C1         -2.8120   -2.8290   -4.4310 c1        1 XNZ     -0.185000
     38 H18        -0.9450    0.3150    3.7570 ha        1 XNZ      0.151000
     39 H23         2.1510   -1.8590    4.3740 h1        1 XNZ      0.090000
     40 H23A        0.6550   -1.5610    4.8530 h1        1 XNZ      0.090000
     41 H29         3.8980   -0.2800    5.8090 ha        1 XNZ      0.148000
     42 H28         4.7260   -0.2140    8.0220 ha        1 XNZ      0.133000
     43 H27         3.3810   -0.9800    9.8110 ha        1 XNZ      0.133000
     44 H26         1.2120   -1.8110    9.3850 ha        1 XNZ      0.133000
     45 H25         0.3840   -1.8770    7.1680 ha        1 XNZ      0.131000
     46 H20         2.6210   -0.1230    1.7870 ha        1 XNZ      0.156000
     47 H21         1.4790   -0.0870   -0.2910 ha        1 XNZ      0.175000
     48 H8         -2.0640   -0.1580   -0.4620 h1        1 XNZ      0.114000
     49 H31         1.5310   -2.9270   -2.2490 hc        1 XNZ      0.114333
     50 H31A        0.1050   -3.6440   -2.3130 hc        1 XNZ      0.114333
     51 H31B        1.1280   -4.0110   -1.1370 hc        1 XNZ      0.114333
     52 H3          0.3550   -2.4600   -3.5760 ha        1 XNZ      0.161000
     53 H2         -1.0560   -3.8040   -4.9240 ha        1 XNZ      0.141000
     54 H13         1.3240    3.6680   -2.3160 hc        1 XNZ      0.115000
     55 H13A        1.5210    2.4460   -3.1700 hc        1 XNZ      0.115000
     56 H34        -0.4490    4.4010   -5.2370 hc        1 XNZ      0.080667
     57 H34A        0.8930    3.5250   -5.1950 hc        1 XNZ      0.080667
     58 H34B        0.7750    4.8560   -4.3110 hc        1 XNZ      0.080667
     59 H35        -1.9150    4.5170   -3.2990 hc        1 XNZ      0.080667
     60 H35A       -0.6890    4.9260   -2.3550 hc        1 XNZ      0.080667
     61 H35B       -1.6010    3.6670   -1.9780 hc        1 XNZ      0.080667
     62 H15        -1.8200    2.5770   -4.6400 hc        1 XNZ      0.106000
     63 H15A       -0.6020    1.7010   -4.7600 hc        1 XNZ      0.106000
     64 HN11       -3.5770    0.6680   -3.6610 hn        1 XNZ      0.244000
     65 HO33       -5.1300   -2.0710   -3.0680 ho        1 XNZ      0.227000
     66 H1         -3.3930   -3.3820   -4.9860 ha        1 XNZ      0.136000
@<TRIPOS>BOND
     1    1    2 1   
     2    2    3 1   
     3    2   15 1   
     4    3   38 1   
     5    4    5 1   
     6    4   13 1   
     7    5    6 1   
     8    6    7 1   
     9    6   39 1   
    10    6   40 1   
    11    7    8 1   
    12    7   12 1   
    13    8   41 1   
    14    9   10 1   
    15    9   42 1   
    16   10   43 1   
    17   11   12 1   
    18   11   44 1   
    19   12   45 1   
    20   13   46 1   
    21   14   15 1   
    22   14   47 1   
    23   15   16 1   
    24   16   17 1   
    25   16   24 1   
    26   16   48 1   
    27   17   18 1   
    28   17   21 1   
    29   18   19 1   
    30   18   20 1   
    31   20   49 1   
    32   20   50 1   
    33   20   51 1   
    34   21   22 1   
    35   21   34 1   
    36   22   23 1   
    37   22   52 1   
    38   23   53 1   
    39   24   25 1   
    40   24   32 1   
    41   25   26 1   
    42   25   27 1   
    43   27   28 1   
    44   27   54 1   
    45   27   55 1   
    46   28   29 1   
    47   28   30 1   
    48   28   31 1   
    49   29   56 1   
    50   29   57 1   
    51   29   58 1   
    52   30   59 1   
    53   30   60 1   
    54   30   61 1   
    55   31   32 1   
    56   31   62 1   
    57   31   63 1   
    58   32   33 1   
    59   33   34 1   
    60   33   64 1   
    61   34   35 1   
    62   35   36 1   
    63   35   37 1   
    64   36   65 1   
    65   37   66 1   
@<TRIPOS>SUBSTRUCTURE
     1 XNZ         1 TEMP              0 ****  ****    0 ROOT
