@<TRIPOS>MOLECULE
XNZ
   66    70     1     0     0
SMALL
bcc


@<TRIPOS>ATOM
      1 CL37        0.2670   -0.4280    0.2400 cl        1 XNZ     -0.078400
      2 C17         1.9570   -0.2830    0.1130 ca        1 XNZ      0.066400
      3 C18         2.6960   -0.3100    1.2960 ca        1 XNZ     -0.160000
      4 C19         4.0960   -0.1930    1.2320 ca        1 XNZ      0.138100
      5 O22         4.7310   -0.2520    2.4570 os        1 XNZ     -0.324900
      6 C23         6.1410    0.0150    2.4340 c3        1 XNZ      0.175700
      7 C24         6.6330    0.0020    3.8430 ca        1 XNZ     -0.094300
      8 C29         6.0120   -0.7750    4.8250 ca        1 XNZ     -0.112500
      9 C28         6.5160   -0.7900    6.1250 ca        1 XNZ     -0.131500
     10 C27         7.6420   -0.0340    6.4490 ca        1 XNZ     -0.125000
     11 C26         8.2630    0.7430    5.4710 ca        1 XNZ     -0.131500
     12 C25         7.7600    0.7660    4.1720 ca        1 XNZ     -0.112500
     13 C20         4.7410   -0.0480    0.0000 ca        1 XNZ     -0.209000
     14 C21         3.9790   -0.0220   -1.1660 ca        1 XNZ     -0.071000
     15 C16         2.5870   -0.1350   -1.1370 ca        1 XNZ     -0.104300
     16 C8          1.7650   -0.0560   -2.4060 c3        1 XNZ      0.210200
     17 N7          1.1760   -1.3440   -2.7550 n         1 XNZ     -0.392000
     18 C30        -0.1270   -1.4230   -3.2570 c         1 XNZ      0.675100
     19 O32        -0.8510   -0.4110   -3.2950 o         1 XNZ     -0.585100
     20 C31        -0.6350   -2.7630   -3.7280 c3        1 XNZ     -0.169100
     21 C4          2.0430   -2.4590   -2.7900 ca        1 XNZ      0.055600
     22 C3          1.8330   -3.5480   -1.9170 ca        1 XNZ     -0.137000
     23 C2          2.6910   -4.6380   -1.9110 ca        1 XNZ     -0.108000
     24 C9          2.5340    0.5830   -3.5380 ce        1 XNZ     -0.311400
     25 C12         2.4100    2.0520   -3.5700 c         1 XNZ      0.589300
     26 O36         1.7560    2.6770   -2.7220 o         1 XNZ     -0.539100
     27 C13         3.1250    2.8120   -4.6520 c3        1 XNZ     -0.174400
     28 C14         3.2840    2.0110   -5.9340 c3        1 XNZ     -0.041000
     29 C34         1.9330    1.7860   -6.5950 c3        1 XNZ     -0.092600
     30 C35         4.1850    2.7760   -6.8950 c3        1 XNZ     -0.092600
     31 C15         3.9470    0.6800   -5.5980 c3        1 XNZ     -0.060200
     32 C10         3.2370   -0.0900   -4.4990 c2        1 XNZ      0.199800
     33 N11         3.3860   -1.4660   -4.6280 nh        1 XNZ     -0.614400
     34 C5          3.1630   -2.4650   -3.6700 ca        1 XNZ      0.112600
     35 C6          4.0350   -3.5940   -3.6170 ca        1 XNZ      0.082100
     36 O33         5.1250   -3.5810   -4.4680 oh        1 XNZ     -0.518100
     37 C1          3.7960   -4.6660   -2.7590 ca        1 XNZ     -0.188000
     38 H18         2.2060   -0.4170    2.2750 ha        1 XNZ      0.163000
     39 H23         6.3240    1.0130    1.9530 h1        1 XNZ      0.048700
     40 H23A        6.6550   -0.7900    1.8400 h1        1 XNZ      0.048700
     41 H29         5.1190   -1.3650    4.5660 ha        1 XNZ      0.139500
     42 H28         6.0220   -1.4000    6.8960 ha        1 XNZ      0.132500
     43 H27         8.0400   -0.0480    7.4740 ha        1 XNZ      0.132000
     44 H26         9.1490    1.3430    5.7250 ha        1 XNZ      0.132500
     45 H25         8.2460    1.3860    3.4050 ha        1 XNZ      0.139500
     46 H20         5.8330    0.0450   -0.0650 ha        1 XNZ      0.137000
     47 H21         4.4930    0.0930   -2.1340 ha        1 XNZ      0.138000
     48 H8          0.8820    0.6400   -2.1840 h1        1 XNZ      0.134700
     49 H31        -0.6750   -3.4830   -2.8750 hc        1 XNZ      0.067367
     50 H31A       -1.6650   -2.6270   -4.1400 hc        1 XNZ      0.067367
     51 H31B        0.0280   -3.1780   -4.5240 hc        1 XNZ      0.067367
     52 H3          0.9760   -3.5270   -1.2240 ha        1 XNZ      0.152000
     53 H2          2.5060   -5.4790   -1.2270 ha        1 XNZ      0.142000
     54 H13         2.5640    3.7620   -4.8640 hc        1 XNZ      0.073700
     55 H13A        4.1370    3.0990   -4.2560 hc        1 XNZ      0.073700
     56 H34         1.2510    1.2310   -5.9060 hc        1 XNZ      0.042533
     57 H34A        2.0540    1.1960   -7.5350 hc        1 XNZ      0.042533
     58 H34B        1.4620    2.7670   -6.8490 hc        1 XNZ      0.042533
     59 H35         4.3170    2.2000   -7.8420 hc        1 XNZ      0.042533
     60 H35A        5.1890    2.9520   -6.4390 hc        1 XNZ      0.042533
     61 H35B        3.7280    3.7650   -7.1390 hc        1 XNZ      0.042533
     62 H15         4.9990    0.8700   -5.2460 hc        1 XNZ      0.061200
     63 H15A        4.0100    0.0770   -6.5440 hc        1 XNZ      0.061200
     64 HN11        4.0550   -1.7430   -5.3230 hn        1 XNZ      0.440800
     65 HO33        5.5920   -4.4220   -4.3620 ho        1 XNZ      0.430000
     66 H1          4.4830   -5.5250   -2.7480 ha        1 XNZ      0.138000
@<TRIPOS>BOND
     1    1    2 1   
     2    2    3 ar  
     3    2   15 ar  
     4    3    4 ar  
     5    3   38 1   
     6    4    5 1   
     7    4   13 ar  
     8    5    6 1   
     9    6    7 1   
    10    6   39 1   
    11    6   40 1   
    12    7    8 ar  
    13    7   12 ar  
    14    8    9 ar  
    15    8   41 1   
    16    9   10 ar  
    17    9   42 1   
    18   10   11 ar  
    19   10   43 1   
    20   11   12 ar  
    21   11   44 1   
    22   12   45 1   
    23   13   14 ar  
    24   13   46 1   
    25   14   15 ar  
    26   14   47 1   
    27   15   16 1   
    28   16   17 1   
    29   16   24 1   
    30   16   48 1   
    31   17   18 1   
    32   17   21 1   
    33   18   19 2   
    34   18   20 1   
    35   20   49 1   
    36   20   50 1   
    37   20   51 1   
    38   21   22 ar  
    39   21   34 ar  
    40   22   23 ar  
    41   22   52 1   
    42   23   37 ar  
    43   23   53 1   
    44   24   25 1   
    45   24   32 2   
    46   25   26 2   
    47   25   27 1   
    48   27   28 1   
    49   27   54 1   
    50   27   55 1   
    51   28   29 1   
    52   28   30 1   
    53   28   31 1   
    54   29   56 1   
    55   29   57 1   
    56   29   58 1   
    57   30   59 1   
    58   30   60 1   
    59   30   61 1   
    60   31   32 1   
    61   31   62 1   
    62   31   63 1   
    63   32   33 1   
    64   33   34 1   
    65   33   64 1   
    66   34   35 ar  
    67   35   36 1   
    68   35   37 ar  
    69   36   65 1   
    70   37   66 1   
@<TRIPOS>SUBSTRUCTURE
     1 XNZ         1 TEMP              0 ****  ****    0 ROOT
