@<TRIPOS>MOLECULE
XNZ
   66    70     1     0     0
SMALL
bcc


@<TRIPOS>ATOM
      1 Cl37        0.2650   -0.4290    0.2400 cl        1 XNZ     -0.078400
      2 C17         1.9540   -0.2820    0.1120 ca        1 XNZ      0.066400
      3 C18         2.6940   -0.3070    1.2940 ca        1 XNZ     -0.160000
      4 C19         4.0940   -0.1890    1.2290 ca        1 XNZ      0.138100
      5 O22         4.7310   -0.2450    2.4530 os        1 XNZ     -0.325900
      6 C23         6.1410    0.0240    2.4280 c3        1 XNZ      0.175700
      7 C24         6.6340    0.0150    3.8370 ca        1 XNZ     -0.094300
      8 C29         6.0160   -0.7640    4.8200 ca        1 XNZ     -0.112500
      9 C28         6.5210   -0.7750    6.1200 ca        1 XNZ     -0.131500
     10 C27         7.6440   -0.0150    6.4420 ca        1 XNZ     -0.125000
     11 C26         8.2620    0.7640    5.4630 ca        1 XNZ     -0.131500
     12 C25         7.7580    0.7830    4.1640 ca        1 XNZ     -0.112500
     13 C20         4.7380   -0.0460   -0.0040 ca        1 XNZ     -0.209000
     14 C21         3.9750   -0.0230   -1.1700 ca        1 XNZ     -0.071000
     15 C16         2.5830   -0.1360   -1.1390 ca        1 XNZ     -0.104300
     16 C8          1.7590   -0.0590   -2.4080 c3        1 XNZ      0.210200
     17 N7          1.1710   -1.3490   -2.7540 n         1 XNZ     -0.392000
     18 C30        -0.1330   -1.4290   -3.2550 c         1 XNZ      0.675100
     19 O32        -0.8570   -0.4180   -3.2940 o         1 XNZ     -0.585100
     20 C31        -0.6410   -2.7700   -3.7220 c3        1 XNZ     -0.169100
     21 C4          2.0380   -2.4640   -2.7870 ca        1 XNZ      0.055600
     22 C3          1.8290   -3.5510   -1.9120 ca        1 XNZ     -0.137000
     23 C2          2.6880   -4.6400   -1.9050 ca        1 XNZ     -0.108000
     24 C9          2.5280    0.5770   -3.5420 ce        1 XNZ     -0.312400
     25 C12         2.4020    2.0460   -3.5760 c         1 XNZ      0.589300
     26 O36         1.7490    2.6720   -2.7290 o         1 XNZ     -0.539100
     27 C13         3.1160    2.8050   -4.6600 c3        1 XNZ     -0.174400
     28 C14         3.2750    2.0010   -5.9410 c3        1 XNZ     -0.041000
     29 C34         1.9230    1.7740   -6.6010 c3        1 XNZ     -0.092600
     30 C35         4.1750    2.7650   -6.9040 c3        1 XNZ     -0.092600
     31 C15         3.9390    0.6710   -5.6020 c3        1 XNZ     -0.060200
     32 C10         3.2300   -0.0980   -4.5020 c2        1 XNZ      0.199800
     33 N11         3.3800   -1.4740   -4.6280 nu        1 XNZ     -0.614400
     34 C5          3.1580   -2.4710   -3.6680 ca        1 XNZ      0.112600
     35 C6          4.0300   -3.5990   -3.6140 ca        1 XNZ      0.082100
     36 O33         5.1200   -3.5870   -4.4650 oh        1 XNZ     -0.518100
     37 C1          3.7920   -4.6700   -2.7530 ca        1 XNZ     -0.188000
     38 H18         2.2050   -0.4130    2.2730 ha        1 XNZ      0.163000
     39 H23         6.6550   -0.7810    1.8360 h1        1 XNZ      0.048700
     40 H23A        6.3210    1.0220    1.9450 h1        1 XNZ      0.048700
     41 H29         5.1250   -1.3570    4.5630 ha        1 XNZ      0.139500
     42 H28         6.0290   -1.3860    6.8920 ha        1 XNZ      0.132500
     43 H27         8.0430   -0.0260    7.4670 ha        1 XNZ      0.132000
     44 H26         9.1460    1.3670    5.7150 ha        1 XNZ      0.132500
     45 H25         8.2410    1.4050    3.3960 ha        1 XNZ      0.139500
     46 H20         5.8300    0.0490   -0.0710 ha        1 XNZ      0.137000
     47 H21         4.4880    0.0920   -2.1380 ha        1 XNZ      0.138000
     48 H8          0.8770    0.6360   -2.1860 h1        1 XNZ      0.134700
     49 H31         0.0220   -3.1860   -4.5180 hc        1 XNZ      0.067367
     50 H31A       -0.6790   -3.4890   -2.8680 hc        1 XNZ      0.067367
     51 H31B       -1.6710   -2.6360   -4.1340 hc        1 XNZ      0.067367
     52 H3          0.9730   -3.5290   -1.2180 ha        1 XNZ      0.152000
     53 H2          2.5030   -5.4810   -1.2190 ha        1 XNZ      0.142000
     54 H13         4.1280    3.0930   -4.2660 hc        1 XNZ      0.073700
     55 H13A        2.5550    3.7530   -4.8730 hc        1 XNZ      0.073700
     56 H34         2.0440    1.1820   -7.5390 hc        1 XNZ      0.042533
     57 H34A        1.4520    2.7540   -6.8560 hc        1 XNZ      0.042533
     58 H34B        1.2420    1.2200   -5.9090 hc        1 XNZ      0.042533
     59 H35         3.7160    3.7530   -7.1500 hc        1 XNZ      0.042533
     60 H35A        5.1790    2.9420   -6.4490 hc        1 XNZ      0.042533
     61 H35B        4.3070    2.1870   -7.8500 hc        1 XNZ      0.042533
     62 H15         4.0020    0.0660   -6.5480 hc        1 XNZ      0.061200
     63 H15A        4.9900    0.8620   -5.2520 hc        1 XNZ      0.061200
     64 HN11        4.0480   -1.7510   -5.3230 hn        1 XNZ      0.440800
     65 HO33        5.5870   -4.4280   -4.3580 ho        1 XNZ      0.430000
     66 H1          4.4800   -5.5280   -2.7420 ha        1 XNZ      0.138000
@<TRIPOS>BOND
     1    1    2 1   
     2    2    3 ar  
     3    2   15 ar  
     4    3    4 ar  
     5    3   38 1   
     6    4    5 1   
     7    4   13 ar  
     8    5    6 1   
     9    6    7 1   
    10    6   39 1   
    11    6   40 1   
    12    7    8 ar  
    13    7   12 ar  
    14    8    9 ar  
    15    8   41 1   
    16    9   10 ar  
    17    9   42 1   
    18   10   11 ar  
    19   10   43 1   
    20   11   12 ar  
    21   11   44 1   
    22   12   45 1   
    23   13   14 ar  
    24   13   46 1   
    25   14   15 ar  
    26   14   47 1   
    27   15   16 1   
    28   16   17 1   
    29   16   24 1   
    30   16   48 1   
    31   17   18 1   
    32   17   21 1   
    33   18   19 2   
    34   18   20 1   
    35   20   49 1   
    36   20   50 1   
    37   20   51 1   
    38   21   22 ar  
    39   21   34 ar  
    40   22   23 ar  
    41   22   52 1   
    42   23   37 ar  
    43   23   53 1   
    44   24   25 1   
    45   24   32 2   
    46   25   26 2   
    47   25   27 1   
    48   27   28 1   
    49   27   54 1   
    50   27   55 1   
    51   28   29 1   
    52   28   30 1   
    53   28   31 1   
    54   29   56 1   
    55   29   57 1   
    56   29   58 1   
    57   30   59 1   
    58   30   60 1   
    59   30   61 1   
    60   31   32 1   
    61   31   62 1   
    62   31   63 1   
    63   32   33 1   
    64   33   34 1   
    65   33   64 1   
    66   34   35 ar  
    67   35   36 1   
    68   35   37 ar  
    69   36   65 1   
    70   37   66 1   
@<TRIPOS>SUBSTRUCTURE
     1 XNZ         1 TEMP              0 ****  ****    0 ROOT
