@<TRIPOS>MOLECULE
XO3
   37    39     1     0     0
SMALL
bcc


@<TRIPOS>ATOM
      1 C1         -0.1010   -0.0060   -0.0830 c3        1 XO3     -0.114400
      2 C2          1.4230    0.1110   -0.0950 c3        1 XO3      0.154800
      3 N3          2.0670    0.0510    1.2000 n7        1 XO3     -0.793200
      4 C4          1.6330   -1.0940    1.9930 c3        1 XO3      0.169500
      5 C5          0.1040   -1.2520    2.0840 c3        1 XO3     -0.113400
      6 C6         -0.5210   -1.2500    0.6940 c3        1 XO3     -0.012500
      7 C7         -1.9960   -1.3380    0.7780 cc        1 XO3      0.114900
      8 O8         -2.6380   -0.2980    1.5000 os        1 XO3     -0.173200
      9 N9         -3.9900   -0.4390    1.3800 ns        1 XO3     -0.331400
     10 C10        -4.2470   -1.7160    0.7100 c         1 XO3      0.631700
     11 C11        -2.9130   -2.2170    0.2890 cd        1 XO3     -0.322200
     12 O12        -5.3720   -2.1760    0.5190 o         1 XO3     -0.558500
     13 C13         2.1930   -1.0630    3.4260 c3        1 XO3     -0.031100
     14 C14         3.6710   -1.2270    3.4580 ca        1 XO3     -0.075300
     15 C15         4.5130   -0.1160    3.3310 ca        1 XO3     -0.118000
     16 C16         5.8970   -0.2740    3.3750 ca        1 XO3     -0.129500
     17 C17         6.4520   -1.5420    3.5490 ca        1 XO3     -0.130000
     18 C18         5.6190   -2.6530    3.6760 ca        1 XO3     -0.129500
     19 C19         4.2340   -2.4970    3.6310 ca        1 XO3     -0.118000
     20 H11C       -0.5600    0.9000    0.3910 hc        1 XO3      0.060700
     21 H12C       -0.4760   -0.0690   -1.1350 hc        1 XO3      0.060700
     22 H21C        1.7100    1.0830   -0.5840 h1        1 XO3      0.057700
     23 H22C        1.8450   -0.7280   -0.7190 h1        1 XO3      0.057700
     24 H6         -0.1590   -2.1620    0.1350 hc        1 XO3      0.075700
     25 H3          1.9000    0.9000    1.7120 hn        1 XO3      0.352800
     26 H4          2.0470   -2.0100    1.4740 h1        1 XO3      0.067700
     27 H51C       -0.3330   -0.4180    2.6920 hc        1 XO3      0.056200
     28 H52C       -0.1350   -2.2160    2.6010 hc        1 XO3      0.056200
     29 H131        1.9050   -0.1010    3.9280 hc        1 XO3      0.050700
     30 H132        1.7080   -1.8970    4.0000 hc        1 XO3      0.050700
     31 H11        -2.7730   -3.1260   -0.2880 ha        1 XO3      0.190000
     32 H9         -4.4030   -0.3640    2.3010 hn        1 XO3      0.294500
     33 H15         4.0770    0.8830    3.1840 ha        1 XO3      0.129500
     34 H19         3.5810   -3.3770    3.7320 ha        1 XO3      0.129500
     35 H16         6.5510    0.6040    3.2710 ha        1 XO3      0.130500
     36 H17         7.5440   -1.6650    3.5840 ha        1 XO3      0.130000
     37 H18         6.0530   -3.6540    3.8110 ha        1 XO3      0.130500
@<TRIPOS>BOND
     1    1    2 1   
     2    1    6 1   
     3    1   20 1   
     4    1   21 1   
     5    2    3 1   
     6    2   22 1   
     7    2   23 1   
     8    3    4 1   
     9    3   25 1   
    10    4    5 1   
    11    4   13 1   
    12    4   26 1   
    13    5    6 1   
    14    5   27 1   
    15    5   28 1   
    16    6    7 1   
    17    6   24 1   
    18    7    8 1   
    19    7   11 2   
    20    8    9 1   
    21    9   10 1   
    22    9   32 1   
    23   10   11 1   
    24   10   12 2   
    25   11   31 1   
    26   13   14 1   
    27   13   29 1   
    28   13   30 1   
    29   14   15 ar  
    30   14   19 ar  
    31   15   16 ar  
    32   15   33 1   
    33   16   17 ar  
    34   16   35 1   
    35   17   18 ar  
    36   17   36 1   
    37   18   19 ar  
    38   18   37 1   
    39   19   34 1   
@<TRIPOS>SUBSTRUCTURE
     1 XO3         1 TEMP              0 ****  ****    0 ROOT
