@<TRIPOS>MOLECULE
XO3
   37    39     1     0     0
SMALL
bcc


@<TRIPOS>ATOM
      1 C1         -0.1050   -0.0030   -0.0820 c3        1 XO3     -0.114400
      2 C2          1.4190    0.1170   -0.0920 c3        1 XO3      0.154800
      3 N3          2.0610    0.0540    1.2040 n3        1 XO3     -0.793200
      4 C4          1.6280   -1.0940    1.9930 c3        1 XO3      0.169500
      5 C5          0.0990   -1.2550    2.0810 c3        1 XO3     -0.113400
      6 C6         -0.5240   -1.2500    0.6900 c3        1 XO3     -0.012500
      7 C7         -1.9990   -1.3410    0.7720 cc        1 XO3      0.114900
      8 O8         -2.6440   -0.3040    1.4960 os        1 XO3     -0.173200
      9 N9         -3.9950   -0.4460    1.3740 n         1 XO3     -0.331400
     10 C10        -4.2490   -1.7220    0.7000 c         1 XO3      0.631700
     11 C11        -2.9140   -2.2190    0.2790 cd        1 XO3     -0.322200
     12 O12        -5.3730   -2.1830    0.5070 o         1 XO3     -0.558500
     13 C13         2.1860   -1.0660    3.4270 c3        1 XO3     -0.031100
     14 C14         3.6640   -1.2300    3.4610 ca        1 XO3     -0.075300
     15 C15         4.5050   -0.1180    3.3360 ca        1 XO3     -0.118000
     16 C16         5.8890   -0.2750    3.3820 ca        1 XO3     -0.129500
     17 C17         6.4450   -1.5420    3.5540 ca        1 XO3     -0.130000
     18 C18         5.6130   -2.6540    3.6780 ca        1 XO3     -0.129500
     19 C19         4.2280   -2.4990    3.6320 ca        1 XO3     -0.118000
     20 H11C       -0.4780   -0.0630   -1.1350 hc        1 XO3      0.060700
     21 H12C       -0.5660    0.9010    0.3940 hc        1 XO3      0.060700
     22 H21C        1.8430   -0.7200   -0.7170 h1        1 XO3      0.057700
     23 H22C        1.7060    1.0910   -0.5780 h1        1 XO3      0.057700
     24 H6         -0.1600   -2.1590    0.1290 hc        1 XO3      0.075700
     25 H3          1.8920    0.9020    1.7180 hn        1 XO3      0.352800
     26 H4          2.0440   -2.0080    1.4720 h1        1 XO3      0.067700
     27 H51C       -0.1390   -2.2200    2.5950 hc        1 XO3      0.056200
     28 H52C       -0.3400   -0.4230    2.6910 hc        1 XO3      0.056200
     29 H131        1.7010   -1.9030    3.9980 hc        1 XO3      0.050700
     30 H132        1.8960   -0.1060    3.9300 hc        1 XO3      0.050700
     31 H11        -2.7710   -3.1260   -0.3000 ha        1 XO3      0.190000
     32 H9         -4.4090   -0.3750    2.2940 hn        1 XO3      0.294500
     33 H15         4.0690    0.8820    3.1900 ha        1 XO3      0.129500
     34 H19         3.5760   -3.3800    3.7300 ha        1 XO3      0.129500
     35 H16         6.5430    0.6040    3.2810 ha        1 XO3      0.130500
     36 H17         7.5370   -1.6640    3.5900 ha        1 XO3      0.130000
     37 H18         6.0480   -3.6550    3.8120 ha        1 XO3      0.130500
@<TRIPOS>BOND
     1    1    2 1   
     2    1    6 1   
     3    1   20 1   
     4    1   21 1   
     5    2    3 1   
     6    2   22 1   
     7    2   23 1   
     8    3    4 1   
     9    3   25 1   
    10    4    5 1   
    11    4   13 1   
    12    4   26 1   
    13    5    6 1   
    14    5   27 1   
    15    5   28 1   
    16    6    7 1   
    17    6   24 1   
    18    7    8 1   
    19    7   11 2   
    20    8    9 1   
    21    9   10 1   
    22    9   32 1   
    23   10   11 1   
    24   10   12 2   
    25   11   31 1   
    26   13   14 1   
    27   13   29 1   
    28   13   30 1   
    29   14   15 ar  
    30   14   19 ar  
    31   15   16 ar  
    32   15   33 1   
    33   16   17 ar  
    34   16   35 1   
    35   17   18 ar  
    36   17   36 1   
    37   18   19 ar  
    38   18   37 1   
    39   19   34 1   
@<TRIPOS>SUBSTRUCTURE
     1 XO3         1 TEMP              0 ****  ****    0 ROOT
