@<TRIPOS>MOLECULE
XO3
   37    39     1     0     0
SMALL
bcc


@<TRIPOS>ATOM
      1 C1         -0.0990   -0.0130   -0.0870 c3        1 XO3     -0.114400
      2 C2          1.4250    0.1050   -0.0980 c3        1 XO3      0.154800
      3 N3          2.0670    0.0490    1.1990 n3        1 XO3     -0.793200
      4 C4          1.6330   -1.0940    1.9940 c3        1 XO3      0.169500
      5 C5          0.1040   -1.2530    2.0830 c3        1 XO3     -0.113400
      6 C6         -0.5190   -1.2550    0.6920 c3        1 XO3     -0.012500
      7 C7         -1.9940   -1.3430    0.7750 cc        1 XO3      0.114900
      8 O8         -2.6380   -0.3020    1.4930 os        1 XO3     -0.173200
      9 N9         -3.9890   -0.4430    1.3710 n         1 XO3     -0.331400
     10 C10        -4.2450   -1.7220    0.7050 c         1 XO3      0.631700
     11 C11        -2.9100   -2.2230    0.2860 cd        1 XO3     -0.322200
     12 O12        -5.3700   -2.1830    0.5140 o         1 XO3     -0.558500
     13 C13         2.1910   -1.0590    3.4270 c3        1 XO3     -0.031100
     14 C14         3.6690   -1.2220    3.4620 ca        1 XO3     -0.075300
     15 C15         4.5090   -0.1090    3.3350 ca        1 XO3     -0.118000
     16 C16         5.8940   -0.2650    3.3810 ca        1 XO3     -0.129500
     17 C17         6.4510   -1.5320    3.5560 ca        1 XO3     -0.130000
     18 C18         5.6190   -2.6440    3.6830 ca        1 XO3     -0.129500
     19 C19         4.2340   -2.4910    3.6360 ca        1 XO3     -0.118000
     20 H11C       -0.5590    0.8950    0.3830 hc        1 XO3      0.060700
     21 H12C       -0.4720   -0.0790   -1.1400 hc        1 XO3      0.060700
     22 H21C        1.8480   -0.7360   -0.7190 h1        1 XO3      0.057700
     23 H22C        1.7130    1.0760   -0.5900 h1        1 XO3      0.057700
     24 H6         -0.1570   -2.1680    0.1360 hc        1 XO3      0.075700
     25 H3          1.8990    0.8990    1.7070 hn        1 XO3      0.352800
     26 H4          2.0480   -2.0120    1.4780 h1        1 XO3      0.067700
     27 H51C       -0.3350   -0.4170    2.6880 hc        1 XO3      0.056200
     28 H52C       -0.1350   -2.2150    2.6030 hc        1 XO3      0.056200
     29 H131        1.7060   -1.8930    4.0030 hc        1 XO3      0.050700
     30 H132        1.9010   -0.0960    3.9260 hc        1 XO3      0.050700
     31 H11        -2.7690   -3.1330   -0.2880 ha        1 XO3      0.190000
     32 H9         -4.4040   -0.3670    2.2920 hn        1 XO3      0.294500
     33 H15         4.0730    0.8890    3.1860 ha        1 XO3      0.129500
     34 H19         3.5820   -3.3710    3.7370 ha        1 XO3      0.129500
     35 H16         6.5470    0.6130    3.2770 ha        1 XO3      0.130500
     36 H17         7.5430   -1.6540    3.5930 ha        1 XO3      0.130000
     37 H18         6.0540   -3.6440    3.8200 ha        1 XO3      0.130500
@<TRIPOS>BOND
     1    1    2 1   
     2    1    6 1   
     3    1   20 1   
     4    1   21 1   
     5    2    3 1   
     6    2   22 1   
     7    2   23 1   
     8    3    4 1   
     9    3   25 1   
    10    4    5 1   
    11    4   13 1   
    12    4   26 1   
    13    5    6 1   
    14    5   27 1   
    15    5   28 1   
    16    6    7 1   
    17    6   24 1   
    18    7    8 1   
    19    7   11 2   
    20    8    9 1   
    21    9   10 1   
    22    9   32 1   
    23   10   11 1   
    24   10   12 2   
    25   11   31 1   
    26   13   14 1   
    27   13   29 1   
    28   13   30 1   
    29   14   15 ar  
    30   14   19 ar  
    31   15   16 ar  
    32   15   33 1   
    33   16   17 ar  
    34   16   35 1   
    35   17   18 ar  
    36   17   36 1   
    37   18   19 ar  
    38   18   37 1   
    39   19   34 1   
@<TRIPOS>SUBSTRUCTURE
     1 XO3         1 TEMP              0 ****  ****    0 ROOT
