@<TRIPOS>MOLECULE
XOG
   26    25     1     0     0
SMALL
bcc


@<TRIPOS>ATOM
      1 O2         -0.1750   -0.4290   -0.0170 o         1 XOG     -0.524100
      2 C8          1.0370   -0.1980   -0.0100 c         1 XOG      0.560100
      3 C7          1.8330   -0.1840    1.2210 ce        1 XOG     -0.280200
      4 C6          3.1570    0.0460    1.2590 c2        1 XOG     -0.039400
      5 C10         3.9710    0.3160    0.0490 c3        1 XOG     -0.081900
      6 C5          3.8900    0.0590    2.5600 c3        1 XOG     -0.057200
      7 C4          4.7640   -1.1730    2.7160 c3        1 XOG     -0.056200
      8 C3          5.5390   -1.1470    3.9770 c2        1 XOG     -0.111200
      9 C2          6.4360   -2.0950    4.3070 ce        1 XOG     -0.215400
     10 C9          6.7330   -3.2520    3.4340 c3        1 XOG     -0.059900
     11 C1          7.1640   -1.9960    5.5880 c         1 XOG      0.566100
     12 O1          8.0030   -2.8150    5.9640 o         1 XOG     -0.522100
     13 H2          1.5870    0.0160   -0.9560 h4        1 XOG     -0.007800
     14 H4          1.2640   -0.3780    2.1470 ha        1 XOG      0.149000
     15 H5          3.8880   -0.5300   -0.6790 hc        1 XOG      0.053033
     16 H6          3.6170    1.2490   -0.4570 hc        1 XOG      0.053033
     17 H7          5.0510    0.4480    0.3070 hc        1 XOG      0.053033
     18 H8          4.5280    0.9820    2.6080 hc        1 XOG      0.057200
     19 H9          3.1650    0.1090    3.4160 hc        1 XOG      0.057200
     20 H10         4.1220   -2.0970    2.6940 hc        1 XOG      0.064700
     21 H11         5.4710   -1.2500    1.8430 hc        1 XOG      0.064700
     22 H12         5.3420   -0.2980    4.6540 ha        1 XOG      0.127000
     23 H13         7.1520   -2.9030    2.4560 hc        1 XOG      0.052367
     24 H14         7.4760   -3.9360    3.9150 hc        1 XOG      0.052367
     25 H15         5.7980   -3.8310    3.2230 hc        1 XOG      0.052367
     26 H16         6.9030   -1.1100    6.2140 h4        1 XOG     -0.006800
@<TRIPOS>BOND
     1    1    2 2   
     2    2    3 1   
     3    2   13 1   
     4    3    4 2   
     5    3   14 1   
     6    4    5 1   
     7    4    6 1   
     8    5   15 1   
     9    5   16 1   
    10    5   17 1   
    11    6    7 1   
    12    6   18 1   
    13    6   19 1   
    14    7    8 1   
    15    7   20 1   
    16    7   21 1   
    17    8    9 2   
    18    8   22 1   
    19    9   10 1   
    20    9   11 1   
    21   10   23 1   
    22   10   24 1   
    23   10   25 1   
    24   11   12 2   
    25   11   26 1   
@<TRIPOS>SUBSTRUCTURE
     1 XOG         1 TEMP              0 ****  ****    0 ROOT
