@<TRIPOS>MOLECULE
XOJ
   78    80     1     0     0
SMALL
bcc


@<TRIPOS>ATOM
      1 C           0.7450   -1.2620   -0.7790 c3        1 XOJ     -0.136100
      2 N           1.9560   -0.4470    1.2790 nx        1 XOJ     -0.691400
      3 O           7.6320    9.3160   -1.1820 o         1 XOJ     -0.441100
      4 C1          2.0750   -1.0880   -0.0760 c3        1 XOJ      0.109800
      5 N1          5.2040    3.3170    0.9090 nu        1 XOJ     -0.839900
      6 O1         14.1620    9.1000   -1.0270 os        1 XOJ     -0.325900
      7 C2          1.5040   -1.4490    2.3060 c3        1 XOJ      0.109800
      8 N2          7.4790    3.0740    1.6880 nb        1 XOJ     -0.728000
      9 O2         14.2850    8.0090    3.7460 os        1 XOJ     -0.325900
     10 C3          0.8580   -0.8200    3.5220 c3        1 XOJ     -0.136100
     11 N3          8.0750    7.0500    0.4720 nb        1 XOJ     -0.666000
     12 C4          3.2510    0.1890    1.6890 c3        1 XOJ      0.106800
     13 N4          6.6120    5.2000    0.7590 nb        1 XOJ     -0.724000
     14 C5          3.4900    1.5500    1.0460 c3        1 XOJ     -0.124400
     15 N5          9.5340    8.9100    0.1710 ns        1 XOJ     -0.526400
     16 C6          4.8410    2.0810    1.5520 c3        1 XOJ      0.217800
     17 N6          9.1300   11.0670   -0.9730 ny        1 XOJ     -0.682800
     18 C7          6.4610    3.8960    1.1390 ca        1 XOJ      0.895900
     19 C8          8.6740    3.6130    1.7950 ca        1 XOJ      0.517200
     20 C9          8.9750    4.9570    1.3970 ca        1 XOJ     -0.367600
     21 C10        10.2560    5.5360    1.4960 ca        1 XOJ      0.011000
     22 C11        10.4620    6.8370    1.0810 cp        1 XOJ     -0.183300
     23 C12         9.3090    7.5570    0.5660 ca        1 XOJ      0.573200
     24 C13         7.8820    5.7350    0.8720 ca        1 XOJ      0.729300
     25 C14         8.6880    9.6320   -0.6350 c         1 XOJ      0.661100
     26 C15         8.8860   12.0840    0.1410 c3        1 XOJ      0.156200
     27 C16         9.8310   11.8380    1.3170 c3        1 XOJ     -0.132100
     28 C17         9.1490   13.4840   -0.4300 c3        1 XOJ     -0.132100
     29 C18         7.4340   11.9980    0.6160 c3        1 XOJ     -0.132100
     30 C19        11.7860    7.4500    1.1740 cp        1 XOJ     -0.012000
     31 C20        12.4440    7.4740    2.4040 ca        1 XOJ     -0.207500
     32 C21        13.7330    8.0390    2.4890 ca        1 XOJ      0.176100
     33 C22        14.3580    8.5900    1.3640 ca        1 XOJ     -0.266000
     34 C23        13.6760    8.5560    0.1410 ca        1 XOJ      0.176100
     35 C24        12.3970    7.9840    0.0320 ca        1 XOJ     -0.207500
     36 C25        15.5490    9.4370   -1.0450 c3        1 XOJ      0.108700
     37 C26        15.6250    8.4820    3.8730 c3        1 XOJ      0.108700
     38 H           0.2240   -0.2850   -0.9290 hc        1 XOJ      0.080200
     39 HA          0.0630   -1.9540   -0.2270 hc        1 XOJ      0.080200
     40 HB          0.9460   -1.7080   -1.7880 hc        1 XOJ      0.080200
     41 H1          2.5810   -2.0870    0.0610 hx        1 XOJ      0.104700
     42 H1A         2.7460   -0.4330   -0.7050 hx        1 XOJ      0.104700
     43 H2          2.4030   -2.0600    2.6080 hx        1 XOJ      0.104700
     44 H2A         0.7610   -2.1350    1.8030 hx        1 XOJ      0.104700
     45 H3          1.5700   -0.1780    4.0940 hc        1 XOJ      0.080200
     46 H3A        -0.0380   -0.2110    3.2470 hc        1 XOJ      0.080200
     47 H3B         0.5190   -1.6480    4.1970 hc        1 XOJ      0.080200
     48 H4          4.0850   -0.5220    1.4200 hx        1 XOJ      0.106700
     49 H4A         3.2360    0.3080    2.8120 hx        1 XOJ      0.106700
     50 H5          2.6690    2.2630    1.3220 hc        1 XOJ      0.074200
     51 H5A         3.5110    1.4660   -0.0730 hc        1 XOJ      0.074200
     52 H6          5.6350    1.3090    1.3320 h1        1 XOJ      0.065700
     53 H6A         4.7820    2.2070    2.6730 h1        1 XOJ      0.065700
     54 HN1         4.4590    3.9570    0.7250 hn        1 XOJ      0.446800
     55 H8          9.4730    2.9730    2.2220 h4        1 XOJ      0.049100
     56 H10        11.0960    4.9440    1.9000 ha        1 XOJ      0.171000
     57 HN5        10.3970    9.3080    0.4930 hn        1 XOJ      0.369500
     58 HN6         8.5610   11.3520   -1.7840 hn        1 XOJ      0.460800
     59 H16         9.8040   12.7400    1.9810 hc        1 XOJ      0.078700
     60 H16A        9.5040   10.9630    1.9290 hc        1 XOJ      0.078700
     61 H16B       10.8870   11.6940    0.9830 hc        1 XOJ      0.078700
     62 H17         8.9250   14.2370    0.3670 hc        1 XOJ      0.078700
     63 H17A       10.2170   13.6040   -0.7330 hc        1 XOJ      0.078700
     64 H17B        8.4870   13.7030   -1.3030 hc        1 XOJ      0.078700
     65 H18         7.1850   10.9750    0.9910 hc        1 XOJ      0.078700
     66 H18A        7.2960   12.7250    1.4550 hc        1 XOJ      0.078700
     67 H18B        6.7240   12.2680   -0.2040 hc        1 XOJ      0.078700
     68 H20        11.9810    7.0540    3.3090 ha        1 XOJ      0.155500
     69 H22        15.3640    9.0270    1.4350 ha        1 XOJ      0.162000
     70 H24        11.9270    7.9070   -0.9580 ha        1 XOJ      0.155500
     71 H25        15.7420   10.3090   -0.3740 h1        1 XOJ      0.058033
     72 H25A       15.7330    9.7100   -2.1150 h1        1 XOJ      0.058033
     73 H25B       16.1740    8.5610   -0.7470 h1        1 XOJ      0.058033
     74 H26        15.6790    9.5700    3.6260 h1        1 XOJ      0.058033
     75 H26A       16.3140    7.8910    3.2230 h1        1 XOJ      0.058033
     76 H26B       15.8530    8.3090    4.9560 h1        1 XOJ      0.058033
     77 HN11        1.2400    0.2900    1.2210 hn        1 XOJ      0.445800
     78 H62        10.1180   11.1000   -1.2350 hn        1 XOJ      0.460800
@<TRIPOS>BOND
     1    1    4 1   
     2    1   38 1   
     3    1   39 1   
     4    1   40 1   
     5    2    4 1   
     6    2    7 1   
     7    2   12 1   
     8    2   77 1   
     9    3   25 2   
    10    4   41 1   
    11    4   42 1   
    12    5   16 1   
    13    5   18 1   
    14    5   54 1   
    15    6   34 1   
    16    6   36 1   
    17    7   10 1   
    18    7   43 1   
    19    7   44 1   
    20    8   18 ar  
    21    8   19 ar  
    22    9   32 1   
    23    9   37 1   
    24   10   45 1   
    25   10   46 1   
    26   10   47 1   
    27   11   23 ar  
    28   11   24 ar  
    29   12   14 1   
    30   12   48 1   
    31   12   49 1   
    32   13   18 ar  
    33   13   24 ar  
    34   14   16 1   
    35   14   50 1   
    36   14   51 1   
    37   15   23 1   
    38   15   25 1   
    39   15   57 1   
    40   16   52 1   
    41   16   53 1   
    42   17   25 1   
    43   17   26 1   
    44   17   58 1   
    45   17   78 1   
    46   19   20 ar  
    47   19   55 1   
    48   20   21 ar  
    49   20   24 ar  
    50   21   22 ar  
    51   21   56 1   
    52   22   23 ar  
    53   22   30 1   
    54   26   27 1   
    55   26   28 1   
    56   26   29 1   
    57   27   59 1   
    58   27   60 1   
    59   27   61 1   
    60   28   62 1   
    61   28   63 1   
    62   28   64 1   
    63   29   65 1   
    64   29   66 1   
    65   29   67 1   
    66   30   31 ar  
    67   30   35 ar  
    68   31   32 ar  
    69   31   68 1   
    70   32   33 ar  
    71   33   34 ar  
    72   33   69 1   
    73   34   35 ar  
    74   35   70 1   
    75   36   71 1   
    76   36   72 1   
    77   36   73 1   
    78   37   74 1   
    79   37   75 1   
    80   37   76 1   
@<TRIPOS>SUBSTRUCTURE
     1 XOJ         1 TEMP              0 ****  ****    0 ROOT
