@<TRIPOS>MOLECULE
XOJ
   78    80     1     0     0
SMALL
bcc


@<TRIPOS>ATOM
      1 C           0.7480   -1.2720   -0.7430 c3        1 XOJ     -0.136100
      2 N           1.9600   -0.4490    1.3110 n4        1 XOJ     -0.691400
      3 O           7.6200    9.3160   -1.1790 o         1 XOJ     -0.440100
      4 C1          2.0780   -1.0950   -0.0420 c3        1 XOJ      0.109800
      5 N1          5.2040    3.3160    0.9250 nh        1 XOJ     -0.839900
      6 O1         14.1520    9.1010   -1.0510 os        1 XOJ     -0.325900
      7 C2          1.5100   -1.4480    2.3420 c3        1 XOJ      0.109800
      8 N2          7.4820    3.0750    1.6970 nb        1 XOJ     -0.728000
      9 O2         14.2930    8.0150    3.7230 os        1 XOJ     -0.325900
     10 C3          0.8640   -0.8160    3.5550 c3        1 XOJ     -0.136100
     11 N3          8.0720    7.0500    0.4740 nb        1 XOJ     -0.666000
     12 C4          3.2550    0.1890    1.7180 c3        1 XOJ      0.106800
     13 N4          6.6110    5.1990    0.7680 nb        1 XOJ     -0.724000
     14 C5          3.4920    1.5480    1.0700 c3        1 XOJ     -0.124400
     15 N5          9.5280    8.9110    0.1650 n         1 XOJ     -0.526400
     16 C6          4.8430    2.0810    1.5710 c3        1 XOJ      0.217800
     17 N6          9.1190   11.0670   -0.9790 n4        1 XOJ     -0.682800
     18 C7          6.4620    3.8960    1.1500 ca        1 XOJ      0.895900
     19 C8          8.6780    3.6150    1.7980 ca        1 XOJ      0.517200
     20 C9          8.9760    4.9580    1.3970 ca        1 XOJ     -0.367600
     21 C10        10.2570    5.5380    1.4900 ca        1 XOJ      0.011000
     22 C11        10.4610    6.8380    1.0740 cp        1 XOJ     -0.183300
     23 C12         9.3060    7.5580    0.5630 ca        1 XOJ      0.573200
     24 C13         7.8810    5.7350    0.8760 ca        1 XOJ      0.729300
     25 C14         8.6790    9.6320   -0.6370 c         1 XOJ      0.661100
     26 C15         8.8800   12.0850    0.1360 c3        1 XOJ      0.156200
     27 C16         9.8320   11.8390    1.3070 c3        1 XOJ     -0.132100
     28 C17         9.1410   13.4840   -0.4380 c3        1 XOJ     -0.132100
     29 C18         7.4310   12.0000    0.6180 c3        1 XOJ     -0.132100
     30 C19        11.7860    7.4520    1.1610 cp        1 XOJ     -0.012000
     31 C20        12.4480    7.4780    2.3890 ca        1 XOJ     -0.207500
     32 C21        13.7370    8.0430    2.4680 ca        1 XOJ      0.176100
     33 C22        14.3580    8.5940    1.3400 ca        1 XOJ     -0.266000
     34 C23        13.6710    8.5580    0.1200 ca        1 XOJ      0.176100
     35 C24        12.3920    7.9850    0.0160 ca        1 XOJ     -0.207500
     36 C25        15.5390    9.4380   -1.0740 c3        1 XOJ      0.108700
     37 C26        15.6340    8.4890    3.8440 c3        1 XOJ      0.108700
     38 H           0.2260   -0.2950   -0.8970 hc        1 XOJ      0.080200
     39 HA          0.9480   -1.7210   -1.7510 hc        1 XOJ      0.080200
     40 HB          0.0670   -1.9620   -0.1880 hc        1 XOJ      0.080200
     41 H1          2.5850   -2.0920    0.0980 hx        1 XOJ      0.104700
     42 H1A         2.7480   -0.4420   -0.6740 hx        1 XOJ      0.104700
     43 H2          2.4090   -2.0570    2.6440 hx        1 XOJ      0.104700
     44 H2A         0.7670   -2.1370    1.8410 hx        1 XOJ      0.104700
     45 H3          1.5770   -0.1720    4.1250 hc        1 XOJ      0.080200
     46 H3A         0.5270   -1.6420    4.2340 hc        1 XOJ      0.080200
     47 H3B        -0.0330   -0.2080    3.2800 hc        1 XOJ      0.080200
     48 H4          4.0890   -0.5220    1.4500 hx        1 XOJ      0.106700
     49 H4A         3.2410    0.3110    2.8400 hx        1 XOJ      0.106700
     50 H5          3.5100    1.4610   -0.0490 hc        1 XOJ      0.074200
     51 H5A         2.6710    2.2620    1.3460 hc        1 XOJ      0.074200
     52 H6          5.6380    1.3090    1.3510 h1        1 XOJ      0.065700
     53 H6A         4.7880    2.2090    2.6920 h1        1 XOJ      0.065700
     54 HN1         4.4580    3.9560    0.7430 hn        1 XOJ      0.446800
     55 H8          9.4780    2.9750    2.2220 h4        1 XOJ      0.049100
     56 H10        11.0990    4.9460    1.8920 ha        1 XOJ      0.171000
     57 HN5        10.3930    9.3090    0.4830 hn        1 XOJ      0.369500
     58 HN6        10.1050   11.0990   -1.2450 hn        1 XOJ      0.460800
     59 H16         9.8080   12.7420    1.9710 hc        1 XOJ      0.078700
     60 H16A       10.8860   11.6940    0.9690 hc        1 XOJ      0.078700
     61 H16B        9.5070   10.9650    1.9210 hc        1 XOJ      0.078700
     62 H17         8.9210   14.2370    0.3600 hc        1 XOJ      0.078700
     63 H17A       10.2080   13.6040   -0.7460 hc        1 XOJ      0.078700
     64 H17B        8.4750   13.7030   -1.3070 hc        1 XOJ      0.078700
     65 H18         7.1840   10.9770    0.9950 hc        1 XOJ      0.078700
     66 H18A        6.7180   12.2680   -0.1990 hc        1 XOJ      0.078700
     67 H18B        7.2980   12.7270    1.4570 hc        1 XOJ      0.078700
     68 H20        11.9890    7.0590    3.2960 ha        1 XOJ      0.155500
     69 H22        15.3630    9.0310    1.4070 ha        1 XOJ      0.162000
     70 H24        11.9180    7.9070   -0.9720 ha        1 XOJ      0.155500
     71 H25        15.7340   10.3110   -0.4050 h1        1 XOJ      0.058033
     72 H25A       16.1660    8.5630   -0.7780 h1        1 XOJ      0.058033
     73 H25B       15.7180    9.7110   -2.1460 h1        1 XOJ      0.058033
     74 H26        15.6870    9.5760    3.5950 h1        1 XOJ      0.058033
     75 H26A       16.3210    7.8970    3.1930 h1        1 XOJ      0.058033
     76 H26B       15.8660    8.3180    4.9270 h1        1 XOJ      0.058033
     77 HN11        1.2430    0.2870    1.2510 hn        1 XOJ      0.445800
     78 H62         8.5460   11.3510   -1.7860 hn        1 XOJ      0.460800
@<TRIPOS>BOND
     1    1    4 1   
     2    1   38 1   
     3    1   39 1   
     4    1   40 1   
     5    2    4 1   
     6    2    7 1   
     7    2   12 1   
     8    2   77 1   
     9    3   25 2   
    10    4   41 1   
    11    4   42 1   
    12    5   16 1   
    13    5   18 1   
    14    5   54 1   
    15    6   34 1   
    16    6   36 1   
    17    7   10 1   
    18    7   43 1   
    19    7   44 1   
    20    8   18 ar  
    21    8   19 ar  
    22    9   32 1   
    23    9   37 1   
    24   10   45 1   
    25   10   46 1   
    26   10   47 1   
    27   11   23 ar  
    28   11   24 ar  
    29   12   14 1   
    30   12   48 1   
    31   12   49 1   
    32   13   18 ar  
    33   13   24 ar  
    34   14   16 1   
    35   14   50 1   
    36   14   51 1   
    37   15   23 1   
    38   15   25 1   
    39   15   57 1   
    40   16   52 1   
    41   16   53 1   
    42   17   25 1   
    43   17   26 1   
    44   17   58 1   
    45   17   78 1   
    46   19   20 ar  
    47   19   55 1   
    48   20   21 ar  
    49   20   24 ar  
    50   21   22 ar  
    51   21   56 1   
    52   22   23 ar  
    53   22   30 1   
    54   26   27 1   
    55   26   28 1   
    56   26   29 1   
    57   27   59 1   
    58   27   60 1   
    59   27   61 1   
    60   28   62 1   
    61   28   63 1   
    62   28   64 1   
    63   29   65 1   
    64   29   66 1   
    65   29   67 1   
    66   30   31 ar  
    67   30   35 ar  
    68   31   32 ar  
    69   31   68 1   
    70   32   33 ar  
    71   33   34 ar  
    72   33   69 1   
    73   34   35 ar  
    74   35   70 1   
    75   36   71 1   
    76   36   72 1   
    77   36   73 1   
    78   37   74 1   
    79   37   75 1   
    80   37   76 1   
@<TRIPOS>SUBSTRUCTURE
     1 XOJ         1 TEMP              0 ****  ****    0 ROOT
