@<TRIPOS>MOLECULE
XOP
   38    40     1     0     0
SMALL
bcc


@<TRIPOS>ATOM
      1 C1         -0.1630    0.4290    0.0690 ca        1 XOP     -0.326500
      2 C2          0.7410    1.2160    0.7710 ca        1 XOP     -0.045500
      3 C3          1.2350    0.7850    2.0030 ca        1 XOP     -0.176000
      4 C4          0.8130   -0.4390    2.5250 ca        1 XOP     -0.119000
      5 C5         -0.1020   -1.2250    1.8240 ca        1 XOP     -0.176000
      6 C6         -0.5890   -0.7840    0.5930 ca        1 XOP     -0.045500
      7 C7          0.0300    0.1730   -3.7580 c3        1 XOP      0.212100
      8 C8          0.8120    1.1480   -4.6590 c3        1 XOP     -0.076900
      9 C9          2.1460    0.5750   -5.1570 c3        1 XOP      0.157500
     10 N           1.8710   -0.6970   -5.8740 n3        1 XOP     -0.695600
     11 O1         -0.6260    2.4260   -1.5090 o         1 XOP     -0.865000
     12 O2          0.4110    0.3340   -2.4240 os        1 XOP     -0.597200
     13 O3         -2.0030    0.2330   -1.7420 o         1 XOP     -0.865000
     14 P          -0.7560    0.9560   -1.3940 p5        1 XOP      1.387900
     15 C10         3.0290    0.2090   -3.9310 c3        1 XOP     -0.099900
     16 C11         2.6740   -1.2510   -3.6410 c3        1 XOP     -0.099900
     17 C12         1.6150   -1.6030   -4.7230 c3        1 XOP      0.157500
     18 C13         0.2150   -1.2980   -4.1730 c3        1 XOP     -0.076900
     19 C14         2.9640   -1.1300   -6.7090 c3        1 XOP      0.149100
     20 H2          1.0320    2.1840    0.3280 ha        1 XOP      0.160000
     21 H3          1.9500    1.4040    2.5620 ha        1 XOP      0.110000
     22 H4          1.2010   -0.7830    3.4950 ha        1 XOP      0.103000
     23 H5         -0.4370   -2.1840    2.2420 ha        1 XOP      0.110000
     24 H6         -1.3260   -1.3640    0.0110 ha        1 XOP      0.160000
     25 H7         -1.0730    0.4160   -3.8540 h1        1 XOP      0.051700
     26 H8          0.1710    1.4070   -5.5400 hc        1 XOP      0.046200
     27 H8A         1.0220    2.0890   -4.0900 hc        1 XOP      0.046200
     28 H9          2.6570    1.3090   -5.8310 h1        1 XOP      0.037700
     29 H10         2.7730    0.8610   -3.0610 hc        1 XOP      0.047700
     30 H10A        4.1110    0.3270   -4.1730 hc        1 XOP      0.047700
     31 H11         3.5650   -1.9150   -3.7290 hc        1 XOP      0.047700
     32 H11A        2.2350   -1.3570   -2.6190 hc        1 XOP      0.047700
     33 H12         1.6860   -2.6760   -5.0380 h1        1 XOP      0.037700
     34 H13         0.0340   -1.9540   -3.2840 hc        1 XOP      0.046200
     35 H13A       -0.5500   -1.5470   -4.9520 hc        1 XOP      0.046200
     36 H14         3.9390   -1.2590   -6.1630 h1        1 XOP      0.018033
     37 H14A        3.1140   -0.3730   -7.5230 h1        1 XOP      0.018033
     38 H14B        2.6910   -2.1120   -7.1770 h1        1 XOP      0.018033
@<TRIPOS>BOND
     1    1    2 ar  
     2    1    6 ar  
     3    1   14 1   
     4    2    3 ar  
     5    2   20 1   
     6    3    4 ar  
     7    3   21 1   
     8    4    5 ar  
     9    4   22 1   
    10    5    6 ar  
    11    5   23 1   
    12    6   24 1   
    13    7    8 1   
    14    7   12 1   
    15    7   18 1   
    16    7   25 1   
    17    8    9 1   
    18    8   26 1   
    19    8   27 1   
    20    9   10 1   
    21    9   15 1   
    22    9   28 1   
    23   10   17 1   
    24   10   19 1   
    25   11   14 1   
    26   12   14 1   
    27   13   14 1   
    28   15   16 1   
    29   15   29 1   
    30   15   30 1   
    31   16   17 1   
    32   16   31 1   
    33   16   32 1   
    34   17   18 1   
    35   17   33 1   
    36   18   34 1   
    37   18   35 1   
    38   19   36 1   
    39   19   37 1   
    40   19   38 1   
@<TRIPOS>SUBSTRUCTURE
     1 XOP         1 TEMP              0 ****  ****    0 ROOT
