@<TRIPOS>MOLECULE
XOP
   38    40     1     0     0
SMALL
bcc


@<TRIPOS>ATOM
      1 C1         -0.1700    0.3830    0.0760 ca        1 XOP     -0.326500
      2 C2          0.7110    1.1980    0.7750 ca        1 XOP     -0.045500
      3 C3          1.2240    0.7820    2.0050 ca        1 XOP     -0.176000
      4 C4          0.8440   -0.4550    2.5270 ca        1 XOP     -0.119000
      5 C5         -0.0490   -1.2700    1.8290 ca        1 XOP     -0.176000
      6 C6         -0.5550   -0.8430    0.6000 ca        1 XOP     -0.045500
      7 C7          0.0150    0.1440   -3.7530 c3        1 XOP      0.212100
      8 C8          0.7670    1.1440   -4.6510 c3        1 XOP     -0.076900
      9 C9          2.1150    0.6110   -5.1560 c3        1 XOP      0.157500
     10 N           1.8730   -0.6650   -5.8790 n3        1 XOP     -0.695600
     11 O1         -0.7020    2.3670   -1.4980 o         1 XOP     -0.865000
     12 O2          0.3950    0.3080   -2.4190 os        1 XOP     -0.597200
     13 O3         -2.0110    0.1310   -1.7280 o         1 XOP     -0.865000
     14 P          -0.7860    0.8920   -1.3840 p5        1 XOP      1.387900
     15 C10         3.0110    0.2630   -3.9340 c3        1 XOP     -0.099900
     16 C11         2.6960   -1.2080   -3.6510 c3        1 XOP     -0.099900
     17 C12         1.6440   -1.5830   -4.7320 c3        1 XOP      0.157500
     18 C13         0.2380   -1.3200   -4.1770 c3        1 XOP     -0.076900
     19 C14         2.9740   -1.0640   -6.7190 c3        1 XOP      0.149100
     20 H2          0.9690    2.1750    0.3310 ha        1 XOP      0.160000
     21 H3          1.9220    1.4230    2.5600 ha        1 XOP      0.110000
     22 H4          1.2470   -0.7880    3.4940 ha        1 XOP      0.103000
     23 H5         -0.3510   -2.2400    2.2470 ha        1 XOP      0.110000
     24 H6         -1.2760   -1.4460    0.0210 ha        1 XOP      0.160000
     25 H7         -1.0950    0.3570   -3.8450 h1        1 XOP      0.051700
     26 H8          0.9540    2.0880   -4.0780 hc        1 XOP      0.046200
     27 H8A         0.1170    1.3900   -5.5290 hc        1 XOP      0.046200
     28 H9          2.6040    1.3610   -5.8270 h1        1 XOP      0.037700
     29 H10         4.0890    0.4110   -4.1790 hc        1 XOP      0.047700
     30 H10A        2.7400    0.9030   -3.0600 hc        1 XOP      0.047700
     31 H11         3.6060   -1.8480   -3.7450 hc        1 XOP      0.047700
     32 H11A        2.2630   -1.3320   -2.6290 hc        1 XOP      0.047700
     33 H12         1.7440   -2.6520   -5.0530 h1        1 XOP      0.037700
     34 H13        -0.5220   -1.5850   -4.9550 hc        1 XOP      0.046200
     35 H13A        0.0770   -1.9840   -3.2910 hc        1 XOP      0.046200
     36 H14         2.7270   -2.0510   -7.1910 h1        1 XOP      0.018033
     37 H14A        3.1020   -0.2990   -7.5290 h1        1 XOP      0.018033
     38 H14B        3.9540   -1.1690   -6.1760 h1        1 XOP      0.018033
@<TRIPOS>BOND
     1    1    2 ar  
     2    1    6 ar  
     3    1   14 1   
     4    2    3 ar  
     5    2   20 1   
     6    3    4 ar  
     7    3   21 1   
     8    4    5 ar  
     9    4   22 1   
    10    5    6 ar  
    11    5   23 1   
    12    6   24 1   
    13    7    8 1   
    14    7   12 1   
    15    7   18 1   
    16    7   25 1   
    17    8    9 1   
    18    8   26 1   
    19    8   27 1   
    20    9   10 1   
    21    9   15 1   
    22    9   28 1   
    23   10   17 1   
    24   10   19 1   
    25   11   14 1   
    26   12   14 1   
    27   13   14 1   
    28   15   16 1   
    29   15   29 1   
    30   15   30 1   
    31   16   17 1   
    32   16   31 1   
    33   16   32 1   
    34   17   18 1   
    35   17   33 1   
    36   18   34 1   
    37   18   35 1   
    38   19   36 1   
    39   19   37 1   
    40   19   38 1   
@<TRIPOS>SUBSTRUCTURE
     1 XOP         1 TEMP              0 ****  ****    0 ROOT
