@<TRIPOS>MOLECULE
XOP
   38    40     1     0     0
SMALL
bcc


@<TRIPOS>ATOM
      1 C1         -0.1740    0.4340    0.0620 ca        1 XOP     -0.326500
      2 C2          0.7200    1.2350    0.7610 ca        1 XOP     -0.045500
      3 C3          1.2160    0.8180    1.9970 ca        1 XOP     -0.176000
      4 C4          0.8050   -0.4060    2.5270 ca        1 XOP     -0.119000
      5 C5         -0.1010   -1.2070    1.8300 ca        1 XOP     -0.176000
      6 C6         -0.5900   -0.7800    0.5940 ca        1 XOP     -0.045500
      7 C7          0.0300    0.1570   -3.7630 c3        1 XOP      0.212100
      8 C8          0.8070    1.1340   -4.6650 c3        1 XOP     -0.076900
      9 C9          2.1470    0.5690   -5.1570 c3        1 XOP      0.157500
     10 N           1.8830   -0.7090   -5.8700 n3        1 XOP     -0.695600
     11 O1         -0.6530    2.4160   -1.5300 o         1 XOP     -0.865000
     12 O2          0.4050    0.3270   -2.4280 os        1 XOP     -0.597200
     13 O3         -2.0080    0.2070   -1.7510 o         1 XOP     -0.865000
     14 P          -0.7690    0.9440   -1.4050 p5        1 XOP      1.387900
     15 C10         3.0290    0.2130   -3.9270 c3        1 XOP     -0.099900
     16 C11         2.6820   -1.2480   -3.6320 c3        1 XOP     -0.099900
     17 C12         1.6290   -1.6120   -4.7170 c3        1 XOP      0.157500
     18 C13         0.2250   -1.3140   -4.1720 c3        1 XOP     -0.076900
     19 C14         2.9810   -1.1380   -6.7000 c3        1 XOP      0.149100
     20 H2          1.0020    2.2030    0.3110 ha        1 XOP      0.160000
     21 H3          1.9240    1.4480    2.5530 ha        1 XOP      0.110000
     22 H4          1.1940   -0.7400    3.5000 ha        1 XOP      0.103000
     23 H5         -0.4260   -2.1670    2.2540 ha        1 XOP      0.110000
     24 H6         -1.3190   -1.3710    0.0150 ha        1 XOP      0.160000
     25 H7         -1.0750    0.3930   -3.8630 h1        1 XOP      0.051700
     26 H8          1.0100    2.0790   -4.1000 hc        1 XOP      0.046200
     27 H8A         0.1670    1.3850   -5.5500 hc        1 XOP      0.046200
     28 H9          2.6550    1.3030   -5.8330 h1        1 XOP      0.037700
     29 H10         2.7650    0.8670   -3.0600 hc        1 XOP      0.047700
     30 H10A        4.1110    0.3370   -4.1670 hc        1 XOP      0.047700
     31 H11         2.2410   -1.3530   -2.6120 hc        1 XOP      0.047700
     32 H11A        3.5790   -1.9070   -3.7150 hc        1 XOP      0.047700
     33 H12         1.7080   -2.6850   -5.0270 h1        1 XOP      0.037700
     34 H13         0.0460   -1.9670   -3.2810 hc        1 XOP      0.046200
     35 H13A       -0.5360   -1.5710   -4.9520 hc        1 XOP      0.046200
     36 H14         3.9550   -1.2580   -6.1500 h1        1 XOP      0.018033
     37 H14A        2.7160   -2.1230   -7.1650 h1        1 XOP      0.018033
     38 H14B        3.1290   -0.3830   -7.5160 h1        1 XOP      0.018033
@<TRIPOS>BOND
     1    1    2 ar  
     2    1    6 ar  
     3    1   14 1   
     4    2    3 ar  
     5    2   20 1   
     6    3    4 ar  
     7    3   21 1   
     8    4    5 ar  
     9    4   22 1   
    10    5    6 ar  
    11    5   23 1   
    12    6   24 1   
    13    7    8 1   
    14    7   12 1   
    15    7   18 1   
    16    7   25 1   
    17    8    9 1   
    18    8   26 1   
    19    8   27 1   
    20    9   10 1   
    21    9   15 1   
    22    9   28 1   
    23   10   17 1   
    24   10   19 1   
    25   11   14 1   
    26   12   14 1   
    27   13   14 1   
    28   15   16 1   
    29   15   29 1   
    30   15   30 1   
    31   16   17 1   
    32   16   31 1   
    33   16   32 1   
    34   17   18 1   
    35   17   33 1   
    36   18   34 1   
    37   18   35 1   
    38   19   36 1   
    39   19   37 1   
    40   19   38 1   
@<TRIPOS>SUBSTRUCTURE
     1 XOP         1 TEMP              0 ****  ****    0 ROOT
