@<TRIPOS>MOLECULE
XOP
   38    40     1     0     0
SMALL
bcc


@<TRIPOS>ATOM
      1 C1         -2.4960    0.0940    0.4190 ca        1 XOP     -0.326500
      2 C2         -2.9620   -0.9300    1.2330 ca        1 XOP     -0.045500
      3 C3         -3.9790   -1.7740    0.7840 ca        1 XOP     -0.176000
      4 C4         -4.5270   -1.5790   -0.4850 ca        1 XOP     -0.119000
      5 C5         -4.0650   -0.5430   -1.3000 ca        1 XOP     -0.176000
      6 C6         -3.0470    0.2940   -0.8400 ca        1 XOP     -0.045500
      7 C7          1.2410    0.9790    0.3430 c3        1 XOP      0.213100
      8 C8          2.2630    0.5260    1.4030 c3        1 XOP     -0.076900
      9 C9          3.1460   -0.6370    0.9350 c3        1 XOP      0.157500
     10 N           3.8350   -0.2290   -0.3180 n3        1 XOP     -0.695600
     11 O1         -1.2300    1.0840    2.4470 o         1 XOP     -0.865000
     12 O2          0.0580    0.2460    0.4650 os        1 XOP     -0.597200
     13 O3         -1.2640    2.3600    0.1810 o         1 XOP     -0.865000
     14 P          -1.2910    1.1030    0.9670 p5        1 XOP      1.387900
     15 C10         2.2400   -1.8450    0.5650 c3        1 XOP     -0.099900
     16 C11         1.9520   -1.6510   -0.9250 c3        1 XOP     -0.099900
     17 C12         2.7160   -0.3460   -1.2890 c3        1 XOP      0.157500
     18 C13         1.7800    0.8540   -1.0940 c3        1 XOP     -0.076900
     19 C14         4.9660   -1.0600   -0.6460 c3        1 XOP      0.149100
     20 H2         -2.5120   -1.0340    2.2350 ha        1 XOP      0.160000
     21 H3         -4.3500   -2.5850    1.4240 ha        1 XOP      0.110000
     22 H4         -5.3270   -2.2410   -0.8440 ha        1 XOP      0.103000
     23 H5         -4.5030   -0.3890   -2.2950 ha        1 XOP      0.110000
     24 H6         -2.6620    1.1350   -1.4410 ha        1 XOP      0.160000
     25 H7          1.0110    2.0740    0.5240 h1        1 XOP      0.051700
     26 H8          2.9130    1.4000    1.6640 hc        1 XOP      0.046200
     27 H8A         1.7190    0.2060    2.3280 hc        1 XOP      0.046200
     28 H9          3.8900   -0.9060    1.7280 h1        1 XOP      0.037700
     29 H10         2.7670   -2.8090    0.7580 hc        1 XOP      0.047700
     30 H10A        1.2940   -1.8160    1.1600 hc        1 XOP      0.047700
     31 H11         2.3250   -2.5100   -1.5300 hc        1 XOP      0.047700
     32 H11A        0.8570   -1.5220   -1.1050 hc        1 XOP      0.047700
     33 H12         3.1030   -0.3730   -2.3400 h1        1 XOP      0.037700
     34 H13         0.9170    0.7490   -1.7990 hc        1 XOP      0.046200
     35 H13A        2.3290    1.7960   -1.3510 hc        1 XOP      0.046200
     36 H14         4.7220   -2.1550   -0.7420 h1        1 XOP      0.018033
     37 H14A        5.3980   -0.7100   -1.6200 h1        1 XOP      0.018033
     38 H14B        5.7420   -0.9420    0.1560 h1        1 XOP      0.018033
@<TRIPOS>BOND
     1    1    2 ar  
     2    1    6 ar  
     3    1   14 1   
     4    2    3 ar  
     5    2   20 1   
     6    3    4 ar  
     7    3   21 1   
     8    4    5 ar  
     9    4   22 1   
    10    5    6 ar  
    11    5   23 1   
    12    6   24 1   
    13    7    8 1   
    14    7   12 1   
    15    7   18 1   
    16    7   25 1   
    17    8    9 1   
    18    8   26 1   
    19    8   27 1   
    20    9   10 1   
    21    9   15 1   
    22    9   28 1   
    23   10   17 1   
    24   10   19 1   
    25   11   14 1   
    26   12   14 1   
    27   13   14 1   
    28   15   16 1   
    29   15   29 1   
    30   15   30 1   
    31   16   17 1   
    32   16   31 1   
    33   16   32 1   
    34   17   18 1   
    35   17   33 1   
    36   18   34 1   
    37   18   35 1   
    38   19   36 1   
    39   19   37 1   
    40   19   38 1   
@<TRIPOS>SUBSTRUCTURE
     1 XOP         1 TEMP              0 ****  ****    0 ROOT
