@<TRIPOS>MOLECULE
XOP
   38    37     1     0     0
SMALL
bcc


@<TRIPOS>ATOM
      1 C1         -0.6180   -0.0460    3.3800 c1        1 XOP     -0.361500
      2 C2         -0.1610    0.9530    4.2190 c1        1 XOP     -0.071250
      3 C3          0.4790    0.6250    5.4090 c1        1 XOP     -0.071250
      4 C4          0.6600   -0.7050    5.7530 c1        1 XOP     -0.071250
      5 C5          0.2010   -1.7100    4.9120 c1        1 XOP     -0.071250
      6 C6         -0.4350   -1.3840    3.7290 c1        1 XOP      0.010500
      7 C7         -1.1140    0.2310   -0.7370 c3        1 XOP      0.212100
      8 C8         -0.6210    1.5060   -1.4920 c3        1 XOP     -0.076900
      9 C9          0.1380    1.2320   -2.7770 c3        1 XOP      0.157500
     10 N          -0.1960    0.1410   -3.4210 n3        1 XOP     -0.695600
     11 O1         -2.0290    1.8250    1.9130 o         1 XOP     -0.865000
     12 O2         -0.5500    0.2250    0.5390 os        1 XOP     -0.597200
     13 O3         -2.7330   -0.5390    1.6740 o         1 XOP     -0.865000
     14 P          -1.5420    0.3900    1.8280 p5        1 XOP      1.422900
     15 C10         1.5730    0.8610   -2.3550 c3        1 XOP     -0.099900
     16 C11         1.4890   -0.7600   -2.3280 c3        1 XOP     -0.099900
     17 C12         0.0220   -0.9870   -2.7300 c3        1 XOP      0.157500
     18 C13        -0.7580   -1.1310   -1.4410 c3        1 XOP     -0.076900
     19 C14         0.5190    0.0940   -4.6780 c3        1 XOP      0.149100
     20 H2         -0.2850    1.8610    3.9840 ha        1 XOP      0.063250
     21 H3          0.8010    1.3280    5.9980 ha        1 XOP      0.063250
     22 H4          1.0980   -0.9300    6.5670 ha        1 XOP      0.063250
     23 H5          0.3290   -2.6420    5.1540 ha        1 XOP      0.063250
     24 H6         -0.7770   -2.1340    3.1030 ha        1 XOP      0.102500
     25 H7         -2.1000    0.2850   -0.6430 h1        1 XOP      0.051700
     26 H8         -0.0380    2.0130   -0.8920 hc        1 XOP      0.046200
     27 H8A        -1.4170    2.0690   -1.7120 hc        1 XOP      0.046200
     28 H9          0.1360    2.0270   -3.3830 h1        1 XOP      0.037700
     29 H10         2.2390    1.1760   -3.0360 hc        1 XOP      0.047700
     30 H10A        1.7710    1.2050   -1.4970 hc        1 XOP      0.047700
     31 H11         1.6610   -1.0980   -1.4450 hc        1 XOP      0.047700
     32 H11A        2.1030   -1.1580   -2.9870 hc        1 XOP      0.047700
     33 H12        -0.0710   -1.7660   -3.2890 h1        1 XOP      0.037700
     34 H13        -1.6150   -1.6170   -1.6420 hc        1 XOP      0.046200
     35 H13A       -0.2020   -1.7030   -0.7840 hc        1 XOP      0.046200
     36 H14         1.4840    0.1080   -4.5050 h1        1 XOP      0.018033
     37 H14A        0.2850   -0.7280   -5.1580 h1        1 XOP      0.018033
     38 H14B        0.2690    0.8850   -5.2300 h1        1 XOP      0.018033
@<TRIPOS>BOND
     1    1    6 3   
     2    1   14 1   
     3    2    3 3   
     4    2   20 1   
     5    3   21 1   
     6    4    5 3   
     7    4   22 1   
     8    5   23 1   
     9    6   24 1   
    10    7    8 1   
    11    7   12 1   
    12    7   18 1   
    13    7   25 1   
    14    8    9 1   
    15    8   26 1   
    16    8   27 1   
    17    9   10 1   
    18    9   15 1   
    19    9   28 1   
    20   10   17 1   
    21   10   19 1   
    22   11   14 1   
    23   12   14 1   
    24   13   14 1   
    25   15   16 1   
    26   15   29 1   
    27   15   30 1   
    28   16   17 1   
    29   16   31 1   
    30   16   32 1   
    31   17   18 1   
    32   17   33 1   
    33   18   34 1   
    34   18   35 1   
    35   19   36 1   
    36   19   37 1   
    37   19   38 1   
@<TRIPOS>SUBSTRUCTURE
     1 XOP         1 TEMP              0 ****  ****    0 ROOT
