@<TRIPOS>MOLECULE
XP0
   40    43     1     0     0
SMALL
bcc


@<TRIPOS>ATOM
      1 CAL         0.1270    0.2460   -0.0490 c3        1 XP0      0.166300
      2 CAJ         1.4860   -0.4440   -0.2590 c3        1 XP0     -0.101400
      3 CAK         1.9490   -0.8800    1.1240 c3        1 XP0     -0.101400
      4 CAM         0.8470   -0.4330    2.0990 c3        1 XP0      0.166300
      5 NAW        -0.3230    0.0110    1.3270 nh        1 XP0     -0.708300
      6 C6         -1.5020   -0.7530    1.5490 ca        1 XP0      0.728200
      7 C5         -2.0670   -0.7830    2.8610 ca        1 XP0     -0.346400
      8 N1         -2.1300   -1.3870    0.5260 nb        1 XP0     -0.816000
      9 C2         -3.3180   -2.0690    0.7830 ca        1 XP0      0.897900
     10 NAA        -3.8670   -2.7910   -0.2910 nv        1 XP0     -0.920500
     11 N3         -3.9650   -2.1630    1.9980 nb        1 XP0     -0.782000
     12 C4         -3.3120   -1.5210    3.0070 ca        1 XP0      0.489800
     13 NAP        -3.7170   -1.4300    4.3450 na        1 XP0     -0.284100
     14 CAI        -2.7890   -0.6480    5.0320 cc        1 XP0     -0.102100
     15 CAS        -1.7700   -0.2280    4.1650 cd        1 XP0      0.045100
     16 CAC        -0.7190    0.5990    4.5360 ch        1 XP0     -0.095300
     17 CAB         0.1670    1.3310    4.8860 cg        1 XP0     -0.124000
     18 CAQ         1.2110    2.1850    5.2800 ca        1 XP0      0.032000
     19 CAG         1.4860    2.3920    6.6420 ca        1 XP0     -0.111500
     20 CAE         2.5220    3.2410    7.0240 ca        1 XP0     -0.132000
     21 CAD         3.2920    3.8890    6.0590 ca        1 XP0     -0.125000
     22 CAF         3.0240    3.6880    4.7050 ca        1 XP0     -0.132000
     23 CAH         1.9900    2.8410    4.3120 ca        1 XP0     -0.111500
     24 HAL1        0.2490    1.3630   -0.1390 h1        1 XP0      0.064950
     25 HAL2       -0.6090   -0.0800   -0.8280 h1        1 XP0      0.064950
     26 HAJ1        1.3750   -1.3240   -0.9390 hc        1 XP0      0.050700
     27 HAJ2        2.2110    0.2630   -0.7280 hc        1 XP0      0.050700
     28 HAK1        2.0860   -1.9880    1.1700 hc        1 XP0      0.050700
     29 HAK2        2.9210   -0.4040    1.3980 hc        1 XP0      0.050700
     30 HAM1        0.5850   -1.2490    2.8230 h1        1 XP0      0.064950
     31 HAM2        1.1940    0.4590    2.6930 h1        1 XP0      0.064950
     32 HAA1       -3.5830   -2.4980   -1.1990 hn        1 XP0      0.419800
     33 HAA2       -4.8270   -3.0360   -0.2030 hn        1 XP0      0.419800
     34 HAP        -4.5310   -1.8390    4.7240 hn        1 XP0      0.313700
     35 HAI        -2.9160   -0.4390    6.0960 h4        1 XP0      0.176000
     36 HAG         0.8790    1.8820    7.4050 ha        1 XP0      0.139000
     37 HAH         1.7760    2.6850    3.2440 ha        1 XP0      0.139000
     38 HAE         2.7320    3.4000    8.0920 ha        1 XP0      0.133000
     39 HAD         4.1090    4.5590    6.3650 ha        1 XP0      0.132000
     40 HAF         3.6300    4.2000    3.9420 ha        1 XP0      0.133000
@<TRIPOS>BOND
     1    1    2 1   
     2    1    5 1   
     3    1   24 1   
     4    1   25 1   
     5    2    3 1   
     6    2   26 1   
     7    2   27 1   
     8    3    4 1   
     9    3   28 1   
    10    3   29 1   
    11    4    5 1   
    12    4   30 1   
    13    4   31 1   
    14    5    6 1   
    15    6    7 ar  
    16    6    8 ar  
    17    7   12 ar  
    18    7   15 1   
    19    8    9 ar  
    20    9   10 1   
    21    9   11 ar  
    22   10   32 1   
    23   10   33 1   
    24   11   12 ar  
    25   12   13 1   
    26   13   14 1   
    27   13   34 1   
    28   14   15 2   
    29   14   35 1   
    30   15   16 1   
    31   16   17 3   
    32   17   18 1   
    33   18   19 ar  
    34   18   23 ar  
    35   19   20 ar  
    36   19   36 1   
    37   20   21 ar  
    38   20   38 1   
    39   21   22 ar  
    40   21   39 1   
    41   22   23 ar  
    42   22   40 1   
    43   23   37 1   
@<TRIPOS>SUBSTRUCTURE
     1 XP0         1 TEMP              0 ****  ****    0 ROOT
