@<TRIPOS>MOLECULE
XP0
   40    43     1     0     0
SMALL
bcc


@<TRIPOS>ATOM
      1 CAL        -0.1720    0.7220    0.0670 c3        1 XP0      0.166300
      2 CAJ         1.1590    0.1640   -0.4660 c3        1 XP0     -0.101400
      3 CAK         1.8310   -0.5130    0.7220 c3        1 XP0     -0.101400
      4 CAM         0.8710   -0.3320    1.9090 c3        1 XP0      0.166300
      5 NAW        -0.4100    0.1920    1.4130 nh        1 XP0     -0.708300
      6 C6         -1.5250   -0.6650    1.6330 ca        1 XP0      0.728200
      7 C5         -1.8910   -0.9890    2.9750 ca        1 XP0     -0.346400
      8 N1         -2.2780   -1.1140    0.5970 nb        1 XP0     -0.816000
      9 C2         -3.3980   -1.8980    0.8690 ca        1 XP0      0.897900
     10 NAA        -4.0790   -2.4190   -0.2460 nh        1 XP0     -0.920500
     11 N3         -3.8580   -2.2700    2.1150 nb        1 XP0     -0.782000
     12 C4         -3.0810   -1.8100    3.1350 ca        1 XP0      0.489800
     13 NAP        -3.2890   -2.0120    4.5060 na        1 XP0     -0.284100
     14 CAI        -2.2910   -1.3350    5.2060 cc        1 XP0     -0.102100
     15 CAS        -1.4200   -0.6930    4.3120 cd        1 XP0      0.045100
     16 CAC        -0.3480    0.1000    4.6990 ch        1 XP0     -0.095300
     17 CAB         0.5610    0.7930    5.0660 cg        1 XP0     -0.124000
     18 CAQ         1.6280    1.6080    5.4810 ca        1 XP0      0.032000
     19 CAG         2.0970    1.5490    6.8050 ca        1 XP0     -0.111500
     20 CAE         3.1550    2.3590    7.2070 ca        1 XP0     -0.132000
     21 CAD         3.7560    3.2330    6.3010 ca        1 XP0     -0.125000
     22 CAF         3.2950    3.2970    4.9860 ca        1 XP0     -0.132000
     23 CAH         2.2370    2.4910    4.5730 ca        1 XP0     -0.111500
     24 HAL1       -0.0940    1.8390    0.1930 h1        1 XP0      0.064950
     25 HAL2       -1.0050    0.5190   -0.6540 h1        1 XP0      0.064950
     26 HAJ1        0.9740   -0.5670   -1.2900 hc        1 XP0      0.050700
     27 HAJ2        1.7900    0.9900   -0.8740 hc        1 XP0      0.050700
     28 HAK1        2.8200   -0.0480    0.9520 hc        1 XP0      0.050700
     29 HAK2        2.0020   -1.5990    0.5190 hc        1 XP0      0.050700
     30 HAM1        1.2770    0.4410    2.6210 h1        1 XP0      0.064950
     31 HAM2        0.7380   -1.2900    2.4790 h1        1 XP0      0.064950
     32 HAA1       -3.9380   -1.9350   -1.1030 hn        1 XP0      0.419800
     33 HAA2       -5.0090   -2.7290   -0.0780 hn        1 XP0      0.419800
     34 HAP        -4.0270   -2.5330    4.9010 hn        1 XP0      0.313700
     35 HAI        -2.2660   -1.3510    6.2970 h4        1 XP0      0.176000
     36 HAG         1.6240    0.8600    7.5200 ha        1 XP0      0.139000
     37 HAH         1.8710    2.5430    3.5360 ha        1 XP0      0.139000
     38 HAE         3.5170    2.3090    8.2450 ha        1 XP0      0.133000
     39 HAD         4.5920    3.8720    6.6230 ha        1 XP0      0.132000
     40 HAF         3.7670    3.9870    4.2710 ha        1 XP0      0.133000
@<TRIPOS>BOND
     1    1    2 1   
     2    1    5 1   
     3    1   24 1   
     4    1   25 1   
     5    2    3 1   
     6    2   26 1   
     7    2   27 1   
     8    3    4 1   
     9    3   28 1   
    10    3   29 1   
    11    4    5 1   
    12    4   30 1   
    13    4   31 1   
    14    5    6 1   
    15    6    7 ar  
    16    6    8 ar  
    17    7   12 ar  
    18    7   15 1   
    19    8    9 ar  
    20    9   10 1   
    21    9   11 ar  
    22   10   32 1   
    23   10   33 1   
    24   11   12 ar  
    25   12   13 1   
    26   13   14 1   
    27   13   34 1   
    28   14   15 2   
    29   14   35 1   
    30   15   16 1   
    31   16   17 3   
    32   17   18 1   
    33   18   19 ar  
    34   18   23 ar  
    35   19   20 ar  
    36   19   36 1   
    37   20   21 ar  
    38   20   38 1   
    39   21   22 ar  
    40   21   39 1   
    41   22   23 ar  
    42   22   40 1   
    43   23   37 1   
@<TRIPOS>SUBSTRUCTURE
     1 XP0         1 TEMP              0 ****  ****    0 ROOT
