@<TRIPOS>MOLECULE
XP1
   22    22     1     0     0
SMALL
bcc


@<TRIPOS>ATOM
      1 CAG       -19.3510  -41.3520  -18.2420 c3        1 XP1      0.172600
      2 NAF       -18.3500  -41.0370  -19.2370 nh        1 XP1     -0.630000
      3 CAK       -18.8530  -40.1890  -20.2910 c3        1 XP1      0.172600
      4 CAE       -17.5960  -42.1750  -19.6740 ca        1 XP1      0.067600
      5 CAJ       -17.6740  -42.6860  -20.9850 ca        1 XP1     -0.178000
      6 CAI       -16.8780  -43.7610  -21.3720 ca        1 XP1     -0.098500
      7 CAD       -15.9970  -44.3640  -20.4730 ca        1 XP1     -0.132600
      8 CAC       -15.1410  -45.5450  -20.9010 c         1 XP1      0.908200
      9 OAH       -14.3740  -46.0640  -20.0410 o         1 XP1     -0.833800
     10 CAA       -15.9190  -43.8620  -19.1710 ca        1 XP1     -0.098500
     11 CAB       -16.7010  -42.7840  -18.7680 ca        1 XP1     -0.178000
     12 OXT       -15.2430  -45.9490  -22.0950 o         1 XP1     -0.833800
     13 HAG1      -18.8960  -42.0080  -17.4550 h1        1 XP1      0.023700
     14 HAG2      -19.6920  -40.3940  -17.7670 h1        1 XP1      0.023700
     15 HAG3      -20.2510  -41.8750  -18.6660 h1        1 XP1      0.023700
     16 HAK1      -19.1890  -39.2220  -19.8310 h1        1 XP1      0.023700
     17 HAK2      -18.0290  -39.9790  -21.0200 h1        1 XP1      0.023700
     18 HAK3      -19.7240  -40.6300  -20.8500 h1        1 XP1      0.023700
     19 HAJ       -18.3620  -42.2410  -21.7180 ha        1 XP1      0.109500
     20 HAB       -16.6140  -42.4050  -17.7400 ha        1 XP1      0.109500
     21 HAI       -16.9310  -44.1620  -22.3980 ha        1 XP1      0.150500
     22 HAA       -15.2180  -44.3440  -18.4690 ha        1 XP1      0.150500
@<TRIPOS>BOND
     1    1    2 1   
     2    1   13 1   
     3    1   14 1   
     4    1   15 1   
     5    2    3 1   
     6    2    4 1   
     7    3   16 1   
     8    3   17 1   
     9    3   18 1   
    10    4    5 ar  
    11    4   11 ar  
    12    5    6 ar  
    13    5   19 1   
    14    6    7 ar  
    15    6   21 1   
    16    7    8 1   
    17    7   10 ar  
    18    8    9 1   
    19    8   12 1   
    20   10   11 ar  
    21   10   22 1   
    22   11   20 1   
@<TRIPOS>SUBSTRUCTURE
     1 XP1         1 TEMP              0 ****  ****    0 ROOT
