@<TRIPOS>MOLECULE
XP1
   22    22     1     0     0
SMALL
bcc


@<TRIPOS>ATOM
      1 CAG         0.1640   -0.5410    0.1070 c3        1 XP1      0.172600
      2 NAF         1.3040    0.3390   -0.0160 nh        1 XP1     -0.630000
      3 CAK         2.1060    0.3910    1.1820 c3        1 XP1      0.172600
      4 CAE         2.0360    0.1660   -1.2360 ca        1 XP1      0.067600
      5 CAJ         3.3530   -0.3340   -1.2720 ca        1 XP1     -0.178000
      6 CAI         4.0380   -0.4320   -2.4810 ca        1 XP1     -0.098500
      7 CAD         3.4360   -0.0510   -3.6820 ca        1 XP1     -0.132600
      8 CAC         4.1870   -0.1730   -4.9980 c         1 XP1      0.908200
      9 OAH         3.5870    0.1690   -6.0570 o         1 XP1     -0.833800
     10 CAA         2.1280    0.4420   -3.6510 ca        1 XP1     -0.098500
     11 CAB         1.4310    0.5540   -2.4520 ca        1 XP1     -0.178000
     12 OXT         5.3720   -0.6130   -4.9660 o         1 XP1     -0.833800
     13 HAG1       -0.4150   -0.5340   -0.8530 h1        1 XP1      0.023700
     14 HAG2       -0.4920   -0.1600    0.9330 h1        1 XP1      0.023700
     15 HAG3        0.4470   -1.6040    0.3450 h1        1 XP1      0.023700
     16 HAK1        2.5150   -0.6090    1.4970 h1        1 XP1      0.023700
     17 HAK2        2.9640    1.0940    1.0220 h1        1 XP1      0.023700
     18 HAK3        1.4640    0.7820    2.0160 h1        1 XP1      0.023700
     19 HAJ         3.8570   -0.6500   -0.3480 ha        1 XP1      0.109500
     20 HAB         0.4070    0.9520   -2.4550 ha        1 XP1      0.109500
     21 HAI         5.0700   -0.8170   -2.5150 ha        1 XP1      0.150500
     22 HAA         1.6630    0.7420   -4.6040 ha        1 XP1      0.150500
@<TRIPOS>BOND
     1    1    2 1   
     2    1   13 1   
     3    1   14 1   
     4    1   15 1   
     5    2    3 1   
     6    2    4 1   
     7    3   16 1   
     8    3   17 1   
     9    3   18 1   
    10    4    5 ar  
    11    4   11 ar  
    12    5    6 ar  
    13    5   19 1   
    14    6    7 ar  
    15    6   21 1   
    16    7    8 1   
    17    7   10 ar  
    18    8    9 1   
    19    8   12 1   
    20   10   11 ar  
    21   10   22 1   
    22   11   20 1   
@<TRIPOS>SUBSTRUCTURE
     1 XP1         1 TEMP              0 ****  ****    0 ROOT
