@<TRIPOS>MOLECULE
XP1
   22    22     1     0     0
SMALL
bcc


@<TRIPOS>ATOM
      1 CAG         0.2110   -0.6430    0.1320 c3        1 XP1      0.172600
      2 NAF         1.2820    0.3150   -0.0240 nh        1 XP1     -0.630000
      3 CAK         2.0810    0.4650    1.1670 c3        1 XP1      0.172600
      4 CAE         2.0220    0.1560   -1.2420 ca        1 XP1      0.067600
      5 CAJ         3.3730   -0.2450   -1.2680 ca        1 XP1     -0.178000
      6 CAI         4.0600   -0.3320   -2.4760 ca        1 XP1     -0.098500
      7 CAD         3.4280   -0.0360   -3.6860 ca        1 XP1     -0.132600
      8 CAC         4.1830   -0.1450   -5.0010 c         1 XP1      0.908200
      9 OAH         3.5580    0.1160   -6.0670 o         1 XP1     -0.833800
     10 CAA         2.0880    0.3590   -3.6640 ca        1 XP1     -0.098500
     11 CAB         1.3880    0.4590   -2.4660 ca        1 XP1     -0.178000
     12 OXT         5.3980   -0.4940   -4.9600 o         1 XP1     -0.833800
     13 HAG1       -0.3690   -0.7090   -0.8250 h1        1 XP1      0.023700
     14 HAG2       -0.4700   -0.2840    0.9490 h1        1 XP1      0.023700
     15 HAG3        0.5720   -1.6730    0.4030 h1        1 XP1      0.023700
     16 HAK1        2.5640   -0.4920    1.5120 h1        1 XP1      0.023700
     17 HAK2        2.8850    1.2240    0.9810 h1        1 XP1      0.023700
     18 HAK3        1.4140    0.8340    1.9910 h1        1 XP1      0.023700
     19 HAJ         3.9010   -0.4930   -0.3360 ha        1 XP1      0.109500
     20 HAB         0.3360    0.7790   -2.4770 ha        1 XP1      0.109500
     21 HAI         5.1180   -0.6400   -2.5030 ha        1 XP1      0.150500
     22 HAA         1.5990    0.5930   -4.6250 ha        1 XP1      0.150500
@<TRIPOS>BOND
     1    1    2 1   
     2    1   13 1   
     3    1   14 1   
     4    1   15 1   
     5    2    3 1   
     6    2    4 1   
     7    3   16 1   
     8    3   17 1   
     9    3   18 1   
    10    4    5 ar  
    11    4   11 ar  
    12    5    6 ar  
    13    5   19 1   
    14    6    7 ar  
    15    6   21 1   
    16    7    8 1   
    17    7   10 ar  
    18    8    9 1   
    19    8   12 1   
    20   10   11 ar  
    21   10   22 1   
    22   11   20 1   
@<TRIPOS>SUBSTRUCTURE
     1 XP1         1 TEMP              0 ****  ****    0 ROOT
