@<TRIPOS>MOLECULE
XP1
   22    22     1     0     0
SMALL
bcc


@<TRIPOS>ATOM
      1 CAG         0.2160   -0.6470    0.1370 c3        1 XP1      0.172600
      2 NAF         1.2850    0.3130   -0.0220 nh        1 XP1     -0.630000
      3 CAK         2.0860    0.4650    1.1680 c3        1 XP1      0.172600
      4 CAE         2.0230    0.1560   -1.2410 ca        1 XP1      0.067600
      5 CAJ         3.3740   -0.2430   -1.2700 ca        1 XP1     -0.178000
      6 CAI         4.0590   -0.3280   -2.4800 ca        1 XP1     -0.098500
      7 CAD         3.4240   -0.0340   -3.6880 ca        1 XP1     -0.132600
      8 CAC         4.1760   -0.1420   -5.0050 c         1 XP1      0.908200
      9 OAH         3.5470    0.1170   -6.0700 o         1 XP1     -0.833800
     10 CAA         2.0830    0.3580   -3.6640 ca        1 XP1     -0.098500
     11 CAB         1.3850    0.4560   -2.4640 ca        1 XP1     -0.178000
     12 OXT         5.3910   -0.4870   -4.9660 o         1 XP1     -0.833800
     13 HAG1       -0.4640   -0.2890    0.9550 h1        1 XP1      0.023700
     14 HAG2       -0.3660   -0.7150   -0.8180 h1        1 XP1      0.023700
     15 HAG3        0.5800   -1.6770    0.4070 h1        1 XP1      0.023700
     16 HAK1        1.4200    0.8330    1.9930 h1        1 XP1      0.023700
     17 HAK2        2.8880    1.2250    0.9790 h1        1 XP1      0.023700
     18 HAK3        2.5720   -0.4910    1.5120 h1        1 XP1      0.023700
     19 HAJ         3.9050   -0.4890   -0.3390 ha        1 XP1      0.109500
     20 HAB         0.3320    0.7750   -2.4730 ha        1 XP1      0.109500
     21 HAI         5.1170   -0.6340   -2.5090 ha        1 XP1      0.150500
     22 HAA         1.5910    0.5910   -4.6230 ha        1 XP1      0.150500
@<TRIPOS>BOND
     1    1    2 1   
     2    1   13 1   
     3    1   14 1   
     4    1   15 1   
     5    2    3 1   
     6    2    4 1   
     7    3   16 1   
     8    3   17 1   
     9    3   18 1   
    10    4    5 ar  
    11    4   11 ar  
    12    5    6 ar  
    13    5   19 1   
    14    6    7 ar  
    15    6   21 1   
    16    7    8 1   
    17    7   10 ar  
    18    8    9 1   
    19    8   12 1   
    20   10   11 ar  
    21   10   22 1   
    22   11   20 1   
@<TRIPOS>SUBSTRUCTURE
     1 XP1         1 TEMP              0 ****  ****    0 ROOT
