@<TRIPOS>MOLECULE
XP4
   99    98     1     0     0
SMALL
bcc


@<TRIPOS>ATOM
      1 O1          3.7360   -2.2310    1.2530 o         1 XP4     -0.848000
      2 O2          3.2860   -3.9510    3.1910 o         1 XP4     -0.848000
      3 P1          2.8630   -2.9030    2.2380 p5        1 XP4      1.438800
      4 O3          2.1680   -1.7790    3.2040 oh        1 XP4     -0.784400
      5 O4          1.4950   -3.4430    1.5010 os        1 XP4     -0.592200
      6 C1          0.7770   -2.5420    0.7110 c3        1 XP4      0.192400
      7 C2          0.6820   -3.0670   -0.7330 c3        1 XP4      0.121100
      8 C3         -0.7240   -3.0120   -1.3310 c3        1 XP4      0.150400
      9 O5         -1.2870   -1.7270   -1.1310 os        1 XP4     -0.477900
     10 C4         -2.5670   -1.5270   -1.7010 c2        1 XP4      0.432100
     11 O6         -3.0320   -2.5490   -2.2780 o         1 XP4     -0.574000
     12 C5         -3.0690   -0.2510   -1.5190 c2        1 XP4     -0.601200
     13 C6         -4.3760    0.1390   -2.0450 c3        1 XP4      0.076800
     14 C7         -5.3220    0.6030   -0.9430 c3        1 XP4     -0.084400
     15 C8         -6.6610    1.0400   -1.5010 c3        1 XP4     -0.078400
     16 C9         -7.6000    1.4980   -0.4050 c3        1 XP4     -0.079400
     17 C10        -8.9380    1.9320   -0.9640 c3        1 XP4     -0.078400
     18 C11        -9.8760    2.3880    0.1340 c3        1 XP4     -0.079400
     19 C12       -11.2140    2.8220   -0.4260 c3        1 XP4     -0.078400
     20 C13       -12.1500    3.2770    0.6730 c3        1 XP4     -0.079400
     21 C14       -13.4880    3.7110    0.1130 c3        1 XP4     -0.078400
     22 C15       -14.4240    4.1650    1.2120 c3        1 XP4     -0.079400
     23 C16       -15.7620    4.6000    0.6530 c3        1 XP4     -0.080400
     24 C17       -16.6980    5.0530    1.7440 c3        1 XP4     -0.091100
     25 O7          1.5640   -2.2220   -1.5050 os        1 XP4     -0.405900
     26 C18         2.4320   -2.7930   -2.3720 c         1 XP4      0.648100
     27 O8          2.3090   -3.9760   -2.7110 o         1 XP4     -0.592000
     28 C19         3.4860   -1.8260   -2.8350 c3        1 XP4     -0.121400
     29 C20         4.6440   -1.8400   -1.8580 c3        1 XP4     -0.111400
     30 C21         5.6130   -0.7130   -2.1400 c3        1 XP4     -0.061400
     31 C22         6.7270   -0.7060   -1.1140 c3        1 XP4     -0.087400
     32 C23         7.6520    0.4760   -1.3090 c3        1 XP4     -0.074400
     33 C24         8.7660    0.4740   -0.2840 c3        1 XP4     -0.080400
     34 C25         9.6870    1.6620   -0.4660 c3        1 XP4     -0.077400
     35 C26        10.7990    1.6580    0.5600 c3        1 XP4     -0.079400
     36 C27        11.7210    2.8450    0.3800 c3        1 XP4     -0.078400
     37 C28        12.8330    2.8410    1.4070 c3        1 XP4     -0.079400
     38 C29        13.7540    4.0280    1.2260 c3        1 XP4     -0.078400
     39 C30        14.8670    4.0250    2.2530 c3        1 XP4     -0.081400
     40 C31        15.7870    5.2050    2.0780 c3        1 XP4     -0.091100
     41 H2          1.2700   -1.5320    0.7230 h1        1 XP4      0.051200
     42 H3         -0.2690   -2.4600    1.1190 h1        1 XP4      0.051200
     43 H4          1.0410   -4.1330   -0.7780 h1        1 XP4      0.074700
     44 H5         -1.3630   -3.7840   -0.8250 h1        1 XP4      0.030700
     45 H6         -0.6780   -3.2410   -2.4280 h1        1 XP4      0.030700
     46 H7         -2.4830    0.4940   -0.9800 ha        1 XP4      0.099000
     47 H8          1.8970   -2.1520    4.0340 ho        1 XP4      0.419000
     48 H9         -4.2770    0.9870   -2.7840 hc        1 XP4     -0.008800
     49 H10        -4.8510   -0.7190   -2.5940 hc        1 XP4     -0.008800
     50 H11        -4.8530    1.4530   -0.3840 hc        1 XP4      0.028200
     51 H12        -5.4720   -0.2330   -0.2130 hc        1 XP4      0.028200
     52 H13        -7.1270    0.1880   -2.0630 hc        1 XP4      0.025700
     53 H14        -6.5090    1.8750   -2.2350 hc        1 XP4      0.025700
     54 H15        -7.1340    2.3490    0.1570 hc        1 XP4      0.034700
     55 H16        -7.7530    0.6620    0.3290 hc        1 XP4      0.034700
     56 H17        -9.4040    1.0800   -1.5260 hc        1 XP4      0.033200
     57 H18        -8.7860    2.7670   -1.6980 hc        1 XP4      0.033200
     58 H19        -9.4090    3.2390    0.6960 hc        1 XP4      0.037200
     59 H20       -10.0280    1.5520    0.8670 hc        1 XP4      0.037200
     60 H21       -11.6790    1.9700   -0.9880 hc        1 XP4      0.036200
     61 H22       -11.0610    3.6570   -1.1590 hc        1 XP4      0.036200
     62 H23       -11.6840    4.1280    1.2360 hc        1 XP4      0.038200
     63 H24       -12.3030    2.4410    1.4060 hc        1 XP4      0.038200
     64 H25       -13.9540    2.8590   -0.4500 hc        1 XP4      0.037200
     65 H26       -13.3350    4.5460   -0.6200 hc        1 XP4      0.037200
     66 H27       -13.9580    5.0160    1.7740 hc        1 XP4      0.038700
     67 H28       -14.5770    3.3300    1.9450 hc        1 XP4      0.038700
     68 H29       -16.2260    3.7470    0.0890 hc        1 XP4      0.036700
     69 H30       -15.6070    5.4340   -0.0810 hc        1 XP4      0.036700
     70 H31       -16.2640    5.9180    2.3010 hc        1 XP4      0.029033
     71 H32       -17.6780    5.3680    1.3100 hc        1 XP4      0.029033
     72 H33       -16.8840    4.2260    2.4710 hc        1 XP4      0.029033
     73 H34         3.8220   -2.1250   -3.8610 hc        1 XP4      0.052200
     74 H35         3.0400   -0.7980   -2.8890 hc        1 XP4      0.052200
     75 H36         4.2490   -1.7520   -0.7990 hc        1 XP4      0.097700
     76 H37         5.1780   -2.8230   -1.9250 hc        1 XP4      0.097700
     77 H38         6.0440   -0.8170   -3.1700 hc        1 XP4      0.019200
     78 H39         5.0680    0.2680   -2.1060 hc        1 XP4      0.019200
     79 H40         6.2760   -0.6780   -0.0850 hc        1 XP4      0.059200
     80 H41         7.3120   -1.6600   -1.1900 hc        1 XP4      0.059200
     81 H42         8.0910    0.4490   -2.3410 hc        1 XP4      0.027700
     82 H43         7.0660    1.4290   -1.2240 hc        1 XP4      0.027700
     83 H44         8.3220    0.4940    0.7470 hc        1 XP4      0.043700
     84 H45         9.3550   -0.4760   -0.3700 hc        1 XP4      0.043700
     85 H46        10.1270    1.6420   -1.4980 hc        1 XP4      0.033700
     86 H47         9.0970    2.6110   -0.3770 hc        1 XP4      0.033700
     87 H48        10.3580    1.6780    1.5910 hc        1 XP4      0.040200
     88 H49        11.3890    0.7080    0.4720 hc        1 XP4      0.040200
     89 H50        12.1610    2.8260   -0.6520 hc        1 XP4      0.036200
     90 H51        11.1300    3.7960    0.4690 hc        1 XP4      0.036200
     91 H52        12.3910    2.8610    2.4380 hc        1 XP4      0.039700
     92 H53        13.4220    1.8910    1.3180 hc        1 XP4      0.039700
     93 H54        14.1950    4.0090    0.1950 hc        1 XP4      0.037200
     94 H55        13.1650    4.9790    1.3150 hc        1 XP4      0.037200
     95 H56        14.4230    4.0430    3.2840 hc        1 XP4      0.038200
     96 H57        15.4530    3.0720    2.1640 hc        1 XP4      0.038200
     97 H58        16.2580    5.1910    1.0650 hc        1 XP4      0.028367
     98 H59        15.2240    6.1630    2.1880 hc        1 XP4      0.028367
     99 H60        16.5990    5.1830    2.8440 hc        1 XP4      0.028367
@<TRIPOS>BOND
     1    1    3 1   
     2    2    3 1   
     3    3    4 1   
     4    3    5 1   
     5    4   47 1   
     6    5    6 1   
     7    6    7 1   
     8    6   41 1   
     9    6   42 1   
    10    7    8 1   
    11    7   25 1   
    12    7   43 1   
    13    8    9 1   
    14    8   44 1   
    15    8   45 1   
    16    9   10 1   
    17   10   11 1   
    18   10   12 2   
    19   12   13 1   
    20   12   46 1   
    21   13   14 1   
    22   13   48 1   
    23   13   49 1   
    24   14   15 1   
    25   14   50 1   
    26   14   51 1   
    27   15   16 1   
    28   15   52 1   
    29   15   53 1   
    30   16   17 1   
    31   16   54 1   
    32   16   55 1   
    33   17   18 1   
    34   17   56 1   
    35   17   57 1   
    36   18   19 1   
    37   18   58 1   
    38   18   59 1   
    39   19   20 1   
    40   19   60 1   
    41   19   61 1   
    42   20   21 1   
    43   20   62 1   
    44   20   63 1   
    45   21   22 1   
    46   21   64 1   
    47   21   65 1   
    48   22   23 1   
    49   22   66 1   
    50   22   67 1   
    51   23   24 1   
    52   23   68 1   
    53   23   69 1   
    54   24   70 1   
    55   24   71 1   
    56   24   72 1   
    57   25   26 1   
    58   26   27 2   
    59   26   28 1   
    60   28   29 1   
    61   28   73 1   
    62   28   74 1   
    63   29   30 1   
    64   29   75 1   
    65   29   76 1   
    66   30   31 1   
    67   30   77 1   
    68   30   78 1   
    69   31   32 1   
    70   31   79 1   
    71   31   80 1   
    72   32   33 1   
    73   32   81 1   
    74   32   82 1   
    75   33   34 1   
    76   33   83 1   
    77   33   84 1   
    78   34   35 1   
    79   34   85 1   
    80   34   86 1   
    81   35   36 1   
    82   35   87 1   
    83   35   88 1   
    84   36   37 1   
    85   36   89 1   
    86   36   90 1   
    87   37   38 1   
    88   37   91 1   
    89   37   92 1   
    90   38   39 1   
    91   38   93 1   
    92   38   94 1   
    93   39   40 1   
    94   39   95 1   
    95   39   96 1   
    96   40   97 1   
    97   40   98 1   
    98   40   99 1   
@<TRIPOS>SUBSTRUCTURE
     1 XP4         1 TEMP              0 ****  ****    0 ROOT
