@<TRIPOS>MOLECULE
XP4
   99    98     1     0     0
SMALL
bcc


@<TRIPOS>ATOM
      1 O1          2.2900   -1.5240    1.2340 o         1 XP4     -0.915167
      2 O2          3.8720    0.4660    1.1620 o         1 XP4     -0.915167
      3 P1          3.6350   -0.9800    0.8490 p5        1 XP4      1.323900
      4 O3          4.8130   -1.9130    1.0260 o         1 XP4     -0.915167
      5 O4          3.5700   -0.9810   -0.8970 os        1 XP4     -0.564200
      6 C1          2.3650   -0.6410   -1.4330 c3        1 XP4      0.234400
      7 C2          1.9710   -1.5260   -2.6470 c3        1 XP4      0.091100
      8 C3          3.1100   -1.8110   -3.6230 c3        1 XP4      0.144400
      9 O5          3.9460   -2.8490   -3.1200 os        1 XP4     -0.457900
     10 C4          5.2360   -2.4970   -2.7620 c         1 XP4      0.697100
     11 O6          5.8210   -1.7160   -3.5250 o         1 XP4     -0.613000
     12 C5          5.6940   -3.1640   -1.5250 c3        1 XP4     -0.218400
     13 C6          7.1880   -3.1140   -1.3260 c3        1 XP4     -0.037400
     14 C7          7.5120   -3.3380    0.1370 c3        1 XP4     -0.115400
     15 C8          8.9610   -3.0290    0.4390 c3        1 XP4     -0.064400
     16 C9          9.2600   -3.2210    1.9110 c3        1 XP4     -0.082400
     17 C10        10.6950   -2.8690    2.2380 c3        1 XP4     -0.076400
     18 C11        10.9880   -3.0590    3.7110 c3        1 XP4     -0.080400
     19 C12        12.4210   -2.7020    4.0420 c3        1 XP4     -0.077400
     20 C13        12.7110   -2.8910    5.5150 c3        1 XP4     -0.079400
     21 C14        14.1430   -2.5320    5.8470 c3        1 XP4     -0.078400
     22 C15        14.4320   -2.7210    7.3200 c3        1 XP4     -0.079400
     23 C16        15.8650   -2.3630    7.6540 c3        1 XP4     -0.080400
     24 C17        16.1570   -2.5490    9.1200 c3        1 XP4     -0.091100
     25 O7          1.4660   -2.7550   -2.0910 os        1 XP4     -0.348900
     26 C18         0.6250   -3.5090   -2.8240 c         1 XP4      0.630100
     27 O8          0.2390   -3.1440   -3.9460 o         1 XP4     -0.623000
     28 C19         0.2490   -4.7760   -2.1080 c3        1 XP4     -0.139400
     29 C20        -1.1710   -5.1890   -2.4260 c3        1 XP4     -0.074400
     30 C21        -1.4980   -6.5280   -1.8010 c3        1 XP4     -0.079400
     31 C22        -2.9250   -6.9370   -2.0970 c3        1 XP4     -0.077400
     32 C23        -3.2540   -8.2770   -1.4760 c3        1 XP4     -0.079400
     33 C24        -4.6810   -8.6870   -1.7710 c3        1 XP4     -0.078400
     34 C25        -5.0090  -10.0280   -1.1500 c3        1 XP4     -0.079400
     35 C26        -6.4360  -10.4370   -1.4450 c3        1 XP4     -0.078400
     36 C27        -6.7630  -11.7780   -0.8240 c3        1 XP4     -0.079400
     37 C28        -8.1900  -12.1880   -1.1190 c3        1 XP4     -0.078400
     38 C29        -8.5180  -13.5290   -0.4990 c3        1 XP4     -0.079400
     39 C30        -9.9450  -13.9400   -0.7930 c3        1 XP4     -0.080400
     40 C31       -10.2750  -15.2750   -0.1780 c3        1 XP4     -0.091100
     41 H2          1.5440   -0.7120   -0.6620 h1        1 XP4      0.012700
     42 H3          2.3960    0.4050   -1.8730 h1        1 XP4      0.012700
     43 H4          1.1410   -1.0230   -3.2190 h1        1 XP4      0.023700
     44 H5          3.6890   -0.8680   -3.7970 h1        1 XP4      0.042700
     45 H6          2.6990   -2.2080   -4.5910 h1        1 XP4      0.042700
     46 H7          5.3030   -4.2090   -1.4750 hc        1 XP4      0.152700
     47 H8          5.1680   -2.5780   -0.6480 hc        1 XP4      0.152700
     48 H9          7.7030   -3.8830   -1.9610 hc        1 XP4      0.013200
     49 H10         7.5690   -2.1090   -1.6490 hc        1 XP4      0.013200
     50 H11         7.2900   -4.4010    0.4120 hc        1 XP4      0.090200
     51 H12         6.8220   -2.6830    0.7590 hc        1 XP4      0.090200
     52 H13         9.1840   -1.9670    0.1500 hc        1 XP4      0.016700
     53 H14         9.6360   -3.6860   -0.1710 hc        1 XP4      0.016700
     54 H15         9.0590   -4.2860    2.1990 hc        1 XP4      0.048700
     55 H16         8.5620   -2.5780    2.5120 hc        1 XP4      0.048700
     56 H17        11.3900   -3.5090    1.6320 hc        1 XP4      0.029200
     57 H18        10.8930   -1.8030    1.9500 hc        1 XP4      0.029200
     58 H19        10.7900   -4.1250    3.9990 hc        1 XP4      0.040700
     59 H20        10.2900   -2.4190    4.3140 hc        1 XP4      0.040700
     60 H21        13.1170   -3.3400    3.4370 hc        1 XP4      0.033700
     61 H22        12.6170   -1.6350    3.7540 hc        1 XP4      0.033700
     62 H23        12.5130   -3.9570    5.8030 hc        1 XP4      0.039700
     63 H24        12.0140   -2.2510    6.1190 hc        1 XP4      0.039700
     64 H25        14.8400   -3.1710    5.2420 hc        1 XP4      0.036200
     65 H26        14.3400   -1.4660    5.5590 hc        1 XP4      0.036200
     66 H27        13.7350   -2.0820    7.9240 hc        1 XP4      0.038700
     67 H28        14.2350   -3.7870    7.6090 hc        1 XP4      0.038700
     68 H29        16.5600   -3.0020    7.0470 hc        1 XP4      0.036200
     69 H30        16.0600   -1.2970    7.3630 hc        1 XP4      0.036200
     70 H31        17.2170   -2.2790    9.3440 hc        1 XP4      0.028033
     71 H32        15.4890   -1.9020    9.7390 hc        1 XP4      0.028033
     72 H33        15.9910   -3.6110    9.4230 hc        1 XP4      0.028033
     73 H34         0.9740   -5.5690   -2.4310 hc        1 XP4      0.084200
     74 H35         0.3840   -4.6220   -1.0020 hc        1 XP4      0.084200
     75 H36        -1.3040   -5.2400   -3.5390 hc        1 XP4      0.047200
     76 H37        -1.8800   -4.4090   -2.0440 hc        1 XP4      0.047200
     77 H38        -0.7940   -7.3090   -2.1920 hc        1 XP4      0.040700
     78 H39        -1.3450   -6.4700   -0.6910 hc        1 XP4      0.040700
     79 H40        -3.6280   -6.1570   -1.7030 hc        1 XP4      0.036700
     80 H41        -3.0780   -6.9890   -3.2080 hc        1 XP4      0.036700
     81 H42        -3.0990   -8.2240   -0.3660 hc        1 XP4      0.039200
     82 H43        -2.5490   -9.0570   -1.8690 hc        1 XP4      0.039200
     83 H44        -4.8350   -8.7390   -2.8810 hc        1 XP4      0.037200
     84 H45        -5.3840   -7.9070   -1.3760 hc        1 XP4      0.037200
     85 H46        -4.8550   -9.9750   -0.0400 hc        1 XP4      0.039200
     86 H47        -4.3040  -10.8070   -1.5440 hc        1 XP4      0.039200
     87 H48        -6.5900  -10.4890   -2.5550 hc        1 XP4      0.037700
     88 H49        -7.1390   -9.6580   -1.0500 hc        1 XP4      0.037700
     89 H50        -6.6090  -11.7260    0.2860 hc        1 XP4      0.038700
     90 H51        -6.0590  -12.5570   -1.2180 hc        1 XP4      0.038700
     91 H52        -8.8940  -11.4090   -0.7250 hc        1 XP4      0.038200
     92 H53        -8.3440  -12.2390   -2.2300 hc        1 XP4      0.038200
     93 H54        -8.3640  -13.4770    0.6110 hc        1 XP4      0.039200
     94 H55        -7.8140  -14.3080   -0.8940 hc        1 XP4      0.039200
     95 H56       -10.6470  -13.1590   -0.3990 hc        1 XP4      0.037200
     96 H57       -10.0970  -13.9890   -1.9040 hc        1 XP4      0.037200
     97 H58       -10.1520  -15.2380    0.9320 hc        1 XP4      0.029700
     98 H59       -11.3310  -15.5590   -0.4070 hc        1 XP4      0.029700
     99 H60        -9.6010  -16.0710   -0.5780 hc        1 XP4      0.029700
@<TRIPOS>BOND
     1    1    3 1   
     2    2    3 1   
     3    3    4 1   
     4    3    5 1   
     5    5    6 1   
     6    6    7 1   
     7    6   41 1   
     8    6   42 1   
     9    7    8 1   
    10    7   25 1   
    11    7   43 1   
    12    8    9 1   
    13    8   44 1   
    14    8   45 1   
    15    9   10 1   
    16   10   11 2   
    17   10   12 1   
    18   12   13 1   
    19   12   46 1   
    20   12   47 1   
    21   13   14 1   
    22   13   48 1   
    23   13   49 1   
    24   14   15 1   
    25   14   50 1   
    26   14   51 1   
    27   15   16 1   
    28   15   52 1   
    29   15   53 1   
    30   16   17 1   
    31   16   54 1   
    32   16   55 1   
    33   17   18 1   
    34   17   56 1   
    35   17   57 1   
    36   18   19 1   
    37   18   58 1   
    38   18   59 1   
    39   19   20 1   
    40   19   60 1   
    41   19   61 1   
    42   20   21 1   
    43   20   62 1   
    44   20   63 1   
    45   21   22 1   
    46   21   64 1   
    47   21   65 1   
    48   22   23 1   
    49   22   66 1   
    50   22   67 1   
    51   23   24 1   
    52   23   68 1   
    53   23   69 1   
    54   24   70 1   
    55   24   71 1   
    56   24   72 1   
    57   25   26 1   
    58   26   27 2   
    59   26   28 1   
    60   28   29 1   
    61   28   73 1   
    62   28   74 1   
    63   29   30 1   
    64   29   75 1   
    65   29   76 1   
    66   30   31 1   
    67   30   77 1   
    68   30   78 1   
    69   31   32 1   
    70   31   79 1   
    71   31   80 1   
    72   32   33 1   
    73   32   81 1   
    74   32   82 1   
    75   33   34 1   
    76   33   83 1   
    77   33   84 1   
    78   34   35 1   
    79   34   85 1   
    80   34   86 1   
    81   35   36 1   
    82   35   87 1   
    83   35   88 1   
    84   36   37 1   
    85   36   89 1   
    86   36   90 1   
    87   37   38 1   
    88   37   91 1   
    89   37   92 1   
    90   38   39 1   
    91   38   93 1   
    92   38   94 1   
    93   39   40 1   
    94   39   95 1   
    95   39   96 1   
    96   40   97 1   
    97   40   98 1   
    98   40   99 1   
@<TRIPOS>SUBSTRUCTURE
     1 XP4         1 TEMP              0 ****  ****    0 ROOT
