@<TRIPOS>MOLECULE
XP4
   99    98     1     0     0
SMALL
bcc


@<TRIPOS>ATOM
      1 O1         -1.5270   -3.5960   -0.9530 o         1 XP4     -0.848000
      2 O2         -2.3090   -1.2400   -0.0820 o         1 XP4     -0.848000
      3 P1         -1.3130   -2.3230   -0.2330 p5        1 XP4      1.438800
      4 O3         -0.8730   -2.6410    1.3120 oh        1 XP4     -0.784400
      5 O4          0.0900   -1.6250   -0.7290 os        1 XP4     -0.592200
      6 C1          1.2460   -2.4090   -0.7360 c3        1 XP4      0.192400
      7 C2          1.8290   -2.4750   -2.1590 c3        1 XP4      0.121100
      8 C3          3.3330   -2.2120   -2.2350 c3        1 XP4      0.150400
      9 O5          4.0140   -3.0070   -1.2800 os        1 XP4     -0.477900
     10 C4          5.4260   -2.9030   -1.2970 c2        1 XP4      0.432100
     11 O6          5.8660   -2.0800   -2.1480 o         1 XP4     -0.574000
     12 C5          6.0590   -3.7210   -0.3790 c2        1 XP4     -0.601200
     13 C6          7.5160   -3.7500   -0.2570 c3        1 XP4      0.076800
     14 C7          7.9830   -3.3680    1.1430 c3        1 XP4     -0.084400
     15 C8          9.4910   -3.4380    1.2700 c3        1 XP4     -0.078400
     16 C9          9.9520   -3.0550    2.6610 c3        1 XP4     -0.079400
     17 C10        11.4590   -3.1240    2.7850 c3        1 XP4     -0.078400
     18 C11        11.9180   -2.7400    4.1760 c3        1 XP4     -0.079400
     19 C12        13.4250   -2.8090    4.3000 c3        1 XP4     -0.078400
     20 C13        13.8830   -2.4250    5.6910 c3        1 XP4     -0.079400
     21 C14        15.3890   -2.4940    5.8150 c3        1 XP4     -0.078400
     22 C15        15.8460   -2.1100    7.2060 c3        1 XP4     -0.079400
     23 C16        17.3540   -2.1790    7.3310 c3        1 XP4     -0.080400
     24 C17        17.8130   -1.7970    8.7140 c3        1 XP4     -0.091100
     25 O7          1.5540   -3.8160   -2.6220 os        1 XP4     -0.405900
     26 C18         1.0350   -3.9930   -3.8590 c         1 XP4      0.648100
     27 O8          1.0380   -3.0750   -4.6890 o         1 XP4     -0.592000
     28 C19         0.5030   -5.3860   -4.0550 c3        1 XP4     -0.121400
     29 C20        -0.9330   -5.4470   -3.5750 c3        1 XP4     -0.111400
     30 C21        -1.4310   -6.8740   -3.5180 c3        1 XP4     -0.061400
     31 C22        -2.8440   -6.9170   -2.9740 c3        1 XP4     -0.087400
     32 C23        -3.3290   -8.3410   -2.8050 c3        1 XP4     -0.074400
     33 C24        -4.7430   -8.3770   -2.2660 c3        1 XP4     -0.080400
     34 C25        -5.2280   -9.7990   -2.0820 c3        1 XP4     -0.077400
     35 C26        -6.6420   -9.8330   -1.5420 c3        1 XP4     -0.079400
     36 C27        -7.1280  -11.2550   -1.3560 c3        1 XP4     -0.078400
     37 C28        -8.5410  -11.2880   -0.8160 c3        1 XP4     -0.079400
     38 C29        -9.0270  -12.7090   -0.6300 c3        1 XP4     -0.078400
     39 C30       -10.4410  -12.7420   -0.0900 c3        1 XP4     -0.081400
     40 C31       -10.9300  -14.1550    0.0980 c3        1 XP4     -0.091100
     41 H2          1.0170   -3.4450   -0.3630 h1        1 XP4      0.051700
     42 H3          2.0140   -1.9260   -0.0690 h1        1 XP4      0.051700
     43 H4          1.3080   -1.7300   -2.8220 h1        1 XP4      0.074700
     44 H5          3.5220   -1.1260   -2.0220 h1        1 XP4      0.030700
     45 H6          3.7070   -2.4500   -3.2660 h1        1 XP4      0.030700
     46 H7          5.4710   -4.3700    0.2710 ha        1 XP4      0.099000
     47 H8         -1.0620   -1.9090    1.8860 ho        1 XP4      0.419000
     48 H9          7.9870   -3.0510   -1.0010 hc        1 XP4     -0.008800
     49 H10         7.9180   -4.7820   -0.4770 hc        1 XP4     -0.008800
     50 H11         7.5110   -4.0540    1.8930 hc        1 XP4      0.028200
     51 H12         7.6320   -2.3300    1.3750 hc        1 XP4      0.028200
     52 H13         9.9600   -2.7520    0.5170 hc        1 XP4      0.025700
     53 H14         9.8410   -4.4770    1.0330 hc        1 XP4      0.025700
     54 H15         9.4810   -3.7400    3.4130 hc        1 XP4      0.034700
     55 H16         9.6020   -2.0160    2.8970 hc        1 XP4      0.034700
     56 H17        11.9290   -2.4380    2.0320 hc        1 XP4      0.033200
     57 H18        11.8090   -4.1630    2.5480 hc        1 XP4      0.033200
     58 H19        11.5680   -1.7010    4.4130 hc        1 XP4      0.037200
     59 H20        11.4470   -3.4260    4.9290 hc        1 XP4      0.037200
     60 H21        13.8950   -2.1230    3.5470 hc        1 XP4      0.036200
     61 H22        13.7740   -3.8490    4.0630 hc        1 XP4      0.036200
     62 H23        13.5330   -1.3860    5.9280 hc        1 XP4      0.038200
     63 H24        13.4110   -3.1110    6.4440 hc        1 XP4      0.038200
     64 H25        15.8600   -1.8080    5.0620 hc        1 XP4      0.037200
     65 H26        15.7390   -3.5340    5.5780 hc        1 XP4      0.037200
     66 H27        15.3760   -2.7960    7.9590 hc        1 XP4      0.038700
     67 H28        15.4970   -1.0710    7.4430 hc        1 XP4      0.038700
     68 H29        17.8220   -1.4940    6.5760 hc        1 XP4      0.036700
     69 H30        17.7010   -3.2190    7.0920 hc        1 XP4      0.036700
     70 H31        17.4970   -0.7550    8.9610 hc        1 XP4      0.029033
     71 H32        17.3750   -2.4850    9.4780 hc        1 XP4      0.029033
     72 H33        18.9260   -1.8550    8.7850 hc        1 XP4      0.029033
     73 H34         0.5760   -5.6480   -5.1410 hc        1 XP4      0.052200
     74 H35         1.1360   -6.1030   -3.4690 hc        1 XP4      0.052200
     75 H36        -1.5830   -4.8460   -4.2640 hc        1 XP4      0.097700
     76 H37        -1.0120   -4.9700   -2.5500 hc        1 XP4      0.097700
     77 H38        -0.7580   -7.4800   -2.8550 hc        1 XP4      0.019200
     78 H39        -1.4000   -7.3390   -4.5380 hc        1 XP4      0.019200
     79 H40        -3.5300   -6.3660   -3.6700 hc        1 XP4      0.059700
     80 H41        -2.8740   -6.3790   -1.9880 hc        1 XP4      0.059700
     81 H42        -3.2880   -8.8760   -3.7900 hc        1 XP4      0.027700
     82 H43        -2.6460   -8.8880   -2.1030 hc        1 XP4      0.027700
     83 H44        -4.7820   -7.8350   -1.2850 hc        1 XP4      0.043700
     84 H45        -5.4280   -7.8340   -2.9700 hc        1 XP4      0.043700
     85 H46        -4.5440  -10.3400   -1.3760 hc        1 XP4      0.033700
     86 H47        -5.1870  -10.3420   -3.0630 hc        1 XP4      0.033700
     87 H48        -7.3260   -9.2910   -2.2470 hc        1 XP4      0.040200
     88 H49        -6.6820   -9.2900   -0.5610 hc        1 XP4      0.040200
     89 H50        -6.4430  -11.7960   -0.6500 hc        1 XP4      0.036200
     90 H51        -7.0870  -11.7980   -2.3370 hc        1 XP4      0.036200
     91 H52        -9.2260  -10.7460   -1.5220 hc        1 XP4      0.039700
     92 H53        -8.5810  -10.7440    0.1650 hc        1 XP4      0.039700
     93 H54        -8.3430  -13.2500    0.0760 hc        1 XP4      0.037200
     94 H55        -8.9870  -13.2520   -1.6100 hc        1 XP4      0.037200
     95 H56       -11.1230  -12.1980   -0.7950 hc        1 XP4      0.038200
     96 H57       -10.4790  -12.1970    0.8900 hc        1 XP4      0.038200
     97 H58       -11.9730  -14.1570    0.4970 hc        1 XP4      0.028367
     98 H59       -10.9220  -14.7070   -0.8730 hc        1 XP4      0.028367
     99 H60       -10.2760  -14.7060    0.8180 hc        1 XP4      0.028367
@<TRIPOS>BOND
     1    1    3 1   
     2    2    3 1   
     3    3    4 1   
     4    3    5 1   
     5    4   47 1   
     6    5    6 1   
     7    6    7 1   
     8    6   41 1   
     9    6   42 1   
    10    7    8 1   
    11    7   25 1   
    12    7   43 1   
    13    8    9 1   
    14    8   44 1   
    15    8   45 1   
    16    9   10 1   
    17   10   11 1   
    18   10   12 2   
    19   12   13 1   
    20   12   46 1   
    21   13   14 1   
    22   13   48 1   
    23   13   49 1   
    24   14   15 1   
    25   14   50 1   
    26   14   51 1   
    27   15   16 1   
    28   15   52 1   
    29   15   53 1   
    30   16   17 1   
    31   16   54 1   
    32   16   55 1   
    33   17   18 1   
    34   17   56 1   
    35   17   57 1   
    36   18   19 1   
    37   18   58 1   
    38   18   59 1   
    39   19   20 1   
    40   19   60 1   
    41   19   61 1   
    42   20   21 1   
    43   20   62 1   
    44   20   63 1   
    45   21   22 1   
    46   21   64 1   
    47   21   65 1   
    48   22   23 1   
    49   22   66 1   
    50   22   67 1   
    51   23   24 1   
    52   23   68 1   
    53   23   69 1   
    54   24   70 1   
    55   24   71 1   
    56   24   72 1   
    57   25   26 1   
    58   26   27 2   
    59   26   28 1   
    60   28   29 1   
    61   28   73 1   
    62   28   74 1   
    63   29   30 1   
    64   29   75 1   
    65   29   76 1   
    66   30   31 1   
    67   30   77 1   
    68   30   78 1   
    69   31   32 1   
    70   31   79 1   
    71   31   80 1   
    72   32   33 1   
    73   32   81 1   
    74   32   82 1   
    75   33   34 1   
    76   33   83 1   
    77   33   84 1   
    78   34   35 1   
    79   34   85 1   
    80   34   86 1   
    81   35   36 1   
    82   35   87 1   
    83   35   88 1   
    84   36   37 1   
    85   36   89 1   
    86   36   90 1   
    87   37   38 1   
    88   37   91 1   
    89   37   92 1   
    90   38   39 1   
    91   38   93 1   
    92   38   94 1   
    93   39   40 1   
    94   39   95 1   
    95   39   96 1   
    96   40   97 1   
    97   40   98 1   
    98   40   99 1   
@<TRIPOS>SUBSTRUCTURE
     1 XP4         1 TEMP              0 ****  ****    0 ROOT
