@<TRIPOS>MOLECULE
XP5
   76    75     1     0     0
SMALL
bcc


@<TRIPOS>ATOM
      1 O1         -1.2810   -1.5170   -3.0410 o         1 XP5     -0.826000
      2 O2         -0.3160   -2.6540   -0.8560 o         1 XP5     -0.826000
      3 P1         -0.6140   -1.5020   -1.7380 p5        1 XP5      1.438800
      4 O3         -1.5990   -0.6050   -0.6910 os        1 XP5     -0.560200
      5 C1         -2.4660   -1.3380    0.0870 c3        1 XP5      0.219400
      6 C2         -1.9440   -1.3800    1.5490 c3        1 XP5      0.081800
      7 N1         -1.9230   -2.7340    2.2110 n4        1 XP5     -0.591800
      8 C3         -1.0050   -3.6840    1.5080 c3        1 XP5      0.091100
      9 C4         -1.4380   -2.5540    3.6110 c3        1 XP5      0.091100
     10 C5         -3.2980   -3.3050    2.2430 c3        1 XP5      0.091100
     11 O4          0.6560   -0.4840   -1.7510 os        1 XP5     -0.556200
     12 C6          0.4540    0.6510   -2.5480 c3        1 XP5      0.166400
     13 C8          0.8860    3.1050   -1.9780 c3        1 XP5      0.127400
     14 O5         -0.1540    3.0470   -1.0000 os        1 XP5     -0.435900
     15 C9         -1.4540    3.1560   -1.4230 c         1 XP5      0.641100
     16 O6         -1.6780    3.5990   -2.5500 o         1 XP5     -0.543000
     17 C10        -2.4190    2.6900   -0.3790 c3        1 XP5     -0.140400
     18 C11        -3.8230    3.1780   -0.6580 c3        1 XP5     -0.079400
     19 C12        -4.8090    2.5500    0.3020 c3        1 XP5     -0.074400
     20 C13        -6.2190    3.0270    0.0260 c3        1 XP5     -0.081400
     21 C14        -7.2100    2.4040    0.9860 c3        1 XP5     -0.077400
     22 C15        -8.6150    2.8770    0.7140 c3        1 XP5     -0.093100
     23 O7          3.8470    0.4590   -2.1310 o         1 XP5     -0.549000
     24 O8          2.1560    1.3750   -0.9680 os        1 XP5     -0.416900
     25 C18         3.6870    0.0630    0.2930 c3        1 XP5     -0.127400
     26 C19         5.1920   -0.0480    0.4110 c3        1 XP5     -0.080400
     27 C20         5.5820   -0.7370    1.7010 c3        1 XP5     -0.077400
     28 C21         7.0870   -0.8330    1.8340 c3        1 XP5     -0.080400
     29 C22         7.4840   -1.5260    3.1200 c3        1 XP5     -0.079400
     30 C23         8.9810   -1.6230    3.2560 c3        1 XP5     -0.093100
     31 CAM         1.4980    1.7180   -2.1970 c3        1 XP5      0.121100
     32 H11C       -3.4620   -0.8080    0.1050 h1        1 XP5      0.036700
     33 H12C       -2.5990   -2.3740   -0.3320 h1        1 XP5      0.036700
     34 H21C       -0.8880   -0.9840    1.5660 hx        1 XP5      0.090700
     35 H22C       -2.5930   -0.7190    2.1880 hx        1 XP5      0.090700
     36 H31C       -0.0230   -3.1750    1.2930 hx        1 XP5      0.097144
     37 H32C       -0.8630   -4.5890    2.1500 hx        1 XP5      0.097144
     38 H33C       -1.4360   -3.9740    0.5090 hx        1 XP5      0.097144
     39 H41C       -2.1000   -1.8280    4.1510 hx        1 XP5      0.097144
     40 H42C       -1.4530   -3.5410    4.1420 hx        1 XP5      0.097144
     41 H43C       -0.3880   -2.1590    3.5840 hx        1 XP5      0.097144
     42 H51C       -3.6760   -3.4180    1.1920 hx        1 XP5      0.097144
     43 H52C       -3.2720   -4.3100    2.7400 hx        1 XP5      0.097144
     44 H53C       -3.9760   -2.6170    2.8120 hx        1 XP5      0.097144
     45 H61C        0.5470    0.3540   -3.6280 h1        1 XP5      0.045200
     46 H62C       -0.5880    1.0420   -2.3690 h1        1 XP5      0.045200
     47 HAM         2.2590    1.7930   -3.0250 h1        1 XP5      0.081700
     48 H81C        0.5100    3.5060   -2.9550 h1        1 XP5      0.075200
     49 H82C        1.6500    3.7960   -1.5320 h1        1 XP5      0.075200
     50 H101       -2.3790    1.5610   -0.3890 hc        1 XP5      0.089200
     51 H102       -2.0690    3.0360    0.6290 hc        1 XP5      0.089200
     52 H111       -3.8600    4.2960   -0.5680 hc        1 XP5      0.059700
     53 H112       -4.1020    2.9240   -1.7160 hc        1 XP5      0.059700
     54 H121       -4.7640    1.4330    0.2080 hc        1 XP5      0.031700
     55 H122       -4.5250    2.8070    1.3570 hc        1 XP5      0.031700
     56 H131       -6.2620    4.1440    0.1150 hc        1 XP5      0.046200
     57 H132       -6.5030    2.7680   -1.0280 hc        1 XP5      0.046200
     58 H141       -7.1660    1.2860    0.8950 hc        1 XP5      0.032200
     59 H142       -6.9240    2.6620    2.0400 hc        1 XP5      0.032200
     60 H151       -8.9270    2.6080   -0.3240 hc        1 XP5      0.034367
     61 H152       -9.3300    2.4060    1.4310 hc        1 XP5      0.034367
     62 H153       -8.6850    3.9870    0.8230 hc        1 XP5      0.034367
     63 H181        3.2730    0.7170    1.1040 hc        1 XP5      0.075700
     64 H182        3.2080   -0.9490    0.3870 hc        1 XP5      0.075700
     65 H191        5.5930   -0.6200   -0.4680 hc        1 XP5      0.057700
     66 H192        5.6490    0.9760    0.3740 hc        1 XP5      0.057700
     67 H201        5.1630   -0.1700    2.5740 hc        1 XP5      0.035700
     68 H202        5.1360   -1.7660    1.7280 hc        1 XP5      0.035700
     69 H211        7.5060   -1.3960    0.9590 hc        1 XP5      0.043700
     70 H212        7.5340    0.1960    1.8090 hc        1 XP5      0.043700
     71 H221        7.0610   -0.9630    3.9940 hc        1 XP5      0.035700
     72 H222        7.0360   -2.5550    3.1430 hc        1 XP5      0.035700
     73 H231        9.4180   -2.2020    2.4070 hc        1 XP5      0.033033
     74 H232        9.4430   -0.6060    3.2600 hc        1 XP5      0.033033
     75 H233        9.2520   -2.1370    4.2100 hc        1 XP5      0.033033
     76 C17         3.2850    0.6060   -1.0440 c         1 XP5      0.654100
@<TRIPOS>BOND
     1    1    3 1   
     2    2    3 1   
     3    3    4 1   
     4    3   11 1   
     5    4    5 1   
     6    5    6 1   
     7    5   32 1   
     8    5   33 1   
     9    6    7 1   
    10    6   34 1   
    11    6   35 1   
    12    7    8 1   
    13    7    9 1   
    14    7   10 1   
    15    8   36 1   
    16    8   37 1   
    17    8   38 1   
    18    9   39 1   
    19    9   40 1   
    20    9   41 1   
    21   10   42 1   
    22   10   43 1   
    23   10   44 1   
    24   11   12 1   
    25   12   31 1   
    26   12   45 1   
    27   12   46 1   
    28   13   14 1   
    29   13   31 1   
    30   13   48 1   
    31   13   49 1   
    32   14   15 1   
    33   15   16 2   
    34   15   17 1   
    35   17   18 1   
    36   17   50 1   
    37   17   51 1   
    38   18   19 1   
    39   18   52 1   
    40   18   53 1   
    41   19   20 1   
    42   19   54 1   
    43   19   55 1   
    44   20   21 1   
    45   20   56 1   
    46   20   57 1   
    47   21   22 1   
    48   21   58 1   
    49   21   59 1   
    50   22   60 1   
    51   22   61 1   
    52   22   62 1   
    53   23   76 2   
    54   24   31 1   
    55   24   76 1   
    56   25   26 1   
    57   25   63 1   
    58   25   64 1   
    59   25   76 1   
    60   26   27 1   
    61   26   65 1   
    62   26   66 1   
    63   27   28 1   
    64   27   67 1   
    65   27   68 1   
    66   28   29 1   
    67   28   69 1   
    68   28   70 1   
    69   29   30 1   
    70   29   71 1   
    71   29   72 1   
    72   30   73 1   
    73   30   74 1   
    74   30   75 1   
    75   31   47 1   
@<TRIPOS>SUBSTRUCTURE
     1 XP5         1 TEMP              0 ****  ****    0 ROOT
