@<TRIPOS>MOLECULE
XP5
   76    75     1     0     0
SMALL
bcc


@<TRIPOS>ATOM
      1 O1         -0.3210    0.8300    0.1490 o         1 XP5     -0.826000
      2 O2          1.7960   -0.7530    0.2590 o         1 XP5     -0.826000
      3 P1          1.1140    0.5490    0.0780 p5        1 XP5      1.437800
      4 O3          1.8480    1.4180    1.3330 os        1 XP5     -0.560200
      5 C1          2.0630    0.7170    2.4980 c3        1 XP5      0.219400
      6 C2          3.5720    0.3780    2.6300 c3        1 XP5      0.081800
      7 N1          3.9070   -1.0480    2.9890 n4        1 XP5     -0.591800
      8 C3          3.4450   -2.0090    1.9400 c3        1 XP5      0.091100
      9 C4          5.3910   -1.1550    3.1110 c3        1 XP5      0.091100
     10 C5          3.2850   -1.4020    4.2940 c3        1 XP5      0.091100
     11 O4          1.7990    1.3550   -1.1590 os        1 XP5     -0.556200
     12 C6          1.2260    2.6130   -1.3920 c3        1 XP5      0.166400
     13 C8          2.3930    4.8600   -1.7440 c3        1 XP5      0.128400
     14 O5          2.8580    4.8130   -0.3940 os        1 XP5     -0.434900
     15 C9          1.9950    5.1810    0.6070 c         1 XP5      0.641100
     16 O6          0.9810    5.8160    0.3150 o         1 XP5     -0.544000
     17 C10         2.4680    4.7150    1.9480 c3        1 XP5     -0.140400
     18 C11         1.7700    5.4480    3.0710 c3        1 XP5     -0.079400
     19 C12         2.1260    4.8390    4.4100 c3        1 XP5     -0.074400
     20 C13         1.4260    5.5600    5.5420 c3        1 XP5     -0.081400
     21 C14         1.7800    4.9570    6.8850 c3        1 XP5     -0.077400
     22 C15         1.0860    5.6740    8.0130 c3        1 XP5     -0.093100
     23 O7          2.8740    1.8470   -4.2910 o         1 XP5     -0.549000
     24 O8          3.4520    2.8270   -2.3530 os        1 XP5     -0.416900
     25 C18         4.9200    1.1240   -3.1270 c3        1 XP5     -0.127400
     26 C19         5.5840    0.7680   -4.4390 c3        1 XP5     -0.080400
     27 C20         6.7620   -0.1560   -4.2140 c3        1 XP5     -0.077400
     28 C21         7.4420   -0.5000   -5.5220 c3        1 XP5     -0.080400
     29 C22         8.6180   -1.4280   -5.3030 c3        1 XP5     -0.079400
     30 C23         9.2990   -1.7720   -6.6030 c3        1 XP5     -0.093100
     31 CAM         2.1580    3.4450   -2.2820 c3        1 XP5      0.121100
     32 H11C        1.7950    1.3830    3.3690 h1        1 XP5      0.036700
     33 H12C        1.4290   -0.2120    2.5270 h1        1 XP5      0.036700
     34 H21C        4.0790    0.6020    1.6480 hx        1 XP5      0.090700
     35 H22C        4.0240    1.0250    3.4310 hx        1 XP5      0.090700
     36 H31C        3.7370   -1.6290    0.9200 hx        1 XP5      0.097144
     37 H32C        2.3210   -2.0770    1.9410 hx        1 XP5      0.097144
     38 H33C        3.8980   -3.0120    2.1450 hx        1 XP5      0.097144
     39 H41C        5.7610   -0.4260    3.8780 hx        1 XP5      0.097144
     40 H42C        5.8560   -0.9240    2.1160 hx        1 XP5      0.097144
     41 H43C        5.6660   -2.1970    3.4200 hx        1 XP5      0.097144
     42 H51C        3.5420   -2.4620    4.5540 hx        1 XP5      0.097144
     43 H52C        3.6670   -0.7120    5.0910 hx        1 XP5      0.097144
     44 H53C        2.1700   -1.2980    4.2140 hx        1 XP5      0.097144
     45 H61C        1.0600    3.1270   -0.4030 h1        1 XP5      0.045200
     46 H62C        0.2320    2.4690   -1.8950 h1        1 XP5      0.045200
     47 HAM         1.7210    3.5280   -3.3170 h1        1 XP5      0.081700
     48 H81C        1.4470    5.4550   -1.8330 h1        1 XP5      0.075200
     49 H82C        3.2280    5.3520   -2.3100 h1        1 XP5      0.075200
     50 H101        2.2490    3.6080    1.9960 hc        1 XP5      0.089200
     51 H102        3.5790    4.8470    2.0140 hc        1 XP5      0.089200
     52 H111        2.0590    6.5310    3.0550 hc        1 XP5      0.059700
     53 H112        0.6590    5.4020    2.9120 hc        1 XP5      0.059700
     54 H121        1.8350    3.7540    4.4180 hc        1 XP5      0.031700
     55 H122        3.2360    4.8860    4.5640 hc        1 XP5      0.031700
     56 H131        1.7130    6.6450    5.5300 hc        1 XP5      0.046200
     57 H132        0.3160    5.5110    5.3890 hc        1 XP5      0.046200
     58 H141        2.8910    5.0050    7.0350 hc        1 XP5      0.032200
     59 H142        1.4920    3.8730    6.8940 hc        1 XP5      0.032200
     60 H151        1.3790    6.7520    8.0350 hc        1 XP5      0.034367
     61 H152       -0.0230    5.6170    7.8930 hc        1 XP5      0.034367
     62 H153        1.3590    5.2150    8.9930 hc        1 XP5      0.034367
     63 H181        4.6200    0.1950   -2.5710 hc        1 XP5      0.075700
     64 H182        5.6200    1.7060   -2.4730 hc        1 XP5      0.075700
     65 H191        4.8340    0.2780   -5.1150 hc        1 XP5      0.057700
     66 H192        5.9290    1.7040   -4.9530 hc        1 XP5      0.057700
     67 H201        7.4990    0.3330   -3.5240 hc        1 XP5      0.035700
     68 H202        6.4120   -1.0970   -3.7140 hc        1 XP5      0.035700
     69 H211        7.7940    0.4410   -6.0220 hc        1 XP5      0.043700
     70 H212        6.7040   -0.9850   -6.2130 hc        1 XP5      0.043700
     71 H221        9.3540   -0.9420   -4.6100 hc        1 XP5      0.035700
     72 H222        8.2640   -2.3680   -4.8030 hc        1 XP5      0.035700
     73 H231       10.1620   -2.4570   -6.4200 hc        1 XP5      0.033033
     74 H232        9.6810   -0.8500   -7.1050 hc        1 XP5      0.033033
     75 H233        8.5870   -2.2790   -7.2990 hc        1 XP5      0.033033
     76 C17         3.6660    1.9150   -3.3490 c         1 XP5      0.654100
@<TRIPOS>BOND
     1    1    3 1   
     2    2    3 1   
     3    3    4 1   
     4    3   11 1   
     5    4    5 1   
     6    5    6 1   
     7    5   32 1   
     8    5   33 1   
     9    6    7 1   
    10    6   34 1   
    11    6   35 1   
    12    7    8 1   
    13    7    9 1   
    14    7   10 1   
    15    8   36 1   
    16    8   37 1   
    17    8   38 1   
    18    9   39 1   
    19    9   40 1   
    20    9   41 1   
    21   10   42 1   
    22   10   43 1   
    23   10   44 1   
    24   11   12 1   
    25   12   31 1   
    26   12   45 1   
    27   12   46 1   
    28   13   14 1   
    29   13   31 1   
    30   13   48 1   
    31   13   49 1   
    32   14   15 1   
    33   15   16 2   
    34   15   17 1   
    35   17   18 1   
    36   17   50 1   
    37   17   51 1   
    38   18   19 1   
    39   18   52 1   
    40   18   53 1   
    41   19   20 1   
    42   19   54 1   
    43   19   55 1   
    44   20   21 1   
    45   20   56 1   
    46   20   57 1   
    47   21   22 1   
    48   21   58 1   
    49   21   59 1   
    50   22   60 1   
    51   22   61 1   
    52   22   62 1   
    53   23   76 2   
    54   24   31 1   
    55   24   76 1   
    56   25   26 1   
    57   25   63 1   
    58   25   64 1   
    59   25   76 1   
    60   26   27 1   
    61   26   65 1   
    62   26   66 1   
    63   27   28 1   
    64   27   67 1   
    65   27   68 1   
    66   28   29 1   
    67   28   69 1   
    68   28   70 1   
    69   29   30 1   
    70   29   71 1   
    71   29   72 1   
    72   30   73 1   
    73   30   74 1   
    74   30   75 1   
    75   31   47 1   
@<TRIPOS>SUBSTRUCTURE
     1 XP5         1 TEMP              0 ****  ****    0 ROOT
