@<TRIPOS>MOLECULE
XP8
   44    43     1     0     0
SMALL
bcc


@<TRIPOS>ATOM
      1 C           0.7470   -1.2920   -1.1150 c         1 XP8      0.910600
      2 N           2.3590    0.5950   -1.2400 n         1 XP8     -0.487900
      3 OXT        -0.0780   -0.7240   -1.8850 o         1 XP8     -0.851800
      4 P           1.6150    2.5940    1.8030 p5        1 XP8      1.426800
      5 C1          3.6590    0.7230   -1.6150 c         1 XP8      0.657100
      6 O1          4.5590   -0.1240   -1.3920 o         1 XP8     -0.681100
      7 C2          4.0190    1.9880   -2.3970 c3        1 XP8     -0.161400
      8 C3          3.4500    1.9490   -3.7980 c3        1 XP8     -0.077400
      9 C4          3.8070    3.2070   -4.5610 c3        1 XP8     -0.078400
     10 C5          3.2800    3.1600   -5.9800 c3        1 XP8     -0.080400
     11 C6          3.5680    4.4550   -6.7090 c3        1 XP8     -0.077400
     12 C7          3.1020    4.3940   -8.1500 c3        1 XP8     -0.074400
     13 C8          3.3260    5.7180   -8.8370 c3        1 XP8      0.019700
     14 S8          2.9070    5.5200  -10.5510 sh        1 XP8     -0.395900
     15 CA          1.8280   -0.4310   -0.3710 c3        1 XP8     -0.037300
     16 CB          1.1800    0.1730    0.9140 c3        1 XP8      0.191100
     17 CG          0.8210   -0.9670    1.8600 c3        1 XP8     -0.105100
     18 O1P         0.1670    2.6790    2.0810 o         1 XP8     -0.848000
     19 O2P         1.9240    3.1440    0.2850 oh        1 XP8     -0.785400
     20 O3P         2.6710    3.2500    2.6090 o         1 XP8     -0.848000
     21 O4P         2.0730    1.0390    1.5670 os        1 XP8     -0.590200
     22 O           0.7600   -2.5380   -0.8990 o         1 XP8     -0.851800
     23 HN          2.8370    3.3920    0.1970 ho        1 XP8      0.413000
     24 H2          5.1360    2.0560   -2.4380 hc        1 XP8      0.053200
     25 H2A         3.6360    2.8890   -1.8480 hc        1 XP8      0.053200
     26 H3          3.8490    1.0510   -4.3390 hc        1 XP8      0.055700
     27 H3A         2.3330    1.8400   -3.7540 hc        1 XP8      0.055700
     28 H4          3.3780    4.0980   -4.0300 hc        1 XP8      0.032700
     29 H4A         4.9210    3.3360   -4.5790 hc        1 XP8      0.032700
     30 H5          2.1740    2.9740   -5.9630 hc        1 XP8      0.044700
     31 H5A         3.7520    2.3030   -6.5280 hc        1 XP8      0.044700
     32 H6          4.6690    4.6670   -6.6800 hc        1 XP8      0.036200
     33 H6A         3.0530    5.3020   -6.1840 hc        1 XP8      0.036200
     34 H7          3.6600    3.5840   -8.6910 hc        1 XP8      0.057200
     35 H7A         2.0120    4.1280   -8.1820 hc        1 XP8      0.057200
     36 H8          2.6910    6.5090   -8.3730 h1        1 XP8      0.056700
     37 H8A         4.3940    6.0310   -8.7420 h1        1 XP8      0.056700
     38 HS8         3.0630    6.7700  -10.9440 hs        1 XP8      0.185800
     39 HA          2.6720   -1.1090   -0.0630 h1        1 XP8      0.075700
     40 HB          0.2490    0.7440    0.6260 h1        1 XP8      0.056700
     41 HG          0.2880   -1.7700    1.2960 hc        1 XP8      0.032367
     42 HGA         0.1680   -0.5880    2.6810 hc        1 XP8      0.032367
     43 HGB         1.7490   -1.3920    2.3100 hc        1 XP8      0.032367
     44 H21         1.7300    1.3430   -1.4390 hn        1 XP8      0.322500
@<TRIPOS>BOND
     1    1    3 1   
     2    1   15 1   
     3    1   22 1   
     4    2    5 1   
     5    2   15 1   
     6    2   44 1   
     7    4   18 1   
     8    4   19 1   
     9    4   20 1   
    10    4   21 1   
    11    5    6 2   
    12    5    7 1   
    13    7    8 1   
    14    7   24 1   
    15    7   25 1   
    16    8    9 1   
    17    8   26 1   
    18    8   27 1   
    19    9   10 1   
    20    9   28 1   
    21    9   29 1   
    22   10   11 1   
    23   10   30 1   
    24   10   31 1   
    25   11   12 1   
    26   11   32 1   
    27   11   33 1   
    28   12   13 1   
    29   12   34 1   
    30   12   35 1   
    31   13   14 1   
    32   13   36 1   
    33   13   37 1   
    34   14   38 1   
    35   15   16 1   
    36   15   39 1   
    37   16   17 1   
    38   16   21 1   
    39   16   40 1   
    40   17   41 1   
    41   17   42 1   
    42   17   43 1   
    43   19   23 1   
@<TRIPOS>SUBSTRUCTURE
     1 XP8         1 TEMP              0 ****  ****    0 ROOT
