@<TRIPOS>MOLECULE
XP8
   44    43     1     0     0
SMALL
bcc


@<TRIPOS>ATOM
      1 C           0.8250   -1.3350   -1.1200 c         1 XP8      0.910600
      2 N           2.3840    0.5970   -1.2360 ns        1 XP8     -0.487900
      3 OXT        -0.0070   -0.7940   -1.9010 o         1 XP8     -0.851800
      4 P           1.5510    2.5840    1.7920 p5        1 XP8      1.426800
      5 C1          3.6830    0.7600   -1.5970 c         1 XP8      0.657100
      6 O1          4.6050   -0.0600   -1.3610 o         1 XP8     -0.681100
      7 C2          4.0160    2.0320   -2.3810 c3        1 XP8     -0.161400
      8 C3          3.4630    1.9710   -3.7870 c3        1 XP8     -0.077400
      9 C4          3.7930    3.2360   -4.5520 c3        1 XP8     -0.078400
     10 C5          3.2830    3.1690   -5.9760 c3        1 XP8     -0.080400
     11 C6          3.5450    4.4670   -6.7090 c3        1 XP8     -0.077400
     12 C7          3.0960    4.3870   -8.1550 c3        1 XP8     -0.074400
     13 C8          3.2930    5.7120   -8.8450 c3        1 XP8      0.019700
     14 S8          2.8970    5.4960  -10.5630 sh        1 XP8     -0.395900
     15 CA          1.8730   -0.4410   -0.3680 c3        1 XP8     -0.037300
     16 CB          1.1940    0.1490    0.9070 c3        1 XP8      0.191100
     17 CG          0.8580   -0.9970    1.8540 c3        1 XP8     -0.105100
     18 O1P         0.0980    2.6290    2.0540 o         1 XP8     -0.848000
     19 O2P         1.8600    3.1380    0.2740 oh        1 XP8     -0.785400
     20 O3P         2.5790    3.2740    2.6060 o         1 XP8     -0.848000
     21 O4P         2.0550    1.0420    1.5670 os        1 XP8     -0.590200
     22 O           0.8720   -2.5800   -0.9000 o         1 XP8     -0.851800
     23 HN          1.7360    1.3250   -1.4440 hn        1 XP8      0.322500
     24 H2          3.6010    2.9240   -1.8390 hc        1 XP8      0.053200
     25 H2A         5.1310    2.1320   -2.4090 hc        1 XP8      0.053200
     26 H3          2.3490    1.8330   -3.7540 hc        1 XP8      0.055700
     27 H3A         3.8920    1.0820   -4.3200 hc        1 XP8      0.055700
     28 H4          4.9040    3.3950   -4.5590 hc        1 XP8      0.032700
     29 H4A         3.3360    4.1170   -4.0300 hc        1 XP8      0.032700
     30 H5          3.7830    2.3220   -6.5150 hc        1 XP8      0.044700
     31 H5A         2.1820    2.9530   -5.9700 hc        1 XP8      0.044700
     32 H6          4.6400    4.7080   -6.6690 hc        1 XP8      0.036200
     33 H6A         3.0020    5.3030   -6.1930 hc        1 XP8      0.036200
     34 H7          2.0140    4.0930   -8.1970 hc        1 XP8      0.057200
     35 H7A         3.6800    3.5890   -8.6850 hc        1 XP8      0.057200
     36 H8          2.6330    6.4900   -8.3920 h1        1 XP8      0.056700
     37 H8A         4.3510    6.0530   -8.7410 h1        1 XP8      0.056700
     38 HS8         3.0260    6.7470  -10.9610 hs        1 XP8      0.185800
     39 HA          2.7330   -1.0930   -0.0480 h1        1 XP8      0.075700
     40 HB          0.2510    0.6920    0.6080 h1        1 XP8      0.056700
     41 HG          0.1850   -0.6340    2.6670 hc        1 XP8      0.032367
     42 HGA         1.7930   -1.3940    2.3160 hc        1 XP8      0.032367
     43 HGB         0.3540   -1.8170    1.2870 hc        1 XP8      0.032367
     44 H21         2.7660    3.4110    0.1950 ho        1 XP8      0.413000
@<TRIPOS>BOND
     1    1    3 1   
     2    1   15 1   
     3    1   22 1   
     4    2    5 1   
     5    2   15 1   
     6    2   23 1   
     7    4   18 1   
     8    4   19 1   
     9    4   20 1   
    10    4   21 1   
    11    5    6 2   
    12    5    7 1   
    13    7    8 1   
    14    7   24 1   
    15    7   25 1   
    16    8    9 1   
    17    8   26 1   
    18    8   27 1   
    19    9   10 1   
    20    9   28 1   
    21    9   29 1   
    22   10   11 1   
    23   10   30 1   
    24   10   31 1   
    25   11   12 1   
    26   11   32 1   
    27   11   33 1   
    28   12   13 1   
    29   12   34 1   
    30   12   35 1   
    31   13   14 1   
    32   13   36 1   
    33   13   37 1   
    34   14   38 1   
    35   15   16 1   
    36   15   39 1   
    37   16   17 1   
    38   16   21 1   
    39   16   40 1   
    40   17   41 1   
    41   17   42 1   
    42   17   43 1   
    43   19   44 1   
@<TRIPOS>SUBSTRUCTURE
     1 XP8         1 TEMP              0 ****  ****    0 ROOT
