@<TRIPOS>MOLECULE
XP8
   43    40     1     0     0
SMALL
bcc


@<TRIPOS>ATOM
      1 C          -3.2770   -2.0440    2.3410 c1        1 XP8      0.335000
      2 N          -1.3860   -0.5840    2.1710 n         1 XP8     -0.278000
      3 OXT        -3.9560   -1.1440    1.7780 o         1 XP8     -0.621000
      4 P          -1.3250   -2.9200    6.3780 p3        1 XP8      2.524000
      5 C1         -0.6350   -0.7150    0.9750 c2        1 XP8      0.297000
      6 O1         -0.3830   -1.8190    0.5350 o         1 XP8     -0.506000
      7 C2         -0.1560    0.5190    0.2430 c3        1 XP8     -0.223000
      8 C3          0.7560    0.1100   -0.8920 c3        1 XP8     -0.124000
      9 C4          0.9120    1.2660   -1.8550 c3        1 XP8     -0.173000
     10 C5          1.9320    0.9070   -2.9130 c3        1 XP8     -0.150000
     11 C6          1.8690    1.9170   -4.0380 c3        1 XP8     -0.158000
     12 C7          2.9980    1.6590   -5.0120 c3        1 XP8     -0.153000
     13 C8          2.7620    2.4510   -6.2780 c3        1 XP8     -0.231000
     14 S8          4.0960    2.1660   -7.4110 sh        1 XP8     -0.067000
     15 CA         -1.8790   -1.7410    2.8310 c2        1 XP8     -0.070000
     16 CB         -1.9100   -1.4960    4.3230 c3        1 XP8      0.101000
     17 CG         -3.0690   -0.5840    4.6600 c3        1 XP8     -0.212000
     18 O1P        -0.6280   -1.6380    6.7650 os        1 XP8     -1.268000
     19 O2P        -0.3070   -4.0270    6.2470 o         1 XP8     -1.256500
     20 O3P        -2.3330   -3.2860    7.4410 o         1 XP8     -1.256500
     21 O4P        -2.0660   -2.7200    4.9960 os        1 XP8     -0.750000
     22 O          -3.7660   -3.1920    2.5030 o         1 XP8     -0.621000
     23 HN         -1.5630    0.2440    2.5100 hn        1 XP8      0.279000
     24 H2          0.3330    1.0960    0.8630 hc        1 XP8      0.134500
     25 H2A        -0.9260    1.0040   -0.1150 hc        1 XP8      0.134500
     26 H3          1.6320   -0.1370   -0.5340 hc        1 XP8      0.063500
     27 H3A         0.3680   -0.6550   -1.3620 hc        1 XP8      0.063500
     28 H4          0.0520    1.4540   -2.2820 hc        1 XP8      0.093500
     29 H4A         1.2140    2.0590   -1.3670 hc        1 XP8      0.093500
     30 H5          2.8270    0.9140   -2.5190 hc        1 XP8      0.067000
     31 H5A         1.7380    0.0150   -3.2650 hc        1 XP8      0.067000
     32 H6          1.0120    1.8350   -4.5030 hc        1 XP8      0.080500
     33 H6A         1.9560    2.8200   -3.6710 hc        1 XP8      0.080500
     34 H7          3.0320    0.7050   -5.2260 hc        1 XP8      0.089000
     35 H7A         3.8460    1.9330   -4.6080 hc        1 XP8      0.089000
     36 H8          1.9200    2.1690   -6.6880 h1        1 XP8      0.098000
     37 H8A         2.7160    3.4040   -6.0630 h1        1 XP8      0.098000
     38 HS8         3.9190    2.7920   -8.3930 hs        1 XP8      0.011000
     39 HA         -1.2940   -2.5000    2.6380 h4        1 XP8      0.085000
     40 HB         -1.0730   -1.0750    4.6010 h1        1 XP8      0.088000
     41 HG         -3.9020   -1.1000    4.6590 hc        1 XP8      0.049333
     42 HGA        -3.1270    0.1310    3.9920 hc        1 XP8      0.049333
     43 HGB        -2.9290   -0.1920    5.5470 hc        1 XP8      0.049333
@<TRIPOS>BOND
     1    1    3 1   
     2    1   22 1   
     3    2    5 1   
     4    2   15 1   
     5    2   23 1   
     6    4   19 1   
     7    4   20 1   
     8    4   21 1   
     9    5    6 1   
    10    5    7 1   
    11    7    8 1   
    12    7   24 1   
    13    7   25 1   
    14    8    9 1   
    15    8   26 1   
    16    8   27 1   
    17    9   10 1   
    18    9   28 1   
    19    9   29 1   
    20   10   11 1   
    21   10   30 1   
    22   10   31 1   
    23   11   12 1   
    24   11   32 1   
    25   11   33 1   
    26   12   13 1   
    27   12   34 1   
    28   12   35 1   
    29   13   14 1   
    30   13   36 1   
    31   13   37 1   
    32   14   38 1   
    33   15   16 1   
    34   15   39 1   
    35   16   17 1   
    36   16   21 1   
    37   16   40 1   
    38   17   41 1   
    39   17   42 1   
    40   17   43 1   
@<TRIPOS>SUBSTRUCTURE
     1 XP8         1 TEMP              0 ****  ****    0 ROOT
