@<TRIPOS>MOLECULE
XP9
   47    46     1     0     0
SMALL
bcc


@<TRIPOS>ATOM
      1 C           0.7370   -1.3640   -0.9750 c         1 XP9      0.914600
      2 N           2.3810    0.4530   -1.3660 ns        1 XP9     -0.487900
      3 OXT        -0.1540   -0.8320   -1.6950 o         1 XP9     -0.853300
      4 P           1.5080    2.8110    1.3750 p5        1 XP9      1.428800
      5 C1          3.7080    0.7170   -1.5600 c         1 XP9      0.663100
      6 O1          4.6410   -0.0480   -1.2150 o         1 XP9     -0.674100
      7 C2          4.0450    1.9980   -2.3230 c3        1 XP9     -0.168400
      8 C3          3.5750    1.9320   -3.7590 c3        1 XP9     -0.073400
      9 C4          4.0080    3.1620   -4.5300 c3        1 XP9     -0.078400
     10 C5          3.4860    3.1240   -5.9510 c3        1 XP9     -0.080400
     11 C6          3.9350    4.3350   -6.7410 c3        1 XP9     -0.078400
     12 C7          3.3690    4.3080   -8.1450 c3        1 XP9     -0.078400
     13 C8          3.8440    5.4980   -8.9550 c3        1 XP9     -0.074400
     14 C9          3.2370    5.4780  -10.3340 c3        1 XP9      0.019700
     15 S9          3.9120    6.8460  -11.2430 sh        1 XP9     -0.398900
     16 CA          1.8710   -0.4650   -0.3710 c3        1 XP9     -0.044300
     17 CB          1.2770    0.2590    0.8790 c3        1 XP9      0.187100
     18 CG          1.1010   -0.7690    1.9890 c3        1 XP9     -0.104100
     19 O1P         1.2540    3.0110   -0.2370 oh        1 XP9     -0.796400
     20 O2P         0.1310    2.7800    1.9180 o         1 XP9     -0.848500
     21 O3P         2.5720    3.7290    1.8290 o         1 XP9     -0.848500
     22 O4P         2.1180    1.2880    1.3310 os        1 XP9     -0.584200
     23 O           0.7700   -2.5960   -0.6920 o         1 XP9     -0.853300
     24 HN          1.7290    1.1590   -1.6360 hn        1 XP9      0.313500
     25 H2          3.5690    2.8670   -1.7940 hc        1 XP9      0.066200
     26 H2A         5.1560    2.1340   -2.2870 hc        1 XP9      0.066200
     27 H3          3.9910    1.0140   -4.2500 hc        1 XP9      0.048700
     28 H3A         2.4570    1.8480   -3.7890 hc        1 XP9      0.048700
     29 H4          5.1280    3.2270   -4.5420 hc        1 XP9      0.035700
     30 H4A         3.6270    4.0810   -4.0130 hc        1 XP9      0.035700
     31 H5          3.8450    2.1900   -6.4580 hc        1 XP9      0.040200
     32 H5A         2.3650    3.0800   -5.9340 hc        1 XP9      0.040200
     33 H6          3.6020    5.2700   -6.2180 hc        1 XP9      0.037700
     34 H6A         5.0560    4.3620   -6.7860 hc        1 XP9      0.037700
     35 H7          3.6780    3.3580   -8.6560 hc        1 XP9      0.040200
     36 H7A         2.2480    4.3090   -8.0960 hc        1 XP9      0.040200
     37 H8          3.5610    6.4480   -8.4280 hc        1 XP9      0.054700
     38 H8A         4.9640    5.4780   -9.0310 hc        1 XP9      0.054700
     39 H9          3.4780    4.5190  -10.8540 h1        1 XP9      0.058700
     40 H9A         2.1260    5.5660  -10.2730 h1        1 XP9      0.058700
     41 HS9         3.2330    6.7000  -12.3660 hs        1 XP9      0.189800
     42 HA          2.7170   -1.1270   -0.0350 h1        1 XP9      0.074700
     43 HB          0.2730    0.6950    0.6000 h1        1 XP9      0.044700
     44 HG          2.0950   -1.0380    2.4180 hc        1 XP9      0.032367
     45 HGA         0.4640   -0.3480    2.8020 hc        1 XP9      0.032367
     46 HGB         0.6210   -1.6870    1.5700 hc        1 XP9      0.032367
     47 H21         0.3600    2.7940   -0.4790 ho        1 XP9      0.426000
@<TRIPOS>BOND
     1    1    3 1   
     2    1   16 1   
     3    1   23 1   
     4    2    5 1   
     5    2   16 1   
     6    2   24 1   
     7    4   19 1   
     8    4   20 1   
     9    4   21 1   
    10    4   22 1   
    11    5    6 2   
    12    5    7 1   
    13    7    8 1   
    14    7   25 1   
    15    7   26 1   
    16    8    9 1   
    17    8   27 1   
    18    8   28 1   
    19    9   10 1   
    20    9   29 1   
    21    9   30 1   
    22   10   11 1   
    23   10   31 1   
    24   10   32 1   
    25   11   12 1   
    26   11   33 1   
    27   11   34 1   
    28   12   13 1   
    29   12   35 1   
    30   12   36 1   
    31   13   14 1   
    32   13   37 1   
    33   13   38 1   
    34   14   15 1   
    35   14   39 1   
    36   14   40 1   
    37   15   41 1   
    38   16   17 1   
    39   16   42 1   
    40   17   18 1   
    41   17   22 1   
    42   17   43 1   
    43   18   44 1   
    44   18   45 1   
    45   18   46 1   
    46   19   47 1   
@<TRIPOS>SUBSTRUCTURE
     1 XP9         1 TEMP              0 ****  ****    0 ROOT
