@<TRIPOS>MOLECULE
XP9
   47    46     1     0     0
SMALL
bcc


@<TRIPOS>ATOM
      1 C           1.0990   -1.3890   -1.2610 c         1 XP9      0.909600
      2 N           2.5010    0.6630   -1.2140 n         1 XP9     -0.488900
      3 OXT         0.3380   -0.9210   -2.1550 o         1 XP9     -0.852300
      4 P           1.1510    2.5880    1.6590 p5        1 XP9      1.426800
      5 C1          3.8130    0.8920   -1.4760 c         1 XP9      0.656100
      6 O1          4.7600    0.1400   -1.1320 o         1 XP9     -0.683100
      7 C2          4.1360    2.1590   -2.2730 c3        1 XP9     -0.160400
      8 C3          3.6230    2.0590   -3.6910 c3        1 XP9     -0.079400
      9 C4          4.0400    3.2620   -4.5110 c3        1 XP9     -0.076400
     10 C5          3.4760    3.1840   -5.9140 c3        1 XP9     -0.081400
     11 C6          3.9050    4.3690   -6.7530 c3        1 XP9     -0.077400
     12 C7          3.3000    4.2990   -8.1390 c3        1 XP9     -0.078400
     13 C8          3.7500    5.4650   -8.9970 c3        1 XP9     -0.073400
     14 C9          3.1060    5.4010  -10.3590 c3        1 XP9      0.019700
     15 S9          3.7480    6.7470  -11.3240 sh        1 XP9     -0.399900
     16 CA          1.9740   -0.4110   -0.4020 c3        1 XP9     -0.036300
     17 CB          1.1030    0.1280    0.7760 c3        1 XP9      0.193100
     18 CG          0.7490   -1.0370    1.6920 c3        1 XP9     -0.105100
     19 O1P         1.5600    3.1420    0.1660 oh        1 XP9     -0.784400
     20 O2P        -0.3190    2.5110    1.7770 o         1 XP9     -0.848000
     21 O3P         2.0320    3.3710    2.5570 o         1 XP9     -0.848000
     22 O4P         1.8030    1.0910    1.5200 os        1 XP9     -0.590200
     23 O           1.2060   -2.6250   -1.0120 o         1 XP9     -0.852300
     24 HN          2.4550    3.4580    0.1560 ho        1 XP9      0.414000
     25 H2          3.6860    3.0480   -1.7580 hc        1 XP9      0.052200
     26 H2A         5.2500    2.2850   -2.2730 hc        1 XP9      0.052200
     27 H3          2.5030    1.9800   -3.6860 hc        1 XP9      0.056700
     28 H3A         4.0180    1.1230   -4.1670 hc        1 XP9      0.056700
     29 H4          5.1590    3.3210   -4.5570 hc        1 XP9      0.032200
     30 H4A         3.6790    4.2000   -4.0130 hc        1 XP9      0.032200
     31 H5          3.8180    2.2330   -6.4020 hc        1 XP9      0.044200
     32 H5A         2.3560    3.1430   -5.8620 hc        1 XP9      0.044200
     33 H6          5.0230    4.3920   -6.8300 hc        1 XP9      0.036200
     34 H6A         3.5870    5.3200   -6.2510 hc        1 XP9      0.036200
     35 H7          2.1810    4.3010   -8.0590 hc        1 XP9      0.041200
     36 H7A         3.5950    3.3350   -8.6300 hc        1 XP9      0.041200
     37 H8          3.4790    6.4300   -8.4930 hc        1 XP9      0.054200
     38 H8A         4.8670    5.4450   -9.1030 hc        1 XP9      0.054200
     39 H9          3.3410    4.4300  -10.8570 h1        1 XP9      0.058700
     40 H9A         1.9970    5.4850  -10.2700 h1        1 XP9      0.058700
     41 HS9         3.0430    6.5640  -12.4240 hs        1 XP9      0.190800
     42 HA          2.8390   -0.9900    0.0280 h1        1 XP9      0.075700
     43 HB          0.1610    0.5910    0.3580 h1        1 XP9      0.055700
     44 HG          1.6500   -1.3550    2.2670 hc        1 XP9      0.032700
     45 HGA         0.3820   -1.8990    1.0820 hc        1 XP9      0.032700
     46 HGB        -0.0420   -0.7260    2.4150 hc        1 XP9      0.032700
     47 H21         1.8280    1.3350   -1.5100 hn        1 XP9      0.324500
@<TRIPOS>BOND
     1    1    3 1   
     2    1   16 1   
     3    1   23 1   
     4    2    5 1   
     5    2   16 1   
     6    2   47 1   
     7    4   19 1   
     8    4   20 1   
     9    4   21 1   
    10    4   22 1   
    11    5    6 2   
    12    5    7 1   
    13    7    8 1   
    14    7   25 1   
    15    7   26 1   
    16    8    9 1   
    17    8   27 1   
    18    8   28 1   
    19    9   10 1   
    20    9   29 1   
    21    9   30 1   
    22   10   11 1   
    23   10   31 1   
    24   10   32 1   
    25   11   12 1   
    26   11   33 1   
    27   11   34 1   
    28   12   13 1   
    29   12   35 1   
    30   12   36 1   
    31   13   14 1   
    32   13   37 1   
    33   13   38 1   
    34   14   15 1   
    35   14   39 1   
    36   14   40 1   
    37   15   41 1   
    38   16   17 1   
    39   16   42 1   
    40   17   18 1   
    41   17   22 1   
    42   17   43 1   
    43   18   44 1   
    44   18   45 1   
    45   18   46 1   
    46   19   24 1   
@<TRIPOS>SUBSTRUCTURE
     1 XP9         1 TEMP              0 ****  ****    0 ROOT
