@<TRIPOS>MOLECULE
XPA
   75    74     1     0     0
SMALL
bcc


@<TRIPOS>ATOM
      1 O1         -2.2740    2.0970   -1.3920 o         1 XPA     -0.843000
      2 O2          0.2230    2.7670   -1.9140 o         1 XPA     -0.843000
      3 P1         -0.8170    2.0670   -1.1350 p5        1 XPA      1.425800
      4 O3         -0.7160    2.5130    0.4390 oh        1 XPA     -0.781400
      5 O4         -0.3910    0.4900   -0.9410 os        1 XPA     -0.586200
      6 C1          0.9680    0.1770   -0.8890 c3        1 XPA      0.186400
      7 C2          1.2820   -0.9730   -1.8570 c3        1 XPA      0.127100
      8 C3          2.7840   -1.1850   -2.0650 c3        1 XPA      0.132400
      9 O5          3.3580   -1.6690   -0.8640 os        1 XPA     -0.478900
     10 C4          4.5850   -2.3640   -0.9880 c2        1 XPA      0.432100
     11 O6          5.0520   -2.3770   -2.1600 o         1 XPA     -0.569000
     12 C5          5.0440   -2.9000    0.2030 c2        1 XPA     -0.604200
     13 C6          6.3020   -3.6410    0.2740 c3        1 XPA      0.077800
     14 C7          7.2920   -3.0030    1.2420 c3        1 XPA     -0.084400
     15 C8          8.5760   -3.7990    1.3370 c3        1 XPA     -0.078400
     16 C9          9.5590   -3.1630    2.2970 c3        1 XPA     -0.079400
     17 C10        10.8430   -3.9590    2.3880 c3        1 XPA     -0.078400
     18 C11        11.8240   -3.3200    3.3480 c3        1 XPA     -0.079400
     19 C12        13.1090   -4.1160    3.4390 c3        1 XPA     -0.080400
     20 C13        14.0890   -3.4830    4.3940 c3        1 XPA     -0.090100
     21 O7          0.7100   -2.1550   -1.2510 os        1 XPA     -0.389900
     22 C14         0.3380   -3.1760   -2.0530 c         1 XPA      0.643100
     23 O8          0.3660   -3.0710   -3.2860 o         1 XPA     -0.587000
     24 C15        -0.0860   -4.3800   -1.2590 c3        1 XPA     -0.136400
     25 C16        -1.0440   -5.2480   -2.0440 c3        1 XPA     -0.076400
     26 C17        -1.3570   -6.5250   -1.2940 c3        1 XPA     -0.078400
     27 C18        -2.3280   -7.3900   -2.0690 c3        1 XPA     -0.078400
     28 C19        -2.6410   -8.6700   -1.3250 c3        1 XPA     -0.079400
     29 C20        -3.6120   -9.5350   -2.0990 c3        1 XPA     -0.079400
     30 C21        -3.9240  -10.8160   -1.3550 c3        1 XPA     -0.079400
     31 C22        -4.8960  -11.6810   -2.1290 c3        1 XPA     -0.080400
     32 C23        -5.2100  -12.9580   -1.3920 c3        1 XPA     -0.091100
     33 H2          1.2340   -0.1590    0.1530 h1        1 XPA      0.052700
     34 H3          1.5870    1.0700   -1.1830 h1        1 XPA      0.052700
     35 H4          0.7900   -0.7920   -2.8510 h1        1 XPA      0.066700
     36 H5          2.9450   -1.9160   -2.9020 h1        1 XPA      0.039200
     37 H6          3.2640   -0.2070   -2.3330 h1        1 XPA      0.039200
     38 H7         -1.5240    2.3290    0.9020 ho        1 XPA      0.416000
     39 H8          4.4650   -2.7700    1.1170 ha        1 XPA      0.098000
     40 H9          6.1250   -4.7010    0.6220 hc        1 XPA     -0.008800
     41 H10         6.7770   -3.7060   -0.7420 hc        1 XPA     -0.008800
     42 H11         7.5170   -1.9610    0.9000 hc        1 XPA      0.028200
     43 H12         6.8220   -2.9260    2.2570 hc        1 XPA      0.028200
     44 H13         9.0430   -3.8770    0.3190 hc        1 XPA      0.026200
     45 H14         8.3480   -4.8450    1.6740 hc        1 XPA      0.026200
     46 H15         9.7870   -2.1180    1.9580 hc        1 XPA      0.034200
     47 H16         9.0920   -3.0850    3.3140 hc        1 XPA      0.034200
     48 H17        11.3090   -4.0360    1.3710 hc        1 XPA      0.033200
     49 H18        10.6140   -5.0040    2.7260 hc        1 XPA      0.033200
     50 H19        11.3580   -3.2420    4.3650 hc        1 XPA      0.036700
     51 H20        12.0530   -2.2750    3.0090 hc        1 XPA      0.036700
     52 H21        12.8770   -5.1610    3.7760 hc        1 XPA      0.034700
     53 H22        13.5730   -4.1930    2.4200 hc        1 XPA      0.034700
     54 H23        13.6530   -3.4180    5.4200 hc        1 XPA      0.025700
     55 H24        14.3500   -2.4490    4.0610 hc        1 XPA      0.025700
     56 H25        15.0280   -4.0840    4.4460 hc        1 XPA      0.025700
     57 H26        -0.5540   -4.0410   -0.2980 hc        1 XPA      0.076200
     58 H27         0.8470   -4.9490   -1.0010 hc        1 XPA      0.076200
     59 H28        -1.9910   -4.6780   -2.2390 hc        1 XPA      0.052700
     60 H29        -0.5930   -5.4870   -3.0430 hc        1 XPA      0.052700
     61 H30        -1.7930   -6.2750   -0.2910 hc        1 XPA      0.037700
     62 H31        -0.4090   -7.0950   -1.1100 hc        1 XPA      0.037700
     63 H32        -3.2770   -6.8190   -2.2510 hc        1 XPA      0.039200
     64 H33        -1.8930   -7.6350   -3.0740 hc        1 XPA      0.039200
     65 H34        -1.6910   -9.2400   -1.1430 hc        1 XPA      0.037700
     66 H35        -3.0750   -8.4240   -0.3200 hc        1 XPA      0.037700
     67 H36        -3.1770   -9.7800   -3.1040 hc        1 XPA      0.037700
     68 H37        -4.5610   -8.9640   -2.2800 hc        1 XPA      0.037700
     69 H38        -2.9750  -11.3860   -1.1740 hc        1 XPA      0.037700
     70 H39        -4.3590  -10.5700   -0.3500 hc        1 XPA      0.037700
     71 H40        -5.8430  -11.1080   -2.3110 hc        1 XPA      0.036700
     72 H41        -4.4600  -11.9240   -3.1340 hc        1 XPA      0.036700
     73 H42        -5.6680  -12.7360   -0.3980 hc        1 XPA      0.027700
     74 H43        -5.9270  -13.5810   -1.9790 hc        1 XPA      0.027700
     75 H44        -4.2800  -13.5540   -1.2230 hc        1 XPA      0.027700
@<TRIPOS>BOND
     1    1    3 1   
     2    2    3 1   
     3    3    4 1   
     4    3    5 1   
     5    4   38 1   
     6    5    6 1   
     7    6    7 1   
     8    6   33 1   
     9    6   34 1   
    10    7    8 1   
    11    7   21 1   
    12    7   35 1   
    13    8    9 1   
    14    8   36 1   
    15    8   37 1   
    16    9   10 1   
    17   10   11 1   
    18   10   12 2   
    19   12   13 1   
    20   12   39 1   
    21   13   14 1   
    22   13   40 1   
    23   13   41 1   
    24   14   15 1   
    25   14   42 1   
    26   14   43 1   
    27   15   16 1   
    28   15   44 1   
    29   15   45 1   
    30   16   17 1   
    31   16   46 1   
    32   16   47 1   
    33   17   18 1   
    34   17   48 1   
    35   17   49 1   
    36   18   19 1   
    37   18   50 1   
    38   18   51 1   
    39   19   20 1   
    40   19   52 1   
    41   19   53 1   
    42   20   54 1   
    43   20   55 1   
    44   20   56 1   
    45   21   22 1   
    46   22   23 2   
    47   22   24 1   
    48   24   25 1   
    49   24   57 1   
    50   24   58 1   
    51   25   26 1   
    52   25   59 1   
    53   25   60 1   
    54   26   27 1   
    55   26   61 1   
    56   26   62 1   
    57   27   28 1   
    58   27   63 1   
    59   27   64 1   
    60   28   29 1   
    61   28   65 1   
    62   28   66 1   
    63   29   30 1   
    64   29   67 1   
    65   29   68 1   
    66   30   31 1   
    67   30   69 1   
    68   30   70 1   
    69   31   32 1   
    70   31   71 1   
    71   31   72 1   
    72   32   73 1   
    73   32   74 1   
    74   32   75 1   
@<TRIPOS>SUBSTRUCTURE
     1 XPA         1 TEMP              0 ****  ****    0 ROOT
