@<TRIPOS>MOLECULE
XPA
   75    74     1     0     0
SMALL
bcc


@<TRIPOS>ATOM
      1 O1          4.5410    1.0530    0.7830 o         1 XPA     -0.912833
      2 O2          5.7410   -0.4220   -0.9170 o         1 XPA     -0.912833
      3 P1          5.1550   -0.2780    0.4700 p5        1 XPA      1.321900
      4 O3          5.9060   -1.0030    1.5500 o         1 XPA     -0.912833
      5 O4          3.7600   -1.2950    0.2750 os        1 XPA     -0.566200
      6 C1          2.6870   -0.7200   -0.3410 c3        1 XPA      0.226400
      7 C2          2.3100   -1.3830   -1.6940 c3        1 XPA      0.075100
      8 C3          3.4880   -1.4420   -2.6680 c3        1 XPA      0.066400
      9 O5          3.6640   -2.7290   -3.2650 os        1 XPA     -0.448900
     10 C4          4.4670   -3.6560   -2.6410 c         1 XPA      0.666100
     11 O6          4.6430   -4.6470   -3.3710 o         1 XPA     -0.614000
     12 C5          4.9400   -3.4200   -1.2600 c3        1 XPA     -0.239400
     13 C6          5.8960   -4.4490   -0.7090 c3        1 XPA     -0.036400
     14 C7          6.2740   -4.0510    0.7090 c3        1 XPA     -0.123400
     15 C8          7.7680   -4.0740    0.9520 c3        1 XPA     -0.046400
     16 C9          8.0910   -3.3170    2.2240 c3        1 XPA     -0.114400
     17 C10         9.5830   -3.1540    2.4120 c3        1 XPA     -0.065400
     18 C11         9.8900   -2.3750    3.6730 c3        1 XPA     -0.081400
     19 C12        11.3790   -2.1630    3.8500 c3        1 XPA     -0.079400
     20 C13        11.6850   -1.3920    5.1080 c3        1 XPA     -0.088100
     21 O7          1.8600   -2.7240   -1.4020 os        1 XPA     -0.394900
     22 C14         0.7390   -3.1920   -1.9920 c         1 XPA      0.640100
     23 O8          0.0040   -2.4580   -2.6660 o         1 XPA     -0.600000
     24 C15         0.5290   -4.6530   -1.7060 c3        1 XPA     -0.140400
     25 C16        -0.9340   -5.0260   -1.7740 c3        1 XPA     -0.074400
     26 C17        -1.1210   -6.5200   -1.6220 c3        1 XPA     -0.079400
     27 C18        -2.5860   -6.8970   -1.6730 c3        1 XPA     -0.078400
     28 C19        -2.7750   -8.3920   -1.5260 c3        1 XPA     -0.079400
     29 C20        -4.2400   -8.7700   -1.5770 c3        1 XPA     -0.078400
     30 C21        -4.4290  -10.2640   -1.4310 c3        1 XPA     -0.079400
     31 C22        -5.8940  -10.6440   -1.4810 c3        1 XPA     -0.080400
     32 C23        -6.0870  -12.1310   -1.3360 c3        1 XPA     -0.091100
     33 H2          2.8780    0.3730   -0.5550 h1        1 XPA      0.011700
     34 H3          1.7700   -0.8170    0.3140 h1        1 XPA      0.011700
     35 H4          1.4630   -0.8010   -2.1520 h1        1 XPA      0.038700
     36 H5          3.2680   -0.7900   -3.5580 h1        1 XPA      0.108700
     37 H6          4.4300   -1.0710   -2.1390 h1        1 XPA      0.108700
     38 H7          4.0220   -3.3460   -0.6040 hc        1 XPA      0.158200
     39 H8          5.4310   -2.3830   -1.1760 hc        1 XPA      0.158200
     40 H9          6.8040   -4.5070   -1.3650 hc        1 XPA      0.009200
     41 H10         5.4250   -5.4660   -0.7220 hc        1 XPA      0.009200
     42 H11         5.9040   -2.9890    0.9270 hc        1 XPA      0.086200
     43 H12         5.7660   -4.7330    1.4390 hc        1 XPA      0.086200
     44 H13         8.1460   -5.1290    1.0160 hc        1 XPA      0.006700
     45 H14         8.2940   -3.5840    0.0910 hc        1 XPA      0.006700
     46 H15         7.6600   -3.8590    3.1050 hc        1 XPA      0.086700
     47 H16         7.5800   -2.3040    2.1700 hc        1 XPA      0.086700
     48 H17        10.0810   -4.1580    2.4590 hc        1 XPA      0.016700
     49 H18        10.0120   -2.6140    1.5260 hc        1 XPA      0.016700
     50 H19         9.4810   -2.9220    4.5620 hc        1 XPA      0.047700
     51 H20         9.3670   -1.3820    3.6270 hc        1 XPA      0.047700
     52 H21        11.8980   -3.1570    3.8820 hc        1 XPA      0.027200
     53 H22        11.7820   -1.6090    2.9620 hc        1 XPA      0.027200
     54 H23        11.3160   -1.9430    6.0070 hc        1 XPA      0.022033
     55 H24        12.7860   -1.2380    5.2170 hc        1 XPA      0.022033
     56 H25        11.1880   -0.3920    5.0840 hc        1 XPA      0.022033
     57 H26         0.9560   -4.8960   -0.6980 hc        1 XPA      0.080200
     58 H27         1.1200   -5.2260   -2.4710 hc        1 XPA      0.080200
     59 H28        -1.4950   -4.4880   -0.9640 hc        1 XPA      0.048700
     60 H29        -1.3610   -4.6810   -2.7530 hc        1 XPA      0.048700
     61 H30        -0.5660   -7.0530   -2.4390 hc        1 XPA      0.040200
     62 H31        -0.6790   -6.8570   -0.6480 hc        1 XPA      0.040200
     63 H32        -3.1390   -6.3660   -0.8550 hc        1 XPA      0.037700
     64 H33        -3.0280   -6.5550   -2.6460 hc        1 XPA      0.037700
     65 H34        -2.2210   -8.9220   -2.3450 hc        1 XPA      0.039200
     66 H35        -2.3320   -8.7320   -0.5540 hc        1 XPA      0.039200
     67 H36        -4.6830   -8.4280   -2.5500 hc        1 XPA      0.037200
     68 H37        -4.7930   -8.2390   -0.7580 hc        1 XPA      0.037200
     69 H38        -3.8750  -10.7950   -2.2490 hc        1 XPA      0.038700
     70 H39        -3.9860  -10.6060   -0.4580 hc        1 XPA      0.038700
     71 H40        -6.3350  -10.3000   -2.4540 hc        1 XPA      0.036700
     72 H41        -6.4450  -10.1100   -0.6620 hc        1 XPA      0.036700
     73 H42        -5.6740  -12.4880   -0.3610 hc        1 XPA      0.028367
     74 H43        -7.1720  -12.3890   -1.3750 hc        1 XPA      0.028367
     75 H44        -5.5630  -12.6780   -2.1570 hc        1 XPA      0.028367
@<TRIPOS>BOND
     1    1    3 1   
     2    2    3 1   
     3    3    4 1   
     4    3    5 1   
     5    5    6 1   
     6    6    7 1   
     7    6   33 1   
     8    6   34 1   
     9    7    8 1   
    10    7   21 1   
    11    7   35 1   
    12    8    9 1   
    13    8   36 1   
    14    8   37 1   
    15    9   10 1   
    16   10   11 2   
    17   10   12 1   
    18   12   13 1   
    19   12   38 1   
    20   12   39 1   
    21   13   14 1   
    22   13   40 1   
    23   13   41 1   
    24   14   15 1   
    25   14   42 1   
    26   14   43 1   
    27   15   16 1   
    28   15   44 1   
    29   15   45 1   
    30   16   17 1   
    31   16   46 1   
    32   16   47 1   
    33   17   18 1   
    34   17   48 1   
    35   17   49 1   
    36   18   19 1   
    37   18   50 1   
    38   18   51 1   
    39   19   20 1   
    40   19   52 1   
    41   19   53 1   
    42   20   54 1   
    43   20   55 1   
    44   20   56 1   
    45   21   22 1   
    46   22   23 2   
    47   22   24 1   
    48   24   25 1   
    49   24   57 1   
    50   24   58 1   
    51   25   26 1   
    52   25   59 1   
    53   25   60 1   
    54   26   27 1   
    55   26   61 1   
    56   26   62 1   
    57   27   28 1   
    58   27   63 1   
    59   27   64 1   
    60   28   29 1   
    61   28   65 1   
    62   28   66 1   
    63   29   30 1   
    64   29   67 1   
    65   29   68 1   
    66   30   31 1   
    67   30   69 1   
    68   30   70 1   
    69   31   32 1   
    70   31   71 1   
    71   31   72 1   
    72   32   73 1   
    73   32   74 1   
    74   32   75 1   
@<TRIPOS>SUBSTRUCTURE
     1 XPA         1 TEMP              0 ****  ****    0 ROOT
