@<TRIPOS>MOLECULE
XPA
   75    74     1     0     0
SMALL
bcc


@<TRIPOS>ATOM
      1 O1         -0.8080    1.6740   -2.1760 o         1 XPA     -0.915167
      2 O2         -2.9200    3.0620   -1.8920 o         1 XPA     -0.915167
      3 P1         -2.1150    1.8740   -1.4640 p5        1 XPA      1.323900
      4 O3         -2.8890    0.6210   -1.1170 o         1 XPA     -0.915167
      5 O4         -1.6150    2.3190    0.1500 os        1 XPA     -0.564200
      6 C1         -0.5160    3.1200    0.2160 c3        1 XPA      0.234400
      7 C2          0.4590    2.7180    1.3560 c3        1 XPA      0.091100
      8 C3         -0.2210    2.3560    2.6750 c3        1 XPA      0.144400
      9 O5         -0.7280    1.0260    2.6230 os        1 XPA     -0.457900
     10 C4         -2.1060    0.8790    2.6480 c         1 XPA      0.697100
     11 O6         -2.7180    1.6130    3.4350 o         1 XPA     -0.613000
     12 C5         -2.5890   -0.1750    1.7320 c3        1 XPA     -0.218400
     13 C6         -4.0010   -0.6250    2.0170 c3        1 XPA     -0.037400
     14 C7         -4.5790   -1.2890    0.7840 c3        1 XPA     -0.114400
     15 C8         -6.0680   -1.5160    0.9220 c3        1 XPA     -0.064400
     16 C9         -6.6360   -2.1550   -0.3280 c3        1 XPA     -0.082400
     17 C10        -8.1330   -2.3480   -0.2220 c3        1 XPA     -0.076400
     18 C11        -8.6970   -2.9880   -1.4730 c3        1 XPA     -0.080400
     19 C12       -10.1960   -3.1750   -1.3740 c3        1 XPA     -0.080400
     20 C13       -10.7600   -3.8120   -2.6180 c3        1 XPA     -0.089100
     21 O7          1.2120    1.5980    0.8550 os        1 XPA     -0.348900
     22 C14         2.4200    1.3290    1.3850 c         1 XPA      0.630100
     23 O8          2.9190    2.0550    2.2600 o         1 XPA     -0.623000
     24 C15         3.0290    0.0950    0.7810 c3        1 XPA     -0.139400
     25 C16         4.5340    0.2110    0.6890 c3        1 XPA     -0.074400
     26 C17         5.1470   -1.0820    0.1970 c3        1 XPA     -0.079400
     27 C18         6.6520   -0.9660    0.0810 c3        1 XPA     -0.077400
     28 C19         7.2680   -2.2600   -0.4070 c3        1 XPA     -0.079400
     29 C20         8.7730   -2.1440   -0.5250 c3        1 XPA     -0.078400
     30 C21         9.3880   -3.4380   -1.0130 c3        1 XPA     -0.079400
     31 C22        10.8930   -3.3230   -1.1330 c3        1 XPA     -0.080400
     32 C23        11.5110   -4.6090   -1.6180 c3        1 XPA     -0.091100
     33 H2         -0.8040    4.1850    0.4840 h1        1 XPA      0.012700
     34 H3          0.0550    3.1080   -0.7580 h1        1 XPA      0.012700
     35 H4          1.1700    3.5680    1.5550 h1        1 XPA      0.023700
     36 H5         -1.0360    3.0970    2.8840 h1        1 XPA      0.042700
     37 H6          0.5330    2.3500    3.5090 h1        1 XPA      0.042700
     38 H7         -1.8760   -1.0340    1.7100 hc        1 XPA      0.152700
     39 H8         -2.5480    0.3090    0.6580 hc        1 XPA      0.152700
     40 H9         -4.0280   -1.3320    2.8890 hc        1 XPA      0.013200
     41 H10        -4.6230    0.2670    2.2940 hc        1 XPA      0.013200
     42 H11        -4.0640   -2.2690    0.6090 hc        1 XPA      0.090200
     43 H12        -4.3530   -0.6310   -0.1140 hc        1 XPA      0.090200
     44 H13        -6.5790   -0.5340    1.1040 hc        1 XPA      0.017200
     45 H14        -6.2810   -2.1700    1.8090 hc        1 XPA      0.017200
     46 H15        -6.1410   -3.1470   -0.5010 hc        1 XPA      0.048200
     47 H16        -6.3950   -1.5060   -1.2120 hc        1 XPA      0.048200
     48 H17        -8.6270   -1.3550   -0.0540 hc        1 XPA      0.028200
     49 H18        -8.3710   -2.9900    0.6670 hc        1 XPA      0.028200
     50 H19        -8.2050   -3.9820   -1.6410 hc        1 XPA      0.040700
     51 H20        -8.4550   -2.3460   -2.3610 hc        1 XPA      0.040700
     52 H21       -10.6850   -2.1790   -1.2070 hc        1 XPA      0.032200
     53 H22       -10.4350   -3.8130   -0.4830 hc        1 XPA      0.032200
     54 H23       -10.3020   -4.8170   -2.7880 hc        1 XPA      0.024700
     55 H24       -11.8660   -3.9390   -2.5260 hc        1 XPA      0.024700
     56 H25       -10.5500   -3.1780   -3.5130 hc        1 XPA      0.024700
     57 H26         2.7380   -0.7720    1.4310 hc        1 XPA      0.084200
     58 H27         2.5770   -0.0740   -0.2340 hc        1 XPA      0.084200
     59 H28         4.8010    1.0470   -0.0100 hc        1 XPA      0.047200
     60 H29         4.9510    0.4770    1.6960 hc        1 XPA      0.047200
     61 H30         4.8880   -1.9150    0.9020 hc        1 XPA      0.040700
     62 H31         4.7110   -1.3470   -0.8020 hc        1 XPA      0.040700
     63 H32         6.9100   -0.1360   -0.6280 hc        1 XPA      0.036700
     64 H33         7.0870   -0.6950    1.0790 hc        1 XPA      0.036700
     65 H34         7.0090   -3.0900    0.3010 hc        1 XPA      0.039200
     66 H35         6.8320   -2.5300   -1.4050 hc        1 XPA      0.039200
     67 H36         9.0300   -1.3140   -1.2350 hc        1 XPA      0.036700
     68 H37         9.2080   -1.8730    0.4720 hc        1 XPA      0.036700
     69 H38         9.1300   -4.2680   -0.3040 hc        1 XPA      0.038700
     70 H39         8.9520   -3.7080   -2.0110 hc        1 XPA      0.038700
     71 H40        11.1490   -2.4920   -1.8410 hc        1 XPA      0.036700
     72 H41        11.3270   -3.0500   -0.1340 hc        1 XPA      0.036700
     73 H42        11.1080   -4.8850   -2.6230 hc        1 XPA      0.028033
     74 H43        12.6190   -4.5040   -1.6990 hc        1 XPA      0.028033
     75 H44        11.2870   -5.4450   -0.9110 hc        1 XPA      0.028033
@<TRIPOS>BOND
     1    1    3 1   
     2    2    3 1   
     3    3    4 1   
     4    3    5 1   
     5    5    6 1   
     6    6    7 1   
     7    6   33 1   
     8    6   34 1   
     9    7    8 1   
    10    7   21 1   
    11    7   35 1   
    12    8    9 1   
    13    8   36 1   
    14    8   37 1   
    15    9   10 1   
    16   10   11 2   
    17   10   12 1   
    18   12   13 1   
    19   12   38 1   
    20   12   39 1   
    21   13   14 1   
    22   13   40 1   
    23   13   41 1   
    24   14   15 1   
    25   14   42 1   
    26   14   43 1   
    27   15   16 1   
    28   15   44 1   
    29   15   45 1   
    30   16   17 1   
    31   16   46 1   
    32   16   47 1   
    33   17   18 1   
    34   17   48 1   
    35   17   49 1   
    36   18   19 1   
    37   18   50 1   
    38   18   51 1   
    39   19   20 1   
    40   19   52 1   
    41   19   53 1   
    42   20   54 1   
    43   20   55 1   
    44   20   56 1   
    45   21   22 1   
    46   22   23 2   
    47   22   24 1   
    48   24   25 1   
    49   24   57 1   
    50   24   58 1   
    51   25   26 1   
    52   25   59 1   
    53   25   60 1   
    54   26   27 1   
    55   26   61 1   
    56   26   62 1   
    57   27   28 1   
    58   27   63 1   
    59   27   64 1   
    60   28   29 1   
    61   28   65 1   
    62   28   66 1   
    63   29   30 1   
    64   29   67 1   
    65   29   68 1   
    66   30   31 1   
    67   30   69 1   
    68   30   70 1   
    69   31   32 1   
    70   31   71 1   
    71   31   72 1   
    72   32   73 1   
    73   32   74 1   
    74   32   75 1   
@<TRIPOS>SUBSTRUCTURE
     1 XPA         1 TEMP              0 ****  ****    0 ROOT
