@<TRIPOS>MOLECULE
XPC
   18    18     1     0     0
SMALL
bcc


@<TRIPOS>ATOM
      1 N          -1.1730   -2.0890    0.1930 n3        1 XPC     -0.897800
      2 CB         -0.9610   -0.7570   -0.3270 c3        1 XPC      0.149500
      3 CG         -2.2160    0.1640   -0.3190 c3        1 XPC      0.141800
      4 ND         -1.7620    1.5510   -0.2370 n3        1 XPC     -0.808200
      5 CE         -0.3830    1.5420    0.2690 c3        1 XPC      0.146800
      6 CA          0.1070    0.0960    0.4030 c3        1 XPC     -0.235700
      7 C           1.4950   -0.1940   -0.1950 c         1 XPC      0.916600
      8 O           1.8520   -1.4090   -0.2020 o         1 XPC     -0.844800
      9 HN         -0.3060   -2.5930    0.0850 hn        1 XPC      0.346300
     10 HB         -0.6300   -0.8870   -1.4000 h1        1 XPC      0.064700
     11 HG         -2.8430   -0.0150   -1.2300 h1        1 XPC      0.029200
     12 HGA        -2.8520   -0.0380    0.5860 h1        1 XPC      0.029200
     13 HND        -1.7710    1.9540   -1.1570 hn        1 XPC      0.327800
     14 HE          0.3180    2.1150   -0.3990 h1        1 XPC      0.048700
     15 HEA        -0.3960    2.0470    1.2720 h1        1 XPC      0.048700
     16 HA          0.1550   -0.1780    1.4890 hc        1 XPC      0.037700
     17 HNA        -1.3770   -2.0400    1.1750 hn        1 XPC      0.346300
     18 OXT         2.1970    0.7580   -0.6350 o         1 XPC     -0.844800
@<TRIPOS>BOND
     1    1    2 1   
     2    1    9 1   
     3    1   17 1   
     4    2    3 1   
     5    2    6 1   
     6    2   10 1   
     7    3    4 1   
     8    3   11 1   
     9    3   12 1   
    10    4    5 1   
    11    4   13 1   
    12    5    6 1   
    13    5   14 1   
    14    5   15 1   
    15    6    7 1   
    16    6   16 1   
    17    7    8 1   
    18    7   18 1   
@<TRIPOS>SUBSTRUCTURE
     1 XPC         1 TEMP              0 ****  ****    0 ROOT
