@<TRIPOS>MOLECULE
XPC
   18    18     1     0     0
SMALL
bcc


@<TRIPOS>ATOM
      1 N          -1.8830    0.6630    0.0270 n3        1 XPC     -0.897800
      2 CB         -0.5370    0.6630    0.0270 c3        1 XPC      0.149500
      3 CG         -0.0140    0.6630    1.4610 c3        1 XPC      0.141800
      4 ND          0.4450   -0.4720    1.6630 n3        1 XPC     -0.808200
      5 CE          0.9290   -1.0430    0.2600 c3        1 XPC      0.146800
      6 CA          0.0130   -0.6750   -0.6720 c3        1 XPC     -0.235700
      7 C           0.6320   -0.4210   -2.0560 c         1 XPC      0.916600
      8 O           1.4810    0.4960   -2.2070 o         1 XPC     -0.844800
      9 HN         -2.1870    1.3980    0.4720 hn        1 XPC      0.346300
     10 HB         -0.2050    1.4480   -0.4480 h1        1 XPC      0.064700
     11 HG         -0.7430    0.8450    2.0840 h1        1 XPC      0.029200
     12 HGA         0.6890    1.3320    1.5610 h1        1 XPC      0.029200
     13 HND         1.1570   -0.4150    2.2300 hn        1 XPC      0.327800
     14 HE          0.9880   -2.0160    0.3020 h1        1 XPC      0.048700
     15 HEA         1.8010   -0.6680    0.0340 h1        1 XPC      0.048700
     16 HA         -0.6670   -1.3470   -0.8660 hc        1 XPC      0.037700
     17 HNA        -2.1870    0.6800   -0.8330 hn        1 XPC      0.346300
     18 OXT         0.2890   -1.1290   -3.0380 o         1 XPC     -0.844800
@<TRIPOS>BOND
     1    1    2 1   
     2    1    9 1   
     3    1   17 1   
     4    2    3 1   
     5    2    6 1   
     6    2   10 1   
     7    3    4 1   
     8    3   11 1   
     9    3   12 1   
    10    4    5 1   
    11    4   13 1   
    12    5    6 1   
    13    5   14 1   
    14    5   15 1   
    15    6    7 1   
    16    6   16 1   
    17    7    8 1   
    18    7   18 1   
@<TRIPOS>SUBSTRUCTURE
     1 XPC         1 TEMP              0 ****  ****    0 ROOT
