@<TRIPOS>MOLECULE
XPE
   73    72     1     0     0
SMALL
bcc


@<TRIPOS>ATOM
      1 O1         -1.0260    2.6580   -0.6310 oh        1 XPE     -0.599800
      2 C2         -1.6720    1.9380    0.3980 c3        1 XPE      0.131400
      3 C3         -1.5020    0.4320    0.2240 c3        1 XPE      0.087400
      4 O4         -0.1140    0.1660    0.4080 os        1 XPE     -0.438600
      5 C5          0.2050   -1.2110    0.2180 c3        1 XPE      0.128400
      6 C6          1.6640   -1.3800    0.6300 c3        1 XPE      0.127400
      7 O7          1.6540   -2.0660    1.8800 os        1 XPE     -0.428600
      8 C8          2.9550   -2.1520    2.4590 c3        1 XPE      0.127400
      9 C9          2.8280   -3.0610    3.6780 c3        1 XPE      0.127400
     10 O10         3.4390   -4.3000    3.3250 os        1 XPE     -0.429600
     11 C11         3.2520   -5.2980    4.3260 c3        1 XPE      0.127400
     12 C12         4.1050   -6.4930    3.9120 c3        1 XPE      0.127400
     13 O13         5.2230   -6.5190    4.7960 os        1 XPE     -0.429600
     14 C14         6.1900   -7.4960    4.4160 c3        1 XPE      0.127400
     15 C15         7.2280   -7.5360    5.5320 c3        1 XPE      0.127400
     16 O16         7.0170   -8.7570    6.2380 os        1 XPE     -0.429600
     17 C17         7.8170   -8.8450    7.4150 c3        1 XPE      0.127400
     18 C18         7.6310  -10.2570    7.9610 c3        1 XPE      0.127400
     19 O19         8.8450  -10.9570    7.6950 os        1 XPE     -0.429600
     20 C20         8.7490  -12.3440    8.0140 c3        1 XPE      0.127400
     21 C21        10.1510  -12.9230    7.8540 c3        1 XPE      0.127400
     22 O22        10.6430  -13.1610    9.1710 os        1 XPE     -0.429600
     23 C23        12.0160  -13.5480    9.1720 c3        1 XPE      0.127400
     24 C24        12.3560  -13.9330   10.6080 c3        1 XPE      0.127400
     25 O25        12.4640  -15.3550   10.6310 os        1 XPE     -0.428600
     26 C26        12.6150  -15.8630   11.9550 c3        1 XPE      0.127400
     27 C27        12.8900  -17.3570   11.8160 c3        1 XPE      0.128400
     28 O28        14.2720  -17.5450   12.1190 os        1 XPE     -0.438600
     29 C29        14.7080  -18.8780   11.8600 c3        1 XPE      0.087400
     30 C30        16.1710  -18.9350   12.2860 c3        1 XPE      0.131400
     31 O31        16.3140  -18.7720   13.6820 oh        1 XPE     -0.599800
     32 HO1        -0.0970    2.3900   -0.6200 ho        1 XPE      0.412000
     33 H21        -1.2750    2.2560    1.3990 h1        1 XPE      0.053700
     34 H22        -2.7560    2.2110    0.3100 h1        1 XPE      0.053700
     35 H31A       -1.8150    0.1130   -0.8050 h1        1 XPE      0.039200
     36 H32        -2.1020   -0.1240    0.9910 h1        1 XPE      0.039200
     37 H51         0.0710   -1.4720   -0.8640 h1        1 XPE      0.045200
     38 H52        -0.4640   -1.8550    0.8490 h1        1 XPE      0.045200
     39 H61         2.2150   -1.9990   -0.1260 h1        1 XPE      0.043200
     40 H62         2.1660   -0.3820    0.7390 h1        1 XPE      0.043200
     41 H81         3.6830   -2.5790    1.7190 h1        1 XPE      0.044200
     42 H82         3.2880   -1.1270    2.7680 h1        1 XPE      0.044200
     43 H91         1.7490   -3.2210    3.9440 h1        1 XPE      0.043700
     44 H92         3.3710   -2.6180    4.5540 h1        1 XPE      0.043700
     45 H111        3.5730   -4.9080    5.3290 h1        1 XPE      0.043700
     46 H112        2.1680   -5.5850    4.3620 h1        1 XPE      0.043700
     47 H121        4.4510   -6.3850    2.8500 h1        1 XPE      0.043200
     48 H122        3.5240   -7.4460    4.0250 h1        1 XPE      0.043200
     49 H141        5.7010   -8.4980    4.2900 h1        1 XPE      0.043700
     50 H142        6.6670   -7.1850    3.4490 h1        1 XPE      0.043700
     51 H151        8.2640   -7.5330    5.1030 h1        1 XPE      0.043700
     52 H152        7.1030   -6.6600    6.2230 h1        1 XPE      0.043700
     53 H171        8.8950   -8.6520    7.1680 h1        1 XPE      0.043700
     54 H172        7.4600   -8.0860    8.1610 h1        1 XPE      0.043700
     55 H181        7.4580  -10.2280    9.0690 h1        1 XPE      0.043700
     56 H182        6.7690  -10.7680    7.4570 h1        1 XPE      0.043700
     57 H201        8.3810  -12.4760    9.0660 h1        1 XPE      0.043200
     58 H202        8.0380  -12.8370    7.3000 h1        1 XPE      0.043200
     59 H211       10.1110  -13.8940    7.2950 h1        1 XPE      0.043700
     60 H212       10.8200  -12.2020    7.3130 h1        1 XPE      0.043700
     61 H231       12.1760  -14.4150    8.4780 h1        1 XPE      0.043700
     62 H232       12.6440  -12.6790    8.8420 h1        1 XPE      0.043700
     63 H241       13.3390  -13.4850   10.9110 h1        1 XPE      0.044200
     64 H242       11.5520  -13.5930   11.3130 h1        1 XPE      0.044200
     65 H261       11.6640  -15.6930   12.5260 h1        1 XPE      0.043200
     66 H262       13.4650  -15.3470   12.4750 h1        1 XPE      0.043200
     67 H271       12.2720  -17.9400   12.5480 h1        1 XPE      0.045200
     68 H272       12.6710  -17.7070   10.7720 h1        1 XPE      0.045200
     69 H291       14.0910  -19.6000   12.4570 h1        1 XPE      0.039200
     70 H292       14.6060  -19.1060   10.7670 h1        1 XPE      0.039200
     71 H301       16.5920  -19.9520   12.0660 h1        1 XPE      0.053700
     72 H302       16.7600  -18.1490   11.7430 h1        1 XPE      0.053700
     73 H31        15.8990  -17.9300   13.9100 ho        1 XPE      0.412000
@<TRIPOS>BOND
     1    1    2 1   
     2    1   32 1   
     3    2    3 1   
     4    2   33 1   
     5    2   34 1   
     6    3    4 1   
     7    3   35 1   
     8    3   36 1   
     9    4    5 1   
    10    5    6 1   
    11    5   37 1   
    12    5   38 1   
    13    6    7 1   
    14    6   39 1   
    15    6   40 1   
    16    7    8 1   
    17    8    9 1   
    18    8   41 1   
    19    8   42 1   
    20    9   10 1   
    21    9   43 1   
    22    9   44 1   
    23   10   11 1   
    24   11   12 1   
    25   11   45 1   
    26   11   46 1   
    27   12   13 1   
    28   12   47 1   
    29   12   48 1   
    30   13   14 1   
    31   14   15 1   
    32   14   49 1   
    33   14   50 1   
    34   15   16 1   
    35   15   51 1   
    36   15   52 1   
    37   16   17 1   
    38   17   18 1   
    39   17   53 1   
    40   17   54 1   
    41   18   19 1   
    42   18   55 1   
    43   18   56 1   
    44   19   20 1   
    45   20   21 1   
    46   20   57 1   
    47   20   58 1   
    48   21   22 1   
    49   21   59 1   
    50   21   60 1   
    51   22   23 1   
    52   23   24 1   
    53   23   61 1   
    54   23   62 1   
    55   24   25 1   
    56   24   63 1   
    57   24   64 1   
    58   25   26 1   
    59   26   27 1   
    60   26   65 1   
    61   26   66 1   
    62   27   28 1   
    63   27   67 1   
    64   27   68 1   
    65   28   29 1   
    66   29   30 1   
    67   29   69 1   
    68   29   70 1   
    69   30   31 1   
    70   30   71 1   
    71   30   72 1   
    72   31   73 1   
@<TRIPOS>SUBSTRUCTURE
     1 XPE         1 TEMP              0 ****  ****    0 ROOT
