@<TRIPOS>MOLECULE
XPE
   73    72     1     0     0
SMALL
bcc


@<TRIPOS>ATOM
      1 O1         -1.0500    2.6140   -0.6860 oh        1 XPE     -0.599800
      2 C2         -1.6790    1.9170    0.3690 c3        1 XPE      0.131400
      3 C3         -1.5170    0.4070    0.2200 c3        1 XPE      0.087400
      4 O4         -0.1260    0.1400    0.3820 os        1 XPE     -0.438600
      5 C5          0.1850   -1.2420    0.2130 c3        1 XPE      0.128400
      6 C6          1.6500   -1.4090    0.6000 c3        1 XPE      0.127400
      7 O7          1.6620   -2.0700    1.8630 os        1 XPE     -0.428600
      8 C8          2.9740   -2.1520    2.4180 c3        1 XPE      0.127400
      9 C9          2.8660   -3.0340    3.6570 c3        1 XPE      0.127400
     10 O10         3.4610   -4.2840    3.3170 os        1 XPE     -0.429600
     11 C11         3.2870   -5.2610    4.3420 c3        1 XPE      0.127400
     12 C12         4.1200   -6.4710    3.9330 c3        1 XPE      0.127400
     13 O13         5.2530   -6.4940    4.7980 os        1 XPE     -0.429600
     14 C14         6.2030   -7.4880    4.4180 c3        1 XPE      0.127400
     15 C15         7.2590   -7.5220    5.5180 c3        1 XPE      0.127400
     16 O16         7.0440   -8.7280    6.2480 os        1 XPE     -0.429600
     17 C17         7.8640   -8.8070    7.4120 c3        1 XPE      0.127400
     18 C18         7.6670  -10.2060    7.9870 c3        1 XPE      0.127400
     19 O19         8.8640  -10.9300    7.7110 os        1 XPE     -0.429600
     20 C20         8.7520  -12.3100    8.0540 c3        1 XPE      0.127400
     21 C21        10.1410  -12.9150    7.8780 c3        1 XPE      0.127400
     22 O22        10.6510  -13.1460    9.1890 os        1 XPE     -0.429600
     23 C23        12.0160  -13.5570    9.1730 c3        1 XPE      0.127400
     24 C24        12.3730  -13.9330   10.6070 c3        1 XPE      0.127400
     25 O25        12.4520  -15.3570   10.6460 os        1 XPE     -0.428600
     26 C26        12.6150  -15.8530   11.9720 c3        1 XPE      0.127400
     27 C27        12.8560  -17.3530   11.8460 c3        1 XPE      0.128400
     28 O28        14.2380  -17.5680   12.1270 os        1 XPE     -0.438600
     29 C29        14.6400  -18.9130   11.8740 c3        1 XPE      0.087400
     30 C30        16.1100  -18.9970   12.2750 c3        1 XPE      0.131400
     31 O31        16.2810  -18.8230   13.6650 oh        1 XPE     -0.599800
     32 HO1        -0.1230    2.3440   -0.6880 ho        1 XPE      0.412000
     33 H21        -1.2620    2.2510    1.3560 h1        1 XPE      0.053700
     34 H22        -2.7640    2.1920    0.2960 h1        1 XPE      0.053700
     35 H31A       -1.8510    0.0690   -0.7960 h1        1 XPE      0.039200
     36 H32        -2.1030   -0.1320    1.0090 h1        1 XPE      0.039200
     37 H51         0.0290   -1.5240   -0.8620 h1        1 XPE      0.045200
     38 H52        -0.4740   -1.8710    0.8680 h1        1 XPE      0.045200
     39 H61         2.1840   -2.0450   -0.1540 h1        1 XPE      0.043200
     40 H62         2.1580   -0.4110    0.6800 h1        1 XPE      0.043200
     41 H81         3.6840   -2.5970    1.6730 h1        1 XPE      0.044200
     42 H82         3.3180   -1.1220    2.7000 h1        1 XPE      0.044200
     43 H91         1.7920   -3.1810    3.9500 h1        1 XPE      0.043700
     44 H92         3.4310   -2.5770    4.5120 h1        1 XPE      0.043700
     45 H111        3.6330   -4.8550    5.3290 h1        1 XPE      0.043700
     46 H112        2.2010   -5.5370    4.4060 h1        1 XPE      0.043700
     47 H121        4.4490   -6.3850    2.8630 h1        1 XPE      0.043200
     48 H122        3.5320   -7.4160    4.0720 h1        1 XPE      0.043200
     49 H141        5.7010   -8.4870    4.3160 h1        1 XPE      0.043700
     50 H142        6.6670   -7.1980    3.4380 h1        1 XPE      0.043700
     51 H151        8.2880   -7.5400    5.0720 h1        1 XPE      0.043700
     52 H152        7.1560   -6.6340    6.1960 h1        1 XPE      0.043700
     53 H171        8.9400   -8.6360    7.1420 h1        1 XPE      0.043700
     54 H172        7.5320   -8.0300    8.1500 h1        1 XPE      0.043700
     55 H181        7.5150  -10.1550    9.0970 h1        1 XPE      0.043700
     56 H182        6.7870  -10.7130    7.5080 h1        1 XPE      0.043700
     57 H201        8.4000  -12.4200    9.1140 h1        1 XPE      0.043200
     58 H202        8.0200  -12.8030    7.3610 h1        1 XPE      0.043200
     59 H211       10.0760  -13.8920    7.3310 h1        1 XPE      0.043700
     60 H212       10.8130  -12.2120    7.3170 h1        1 XPE      0.043700
     61 H231       12.1490  -14.4350    8.4860 h1        1 XPE      0.043700
     62 H232       12.6540  -12.7040    8.8220 h1        1 XPE      0.043700
     63 H241       13.3700  -13.5020   10.8880 h1        1 XPE      0.044200
     64 H242       11.5880  -13.5680   11.3220 h1        1 XPE      0.044200
     65 H261       11.6790  -15.6550   12.5580 h1        1 XPE      0.043200
     66 H262       13.4850  -15.3490   12.4710 h1        1 XPE      0.043200
     67 H271       12.2380  -17.9140   12.5970 h1        1 XPE      0.045200
     68 H272       12.6100  -17.7110   10.8110 h1        1 XPE      0.045200
     69 H291       14.0190  -19.6150   12.4900 h1        1 XPE      0.039200
     70 H292       14.5130  -19.1510   10.7860 h1        1 XPE      0.039200
     71 H301       16.5040  -20.0250   12.0580 h1        1 XPE      0.053700
     72 H302       16.7050  -18.2300   11.7120 h1        1 XPE      0.053700
     73 H31        15.8890  -17.9690   13.8920 ho        1 XPE      0.412000
@<TRIPOS>BOND
     1    1    2 1   
     2    1   32 1   
     3    2    3 1   
     4    2   33 1   
     5    2   34 1   
     6    3    4 1   
     7    3   35 1   
     8    3   36 1   
     9    4    5 1   
    10    5    6 1   
    11    5   37 1   
    12    5   38 1   
    13    6    7 1   
    14    6   39 1   
    15    6   40 1   
    16    7    8 1   
    17    8    9 1   
    18    8   41 1   
    19    8   42 1   
    20    9   10 1   
    21    9   43 1   
    22    9   44 1   
    23   10   11 1   
    24   11   12 1   
    25   11   45 1   
    26   11   46 1   
    27   12   13 1   
    28   12   47 1   
    29   12   48 1   
    30   13   14 1   
    31   14   15 1   
    32   14   49 1   
    33   14   50 1   
    34   15   16 1   
    35   15   51 1   
    36   15   52 1   
    37   16   17 1   
    38   17   18 1   
    39   17   53 1   
    40   17   54 1   
    41   18   19 1   
    42   18   55 1   
    43   18   56 1   
    44   19   20 1   
    45   20   21 1   
    46   20   57 1   
    47   20   58 1   
    48   21   22 1   
    49   21   59 1   
    50   21   60 1   
    51   22   23 1   
    52   23   24 1   
    53   23   61 1   
    54   23   62 1   
    55   24   25 1   
    56   24   63 1   
    57   24   64 1   
    58   25   26 1   
    59   26   27 1   
    60   26   65 1   
    61   26   66 1   
    62   27   28 1   
    63   27   67 1   
    64   27   68 1   
    65   28   29 1   
    66   29   30 1   
    67   29   69 1   
    68   29   70 1   
    69   30   31 1   
    70   30   71 1   
    71   30   72 1   
    72   31   73 1   
@<TRIPOS>SUBSTRUCTURE
     1 XPE         1 TEMP              0 ****  ****    0 ROOT
