@<TRIPOS>MOLECULE
XPE
   73    72     1     0     0
SMALL
bcc


@<TRIPOS>ATOM
      1 O1         -0.1020   -1.0600   15.5310 oh        1 XPE     -0.599800
      2 C2         -0.6750    0.0930   14.9500 c3        1 XPE      0.131400
      3 C3          0.2270    0.6870   13.8730 c3        1 XPE      0.087400
      4 O4          0.2690   -0.2710   12.8180 os        1 XPE     -0.438600
      5 C5          1.1280    0.1310   11.7530 c3        1 XPE      0.128400
      6 C6          0.9270   -0.8790   10.6280 c3        1 XPE      0.127400
      7 O7          0.1770   -0.2120    9.6150 os        1 XPE     -0.428600
      8 C8         -0.2160   -1.0940    8.5650 c3        1 XPE      0.127400
      9 C9         -0.8370   -0.2240    7.4770 c3        1 XPE      0.127400
     10 O10         0.1120   -0.1680    6.4130 os        1 XPE     -0.429600
     11 C11        -0.2780    0.7470    5.3910 c3        1 XPE      0.127400
     12 C12         0.7170    0.5690    4.2490 c3        1 XPE      0.127400
     13 O13         0.0200   -0.1120    3.2080 os        1 XPE     -0.429600
     14 C14         0.8830   -0.4870    2.1360 c3        1 XPE      0.127400
     15 C15        -0.0120   -1.0350    1.0300 c3        1 XPE      0.127400
     16 O16        -0.0340   -0.0490    0.0000 os        1 XPE     -0.429600
     17 C17        -0.9690   -0.3650   -1.0300 c3        1 XPE      0.127400
     18 C18        -0.7590    0.6640   -2.1360 c3        1 XPE      0.127400
     19 O19        -0.1120   -0.0190   -3.2080 os        1 XPE     -0.429600
     20 C20         0.2900    0.8690   -4.2490 c3        1 XPE      0.127400
     21 C21         0.7970   -0.0050   -5.3910 c3        1 XPE      0.127400
     22 O22        -0.1960    0.0480   -6.4130 os        1 XPE     -0.429600
     23 C23         0.0750   -0.8620   -7.4770 c3        1 XPE      0.127400
     24 C24        -0.9550   -0.5760   -8.5650 c3        1 XPE      0.127400
     25 O25        -0.2600    0.0950   -9.6150 os        1 XPE     -0.428600
     26 C26        -1.1430    0.5720  -10.6280 c3        1 XPE      0.127400
     27 C27        -0.2620    1.1050  -11.7520 c3        1 XPE      0.128400
     28 O28        -0.3460    0.1610  -12.8180 os        1 XPE     -0.438600
     29 C29         0.5690    0.4490  -13.8730 c3        1 XPE      0.087400
     30 C30         0.3180   -0.6010  -14.9500 c3        1 XPE      0.131400
     31 O31        -0.9610   -0.4560  -15.5310 oh        1 XPE     -0.599800
     32 HO1         0.0680   -1.6820   14.8120 ho        1 XPE      0.412000
     33 H21        -0.7880    0.8210   15.7960 h1        1 XPE      0.053700
     34 H22        -1.6800   -0.1530   14.5160 h1        1 XPE      0.053700
     35 H31A        1.2620    0.8580   14.2700 h1        1 XPE      0.039200
     36 H32        -0.1970    1.6530   13.4930 h1        1 XPE      0.039200
     37 H51         2.1900    0.1120   12.1120 h1        1 XPE      0.045200
     38 H52         0.8630    1.1660   11.4100 h1        1 XPE      0.045200
     39 H61         0.3670   -1.7800   10.9950 h1        1 XPE      0.043200
     40 H62         1.9170   -1.1960   10.2060 h1        1 XPE      0.043200
     41 H81        -0.9710   -1.8230    8.9610 h1        1 XPE      0.044200
     42 H82         0.6750   -1.6510    8.1700 h1        1 XPE      0.044200
     43 H91        -1.0470    0.8080    7.8650 h1        1 XPE      0.043700
     44 H92        -1.7860   -0.6870    7.1000 h1        1 XPE      0.043700
     45 H111       -0.2270    1.7930    5.7950 h1        1 XPE      0.043700
     46 H112       -1.3230    0.5250    5.0480 h1        1 XPE      0.043700
     47 H121        1.6030   -0.0330    4.5820 h1        1 XPE      0.043200
     48 H122        1.0600    1.5680    3.8700 h1        1 XPE      0.043200
     49 H141        1.5930   -1.2790    2.4940 h1        1 XPE      0.043700
     50 H142        1.4630    0.4040    1.7740 h1        1 XPE      0.043700
     51 H151       -1.0510   -1.2200    1.4130 h1        1 XPE      0.043700
     52 H152        0.4140   -1.9880    0.6180 h1        1 XPE      0.043700
     53 H171       -2.0100   -0.2900   -0.6180 h1        1 XPE      0.043700
     54 H172       -0.7880   -1.4040   -1.4130 h1        1 XPE      0.043700
     55 H181       -0.1200    1.5130   -1.7740 h1        1 XPE      0.043700
     56 H182       -1.7460    1.0600   -2.4940 h1        1 XPE      0.043700
     57 H201        1.1120    1.5320   -3.8690 h1        1 XPE      0.043200
     58 H202       -0.5780    1.4960   -4.5820 h1        1 XPE      0.043200
     59 H211        0.9450   -1.0630   -5.0480 h1        1 XPE      0.043700
     60 H212        1.7630    0.3990   -5.7950 h1        1 XPE      0.043700
     61 H231       -0.0360   -1.9130   -7.1000 h1        1 XPE      0.043700
     62 H232        1.1170   -0.7080   -7.8650 h1        1 XPE      0.043700
     63 H241       -1.7820    0.0720   -8.1700 h1        1 XPE      0.044200
     64 H242       -1.3820   -1.5350   -8.9610 h1        1 XPE      0.044200
     65 H261       -1.7790    1.3940  -10.2060 h1        1 XPE      0.043200
     66 H262       -1.7980   -0.2620  -10.9950 h1        1 XPE      0.043200
     67 H271        0.8020    1.2100  -11.4100 h1        1 XPE      0.045200
     68 H272       -0.6430    2.0980  -12.1120 h1        1 XPE      0.045200
     69 H291        1.6220    0.3800  -13.4930 h1        1 XPE      0.039200
     70 H292        0.3760    1.4800  -14.2690 h1        1 XPE      0.039200
     71 H301        0.4300   -1.6300  -14.5160 h1        1 XPE      0.053700
     72 H302        1.0420   -0.4590  -15.7960 h1        1 XPE      0.053700
     73 H31        -1.6040   -0.5090  -14.8120 ho        1 XPE      0.412000
@<TRIPOS>BOND
     1    1    2 1   
     2    1   32 1   
     3    2    3 1   
     4    2   33 1   
     5    2   34 1   
     6    3    4 1   
     7    3   35 1   
     8    3   36 1   
     9    4    5 1   
    10    5    6 1   
    11    5   37 1   
    12    5   38 1   
    13    6    7 1   
    14    6   39 1   
    15    6   40 1   
    16    7    8 1   
    17    8    9 1   
    18    8   41 1   
    19    8   42 1   
    20    9   10 1   
    21    9   43 1   
    22    9   44 1   
    23   10   11 1   
    24   11   12 1   
    25   11   45 1   
    26   11   46 1   
    27   12   13 1   
    28   12   47 1   
    29   12   48 1   
    30   13   14 1   
    31   14   15 1   
    32   14   49 1   
    33   14   50 1   
    34   15   16 1   
    35   15   51 1   
    36   15   52 1   
    37   16   17 1   
    38   17   18 1   
    39   17   53 1   
    40   17   54 1   
    41   18   19 1   
    42   18   55 1   
    43   18   56 1   
    44   19   20 1   
    45   20   21 1   
    46   20   57 1   
    47   20   58 1   
    48   21   22 1   
    49   21   59 1   
    50   21   60 1   
    51   22   23 1   
    52   23   24 1   
    53   23   61 1   
    54   23   62 1   
    55   24   25 1   
    56   24   63 1   
    57   24   64 1   
    58   25   26 1   
    59   26   27 1   
    60   26   65 1   
    61   26   66 1   
    62   27   28 1   
    63   27   67 1   
    64   27   68 1   
    65   28   29 1   
    66   29   30 1   
    67   29   69 1   
    68   29   70 1   
    69   30   31 1   
    70   30   71 1   
    71   30   72 1   
    72   31   73 1   
@<TRIPOS>SUBSTRUCTURE
     1 XPE         1 TEMP              0 ****  ****    0 ROOT
