@<TRIPOS>MOLECULE
XPF
   47    49     1     0     0
SMALL
bcc


@<TRIPOS>ATOM
      1 C21        -0.0930    0.0640    0.3810 cc        1 XPF     -0.099100
      2 C18        -2.0060   -0.8480   -0.8910 ca        1 XPF     -0.095500
      3 C16        -0.5960    0.8410   -1.9100 ca        1 XPF     -0.095500
      4 C19        -2.7890   -0.8980   -2.0400 ca        1 XPF     -0.141000
      5 C25         0.9520   -0.1780    4.0490 cg        1 XPF      0.243800
      6 C23         1.7590    0.3610    1.7640 cd        1 XPF     -0.106000
      7 C15        -1.3740    0.8080   -3.0640 ca        1 XPF     -0.141000
      8 C22         1.2520    0.4160    0.4380 cd        1 XPF     -0.136000
      9 C24         0.7760   -0.0300    2.6660 cc        1 XPF     -0.041100
     10 C17        -0.9020    0.0190   -0.8120 ca        1 XPF      0.017000
     11 C14        -2.4650   -0.0670   -3.1180 ca        1 XPF      0.067100
     12 C5         -6.4300   -0.0990   -5.7550 c3        1 XPF      0.097400
     13 C3         -5.1160   -1.5720   -4.5290 c3        1 XPF      0.088400
     14 C1         -5.2100    0.7530   -5.3160 c3        1 XPF      0.061500
     15 C2         -4.5710   -0.1640   -4.2170 c3        1 XPF      0.103100
     16 C11        -3.0080    1.5210   -9.2020 c3        1 XPF     -0.101600
     17 C12        -3.6500    3.9200   -9.2780 c3        1 XPF     -0.101600
     18 C10        -3.4280    2.7150   -8.3700 c3        1 XPF     -0.317900
     19 N26         1.1030   -0.3000    5.1970 n1        1 XPF     -0.322800
     20 N6         -4.2920    1.0400   -6.4550 ny        1 XPF     -0.705900
     21 O8         -5.0920    3.4650   -6.5660 o         1 XPF     -0.554800
     22 O9         -5.8840    1.9200   -8.2400 o         1 XPF     -0.554800
     23 O4         -6.0060   -1.4540   -5.6460 os        1 XPF     -0.391600
     24 O13        -3.1530   -0.1370   -4.3330 os        1 XPF     -0.369900
     25 S20        -0.6870   -0.3120    1.9040 ss        1 XPF      0.116200
     26 S7         -4.8550    2.4740   -7.5010 s6        1 XPF      1.356900
     27 H1         -2.2470   -1.5050   -0.0400 ha        1 XPF      0.155500
     28 H2          0.2670    1.5240   -1.8550 ha        1 XPF      0.155500
     29 H3         -3.6440   -1.5880   -2.1050 ha        1 XPF      0.140000
     30 H4          2.7930    0.5970    2.0290 ha        1 XPF      0.176000
     31 H5         -1.1280    1.4460   -3.9240 ha        1 XPF      0.140000
     32 H6          1.8640    0.6910   -0.4240 ha        1 XPF      0.162000
     33 H7         -7.2810    0.1000   -5.0520 h1        1 XPF      0.101200
     34 H8         -6.7610    0.0440   -6.8160 h1        1 XPF      0.101200
     35 H9         -4.3110   -2.2840   -4.8440 h1        1 XPF      0.091700
     36 H10        -5.6880   -1.9840   -3.6580 h1        1 XPF      0.091700
     37 H11        -5.5170    1.7410   -4.8680 hx        1 XPF      0.133700
     38 H12        -4.9090    0.1930   -3.2080 h1        1 XPF      0.106700
     39 H13        -3.8830    1.0930   -9.7530 hc        1 XPF      0.080200
     40 H14        -2.2500    1.8340   -9.9660 hc        1 XPF      0.080200
     41 H15        -2.5340    0.7310   -8.5710 hc        1 XPF      0.080200
     42 H16        -4.4220    3.6920  -10.0550 hc        1 XPF      0.080200
     43 H17        -3.9600    4.8140   -8.6810 hc        1 XPF      0.080200
     44 H18        -2.6980    4.1740   -9.8070 hc        1 XPF      0.080200
     45 H19        -2.5560    2.9880   -7.7020 h1        1 XPF      0.149700
     46 H20        -4.2260    0.1820   -7.0110 hn        1 XPF      0.467800
     47 H62        -3.3600    1.1970   -6.0560 hn        1 XPF      0.467800
@<TRIPOS>BOND
     1    1    8 2   
     2    1   10 1   
     3    1   25 1   
     4    2    4 ar  
     5    2   10 ar  
     6    2   27 1   
     7    3    7 ar  
     8    3   10 ar  
     9    3   28 1   
    10    4   11 ar  
    11    4   29 1   
    12    5    9 1   
    13    5   19 3   
    14    6    8 1   
    15    6    9 2   
    16    6   30 1   
    17    7   11 ar  
    18    7   31 1   
    19    8   32 1   
    20    9   25 1   
    21   11   24 1   
    22   12   14 1   
    23   12   23 1   
    24   12   33 1   
    25   12   34 1   
    26   13   15 1   
    27   13   23 1   
    28   13   35 1   
    29   13   36 1   
    30   14   15 1   
    31   14   20 1   
    32   14   37 1   
    33   15   24 1   
    34   15   38 1   
    35   16   18 1   
    36   16   39 1   
    37   16   40 1   
    38   16   41 1   
    39   17   18 1   
    40   17   42 1   
    41   17   43 1   
    42   17   44 1   
    43   18   26 1   
    44   18   45 1   
    45   20   26 1   
    46   20   46 1   
    47   20   47 1   
    48   21   26 2   
    49   22   26 2   
@<TRIPOS>SUBSTRUCTURE
     1 XPF         1 TEMP              0 ****  ****    0 ROOT
