@<TRIPOS>MOLECULE
XPG
   58    58     1     0     0
SMALL
bcc


@<TRIPOS>ATOM
      1 C20         0.1010   -0.2300   -0.1090 c3        1 XPG     -0.092100
      2 C19         1.5680    0.1020   -0.0310 c3        1 XPG     -0.080400
      3 C18         2.1270   -0.1700    1.3500 c3        1 XPG     -0.078400
      4 C17         3.6020    0.1610    1.4210 c3        1 XPG     -0.080400
      5 C16         4.1540   -0.1000    2.8050 c3        1 XPG     -0.069400
      6 C15         5.6570    0.1780    2.8620 c3        1 XPG      0.172300
      7 O15         6.2930   -0.8640    2.1280 oh        1 XPG     -0.602800
      8 C14         6.1230    0.2640    4.2800 c2        1 XPG     -0.200200
      9 C13         6.9050   -0.6390    4.8740 c2        1 XPG     -0.153200
     10 C12         7.3720   -0.5190    6.2800 c3        1 XPG     -0.033500
     11 C11         6.8880   -1.7170    7.1280 c3        1 XPG      0.146100
     12 O11         5.8160   -1.2520    7.9350 oh        1 XPG     -0.593800
     13 C10         8.0730   -2.1840    7.9760 c3        1 XPG     -0.232400
     14 C9          9.2980   -1.5100    7.4160 c         1 XPG      0.580100
     15 O9         10.4460   -1.7790    7.7640 o         1 XPG     -0.517100
     16 C8          8.9090   -0.5000    6.3590 c3        1 XPG     -0.159700
     17 C7          9.4310    0.8940    6.6620 c3        1 XPG     -0.062400
     18 C6         10.9080    1.0330    6.3540 c3        1 XPG     -0.087400
     19 C5         11.3870    2.4420    6.6280 c3        1 XPG     -0.077400
     20 C4         12.8410    2.6210    6.2430 c3        1 XPG     -0.078400
     21 C3         13.2890    4.0550    6.4390 c3        1 XPG     -0.066400
     22 C2         14.7320    4.2550    6.0490 c3        1 XPG     -0.193400
     23 C1         15.1020    5.7480    6.0180 c         1 XPG      0.907600
     24 O1A        16.1990    6.0940    6.5440 o         1 XPG     -0.853800
     25 O1B        14.3070    6.5560    5.4540 o         1 XPG     -0.853800
     26 H1         -0.4820    0.3820    0.6210 hc        1 XPG      0.030367
     27 H2         -0.0730   -1.3090    0.1220 hc        1 XPG      0.030367
     28 H3         -0.2910   -0.0220   -1.1340 hc        1 XPG      0.030367
     29 H4          2.1330   -0.5050   -0.7870 hc        1 XPG      0.039200
     30 H5          1.7250    1.1820   -0.2910 hc        1 XPG      0.039200
     31 H6          1.9700   -1.2500    1.6120 hc        1 XPG      0.038200
     32 H7          1.5670    0.4380    2.1080 hc        1 XPG      0.038200
     33 H8          3.7600    1.2370    1.1460 hc        1 XPG      0.047200
     34 H9          4.1690   -0.4600    0.6770 hc        1 XPG      0.047200
     35 H10         3.9710   -1.1670    3.0920 hc        1 XPG      0.051700
     36 H11         3.6410    0.5560    3.5550 hc        1 XPG      0.051700
     37 H12         5.8790    1.1630    2.3540 h1        1 XPG      0.042700
     38 H13         7.2410   -0.6860    2.1620 ho        1 XPG      0.403000
     39 H14         5.7610    1.1570    4.8170 ha        1 XPG      0.133000
     40 H15         7.2500   -1.5380    4.3350 ha        1 XPG      0.127000
     41 H16         6.9600    0.4200    6.7480 hc        1 XPG      0.087700
     42 H17         6.5210   -2.5520    6.4700 h1        1 XPG      0.042700
     43 H18         5.5250   -2.0020    8.4660 ho        1 XPG      0.398000
     44 H19         8.1900   -3.2950    7.9430 hc        1 XPG      0.080200
     45 H20         7.9390   -1.8780    9.0460 hc        1 XPG      0.080200
     46 H21         9.3490   -0.8460    5.3820 hc        1 XPG      0.082700
     47 H22         9.2450    1.1430    7.7390 hc        1 XPG      0.046200
     48 H23         8.8550    1.6350    6.0440 hc        1 XPG      0.046200
     49 H24        11.0920    0.7780    5.2770 hc        1 XPG      0.046700
     50 H25        11.4910    0.3000    6.9730 hc        1 XPG      0.046700
     51 H26        10.7590    3.1730    6.0530 hc        1 XPG      0.035700
     52 H27        11.2560    2.6790    7.7170 hc        1 XPG      0.035700
     53 H28        13.4800    1.9360    6.8590 hc        1 XPG      0.028200
     54 H29        12.9820    2.3290    5.1700 hc        1 XPG      0.028200
     55 H30        12.6530    4.7450    5.8220 hc        1 XPG      0.043700
     56 H31        13.1480    4.3470    7.5130 hc        1 XPG      0.043700
     57 H32        14.9130    3.8380    5.0250 hc        1 XPG      0.019200
     58 H33        15.4080    3.7200    6.7620 hc        1 XPG      0.019200
@<TRIPOS>BOND
     1    1    2 1   
     2    1   26 1   
     3    1   27 1   
     4    1   28 1   
     5    2    3 1   
     6    2   29 1   
     7    2   30 1   
     8    3    4 1   
     9    3   31 1   
    10    3   32 1   
    11    4    5 1   
    12    4   33 1   
    13    4   34 1   
    14    5    6 1   
    15    5   35 1   
    16    5   36 1   
    17    6    7 1   
    18    6    8 1   
    19    6   37 1   
    20    7   38 1   
    21    8    9 2   
    22    8   39 1   
    23    9   10 1   
    24    9   40 1   
    25   10   11 1   
    26   10   16 1   
    27   10   41 1   
    28   11   12 1   
    29   11   13 1   
    30   11   42 1   
    31   12   43 1   
    32   13   14 1   
    33   13   44 1   
    34   13   45 1   
    35   14   15 2   
    36   14   16 1   
    37   16   17 1   
    38   16   46 1   
    39   17   18 1   
    40   17   47 1   
    41   17   48 1   
    42   18   19 1   
    43   18   49 1   
    44   18   50 1   
    45   19   20 1   
    46   19   51 1   
    47   19   52 1   
    48   20   21 1   
    49   20   53 1   
    50   20   54 1   
    51   21   22 1   
    52   21   55 1   
    53   21   56 1   
    54   22   23 1   
    55   22   57 1   
    56   22   58 1   
    57   23   24 1   
    58   23   25 1   
@<TRIPOS>SUBSTRUCTURE
     1 XPG         1 TEMP              0 ****  ****    0 ROOT
