@<TRIPOS>MOLECULE
XPG
   58    58     1     0     0
SMALL
bcc


@<TRIPOS>ATOM
      1 C20         0.2290   -1.0910    1.9290 c3        1 XPG     -0.091100
      2 C19         1.6810   -1.0320    1.5300 c3        1 XPG     -0.080400
      3 C18         2.4740   -0.1270    2.4480 c3        1 XPG     -0.078400
      4 C17         3.9300   -0.0690    2.0390 c3        1 XPG     -0.074400
      5 C16         4.7220    0.8280    2.9640 c3        1 XPG     -0.075400
      6 C15         6.1950    0.9200    2.5690 c3        1 XPG      0.172300
      7 O15         6.2390    1.4430    1.2430 oh        1 XPG     -0.601800
      8 C14         6.8780   -0.4090    2.6320 c2        1 XPG     -0.193200
      9 C13         7.3390   -1.0000    3.7370 c2        1 XPG     -0.156200
     10 C12         7.2650   -0.4510    5.1150 c3        1 XPG     -0.037500
     11 C11         6.3250   -1.3050    5.9970 c3        1 XPG      0.147100
     12 O11         5.1110   -0.5800    6.1340 oh        1 XPG     -0.595800
     13 C10         7.0220   -1.5050    7.3440 c3        1 XPG     -0.232400
     14 C9          8.4590   -1.0940    7.1510 c         1 XPG      0.580100
     15 O9          9.3450   -1.2920    7.9800 o         1 XPG     -0.515100
     16 C8          8.6460   -0.4490    5.7950 c3        1 XPG     -0.160700
     17 C7          9.2130    0.9580    5.8930 c3        1 XPG     -0.062400
     18 C6         10.6980    0.9570    6.1870 c3        1 XPG     -0.087400
     19 C5         11.2390    2.3700    6.2490 c3        1 XPG     -0.077400
     20 C4         12.7350    2.3840    6.4800 c3        1 XPG     -0.078400
     21 C3         13.2800    3.7960    6.4760 c3        1 XPG     -0.065400
     22 C2         14.7750    3.8240    6.6780 c3        1 XPG     -0.194400
     23 C1         15.2940    5.2680    6.8080 c         1 XPG      0.907600
     24 O1A        16.3310    5.5810    6.1560 o         1 XPG     -0.853300
     25 O1B        14.6740    6.0660    7.5690 o         1 XPG     -0.853300
     26 H1         -0.2320   -0.0750    1.8880 hc        1 XPG      0.029700
     27 H2          0.1220   -1.4820    2.9700 hc        1 XPG      0.029700
     28 H3         -0.3370   -1.7640    1.2400 hc        1 XPG      0.029700
     29 H4          1.7670   -0.6610    0.4740 hc        1 XPG      0.037700
     30 H5          2.1200   -2.0650    1.5520 hc        1 XPG      0.037700
     31 H6          2.3940   -0.4980    3.5030 hc        1 XPG      0.038700
     32 H7          2.0370    0.9050    2.4260 hc        1 XPG      0.038700
     33 H8          4.3700   -1.1020    2.0520 hc        1 XPG      0.045700
     34 H9          4.0180    0.3150    0.9880 hc        1 XPG      0.045700
     35 H10         4.6710    0.4430    4.0190 hc        1 XPG      0.059700
     36 H11         4.2870    1.8610    2.9450 hc        1 XPG      0.059700
     37 H12         6.7120    1.6510    3.2600 h1        1 XPG      0.043700
     38 H13         7.1710    1.5610    1.0240 ho        1 XPG      0.401000
     39 H14         6.9810   -0.9070    1.6530 ha        1 XPG      0.130000
     40 H15         7.8280   -1.9880    3.6630 ha        1 XPG      0.119000
     41 H16         6.8540    0.5980    5.1000 hc        1 XPG      0.087700
     42 H17         6.1120   -2.2970    5.5130 h1        1 XPG      0.041700
     43 H18         4.5370   -1.1070    6.7020 ho        1 XPG      0.399000
     44 H19         6.9620   -2.5670    7.6860 hc        1 XPG      0.080700
     45 H20         6.5560   -0.8570    8.1320 hc        1 XPG      0.080700
     46 H21         9.3660   -1.0880    5.2110 hc        1 XPG      0.083700
     47 H22         8.6690    1.5300    6.6890 hc        1 XPG      0.045200
     48 H23         9.0290    1.4850    4.9180 hc        1 XPG      0.045200
     49 H24        11.2400    0.3840    5.3890 hc        1 XPG      0.047200
     50 H25        10.8870    0.4300    7.1600 hc        1 XPG      0.047200
     51 H26        10.7280    2.9330    7.0740 hc        1 XPG      0.035700
     52 H27        11.0040    2.9040    5.2910 hc        1 XPG      0.035700
     53 H28        13.2430    1.7820    5.6810 hc        1 XPG      0.028200
     54 H29        12.9670    1.8920    7.4610 hc        1 XPG      0.028200
     55 H30        13.0270    4.2920    5.5020 hc        1 XPG      0.043700
     56 H31        12.7960    4.4010    7.2880 hc        1 XPG      0.043700
     57 H32        15.2940    3.3200    5.8240 hc        1 XPG      0.019200
     58 H33        15.0450    3.2770    7.6160 hc        1 XPG      0.019200
@<TRIPOS>BOND
     1    1    2 1   
     2    1   26 1   
     3    1   27 1   
     4    1   28 1   
     5    2    3 1   
     6    2   29 1   
     7    2   30 1   
     8    3    4 1   
     9    3   31 1   
    10    3   32 1   
    11    4    5 1   
    12    4   33 1   
    13    4   34 1   
    14    5    6 1   
    15    5   35 1   
    16    5   36 1   
    17    6    7 1   
    18    6    8 1   
    19    6   37 1   
    20    7   38 1   
    21    8    9 2   
    22    8   39 1   
    23    9   10 1   
    24    9   40 1   
    25   10   11 1   
    26   10   16 1   
    27   10   41 1   
    28   11   12 1   
    29   11   13 1   
    30   11   42 1   
    31   12   43 1   
    32   13   14 1   
    33   13   44 1   
    34   13   45 1   
    35   14   15 2   
    36   14   16 1   
    37   16   17 1   
    38   16   46 1   
    39   17   18 1   
    40   17   47 1   
    41   17   48 1   
    42   18   19 1   
    43   18   49 1   
    44   18   50 1   
    45   19   20 1   
    46   19   51 1   
    47   19   52 1   
    48   20   21 1   
    49   20   53 1   
    50   20   54 1   
    51   21   22 1   
    52   21   55 1   
    53   21   56 1   
    54   22   23 1   
    55   22   57 1   
    56   22   58 1   
    57   23   24 1   
    58   23   25 1   
@<TRIPOS>SUBSTRUCTURE
     1 XPG         1 TEMP              0 ****  ****    0 ROOT
