@<TRIPOS>MOLECULE
XPH
   23    23     1     0     0
SMALL
bcc


@<TRIPOS>ATOM
      1 O3         -3.3890   -0.6320    0.0920 o         1 XPH     -0.939500
      2 P          -2.1660   -0.3870   -0.7610 p5        1 XPH      1.199700
      3 O2         -2.4130    0.4330   -2.0050 o         1 XPH     -0.939500
      4 CA         -1.1780    0.7510    0.2760 c3        1 XPH     -0.056700
      5 CB         -0.0430    1.2850   -0.5730 c3        1 XPH     -0.010100
      6 CG          1.2830    0.7060   -0.2150 ca        1 XPH     -0.021300
      7 CD2         1.4430   -0.6940   -0.2080 ca        1 XPH     -0.150000
      8 CE2         2.6790   -1.2490    0.0970 ca        1 XPH     -0.164500
      9 CZ          3.7740   -0.4310    0.3980 ca        1 XPH     -0.186000
     10 CE1         3.6210    0.9510    0.3950 ca        1 XPH     -0.164500
     11 CD1         2.3800    1.5180    0.0890 ca        1 XPH     -0.150000
     12 N          -2.1000    1.7780    0.7420 n3        1 XPH     -0.900800
     13 O1         -1.2710   -1.5960   -0.9540 o         1 XPH     -0.939500
     14 HA         -0.7840    0.2030    1.1650 h1        1 XPH      0.034700
     15 HB3        -0.2810    1.0200   -1.6470 hc        1 XPH      0.044700
     16 HB2         0.0320    2.4070   -0.5210 hc        1 XPH      0.044700
     17 HD2         0.5250   -1.3100   -0.4590 ha        1 XPH      0.187500
     18 HE2         2.7980   -2.3410    0.1020 ha        1 XPH      0.091500
     19 HG          4.7480   -0.8780    0.6380 ha        1 XPH      0.081000
     20 HE1         4.4740    1.6010    0.6330 ha        1 XPH      0.091500
     21 HD1         2.2660    2.6110    0.0940 ha        1 XPH      0.187500
     22 H          -2.4860    2.1950   -0.0920 hn        1 XPH      0.329800
     23 H2         -2.8660    1.2660    1.1630 hn        1 XPH      0.329800
@<TRIPOS>BOND
     1    1    2 1   
     2    2    3 1   
     3    2    4 1   
     4    2   13 1   
     5    4    5 1   
     6    4   12 1   
     7    4   14 1   
     8    5    6 1   
     9    5   15 1   
    10    5   16 1   
    11    6    7 ar  
    12    6   11 ar  
    13    7    8 ar  
    14    7   17 1   
    15    8    9 ar  
    16    8   18 1   
    17    9   10 ar  
    18    9   19 1   
    19   10   11 ar  
    20   10   20 1   
    21   11   21 1   
    22   12   22 1   
    23   12   23 1   
@<TRIPOS>SUBSTRUCTURE
     1 XPH         1 TEMP              0 ****  ****    0 ROOT
