@<TRIPOS>MOLECULE
XPM
   51    50     1     0     0
SMALL
bcc


@<TRIPOS>ATOM
      1 C1          0.2450    0.1770   -0.0260 c         1 XPM      0.928100
      2 O1          1.0300    1.1590   -0.1910 o         1 XPM     -0.889050
      3 C2         -0.6670    0.0780    1.2100 c3        1 XPM     -0.257700
      4 O2          0.2590   -0.8120   -0.8310 o         1 XPM     -0.889050
      5 C3          0.2050   -0.0140    2.4520 c3        1 XPM     -0.043400
      6 C4          0.9800   -1.3170    2.4930 c3        1 XPM     -0.086400
      7 C5          2.0030   -1.3230    3.6100 c3        1 XPM     -0.074400
      8 C6          2.7690   -2.6290    3.6550 c3        1 XPM     -0.079400
      9 C7          3.8040   -2.6300    4.7590 c3        1 XPM     -0.078400
     10 C8          4.5690   -3.9360    4.8010 c3        1 XPM     -0.079400
     11 C9          5.6050   -3.9360    5.9050 c3        1 XPM     -0.078400
     12 CA          6.3700   -5.2420    5.9450 c3        1 XPM     -0.079400
     13 CB          7.4060   -5.2410    7.0490 c3        1 XPM     -0.078400
     14 CC          8.1690   -6.5470    7.0890 c3        1 XPM     -0.079400
     15 CD          9.2060   -6.5460    8.1930 c3        1 XPM     -0.079400
     16 CE          9.9690   -7.8520    8.2330 c3        1 XPM     -0.079400
     17 CF         11.0060   -7.8520    9.3360 c3        1 XPM     -0.080400
     18 CG         11.7690   -9.1510    9.3800 c3        1 XPM     -0.091100
     19 C2A        -1.7100    1.1940    1.3830 c         1 XPM      0.928100
     20 O2A        -1.5720    2.0520    2.3130 o         1 XPM     -0.889050
     21 O2B        -2.7550    1.1800    0.6610 o         1 XPM     -0.889050
     22 H2         -1.2520   -0.8780    1.1020 hc        1 XPM      0.022700
     23 H3          0.9120    0.8560    2.4430 hc        1 XPM      0.033700
     24 H3A        -0.4300    0.0790    3.3710 hc        1 XPM      0.033700
     25 H4          1.4870   -1.4620    1.5010 hc        1 XPM      0.041700
     26 H4A         0.2720   -2.1750    2.6330 hc        1 XPM      0.041700
     27 H5          2.7190   -0.4730    3.4600 hc        1 XPM      0.027200
     28 H5A         1.4910   -1.1550    4.5940 hc        1 XPM      0.027200
     29 H6          2.0530   -3.4790    3.8100 hc        1 XPM      0.034700
     30 H6A         3.2720   -2.7980    2.6660 hc        1 XPM      0.034700
     31 H7          3.3000   -2.4580    5.7470 hc        1 XPM      0.032700
     32 H7A         4.5190   -1.7800    4.6020 hc        1 XPM      0.032700
     33 H8          3.8530   -4.7850    4.9580 hc        1 XPM      0.036200
     34 H8A         5.0720   -4.1070    3.8130 hc        1 XPM      0.036200
     35 H9          6.3210   -3.0860    5.7470 hc        1 XPM      0.035700
     36 H9A         5.1020   -3.7640    6.8930 hc        1 XPM      0.035700
     37 HA          5.6540   -6.0910    6.1020 hc        1 XPM      0.037200
     38 HAA         6.8720   -5.4130    4.9570 hc        1 XPM      0.037200
     39 HB          8.1210   -4.3910    6.8910 hc        1 XPM      0.037200
     40 HBA         6.9020   -5.0690    8.0370 hc        1 XPM      0.037200
     41 HC          8.6720   -6.7180    6.1010 hc        1 XPM      0.038200
     42 HCA         7.4530   -7.3960    7.2460 hc        1 XPM      0.038200
     43 HD          9.9210   -5.6970    8.0350 hc        1 XPM      0.038200
     44 HDA         8.7020   -6.3740    9.1800 hc        1 XPM      0.038200
     45 HE          9.2530   -8.7010    8.3900 hc        1 XPM      0.038200
     46 HEA        10.4720   -8.0240    7.2450 hc        1 XPM      0.038200
     47 HF         10.5010   -7.6780   10.3230 hc        1 XPM      0.037200
     48 HFA        11.7200   -7.0010    9.1770 hc        1 XPM      0.037200
     49 HG         11.0760  -10.0080    9.5620 hc        1 XPM      0.029033
     50 HGA        12.2990   -9.3290    8.4130 hc        1 XPM      0.029033
     51 HGB        12.5270   -9.1300   10.1990 hc        1 XPM      0.029033
@<TRIPOS>BOND
     1    1    2 1   
     2    1    3 1   
     3    1    4 1   
     4    3    5 1   
     5    3   19 1   
     6    3   22 1   
     7    5    6 1   
     8    5   23 1   
     9    5   24 1   
    10    6    7 1   
    11    6   25 1   
    12    6   26 1   
    13    7    8 1   
    14    7   27 1   
    15    7   28 1   
    16    8    9 1   
    17    8   29 1   
    18    8   30 1   
    19    9   10 1   
    20    9   31 1   
    21    9   32 1   
    22   10   11 1   
    23   10   33 1   
    24   10   34 1   
    25   11   12 1   
    26   11   35 1   
    27   11   36 1   
    28   12   13 1   
    29   12   37 1   
    30   12   38 1   
    31   13   14 1   
    32   13   39 1   
    33   13   40 1   
    34   14   15 1   
    35   14   41 1   
    36   14   42 1   
    37   15   16 1   
    38   15   43 1   
    39   15   44 1   
    40   16   17 1   
    41   16   45 1   
    42   16   46 1   
    43   17   18 1   
    44   17   47 1   
    45   17   48 1   
    46   18   49 1   
    47   18   50 1   
    48   18   51 1   
    49   19   20 1   
    50   19   21 1   
@<TRIPOS>SUBSTRUCTURE
     1 XPM         1 TEMP              0 ****  ****    0 ROOT
