@<TRIPOS>MOLECULE
XPM
   51    50     1     0     0
SMALL
bcc


@<TRIPOS>ATOM
      1 C1          5.9620   -1.3200    0.4780 c         1 XPM      0.928100
      2 O1          6.0130   -1.3140    1.7450 o         1 XPM     -0.889050
      3 C2          5.9370   -0.0090   -0.3300 c3        1 XPM     -0.257700
      4 O2          5.8290   -2.4130   -0.1640 o         1 XPM     -0.889050
      5 C3          4.6720    0.7560    0.0250 c3        1 XPM     -0.043400
      6 C4          3.4290    0.0330   -0.4580 c3        1 XPM     -0.086400
      7 C5          2.1660    0.6780    0.0730 c3        1 XPM     -0.074400
      8 C6          0.9270   -0.0410   -0.4180 c3        1 XPM     -0.079400
      9 C7         -0.3360    0.5920    0.1270 c3        1 XPM     -0.078400
     10 C8         -1.5740   -0.1290   -0.3640 c3        1 XPM     -0.079400
     11 C9         -2.8360    0.5030    0.1820 c3        1 XPM     -0.078400
     12 CA         -4.0730   -0.2180   -0.3100 c3        1 XPM     -0.079400
     13 CB         -5.3350    0.4130    0.2370 c3        1 XPM     -0.078400
     14 CC         -6.5710   -0.3090   -0.2550 c3        1 XPM     -0.079400
     15 CD         -7.8330    0.3230    0.2910 c3        1 XPM     -0.079400
     16 CE         -9.0690   -0.3990   -0.2010 c3        1 XPM     -0.079400
     17 CF        -10.3320    0.2330    0.3460 c3        1 XPM     -0.080400
     18 CG        -11.5650   -0.4830   -0.1420 c3        1 XPM     -0.091100
     19 C2A         7.1620    0.9080   -0.1860 c         1 XPM      0.928100
     20 O2A         7.0600    2.0090    0.4420 o         1 XPM     -0.889050
     21 O2B         8.2370    0.6020   -0.7920 o         1 XPM     -0.889050
     22 H2          5.8950   -0.3020   -1.4160 hc        1 XPM      0.022700
     23 H3          4.6410    0.8760    1.1400 hc        1 XPM      0.033700
     24 H3A         4.7100    1.7840   -0.4220 hc        1 XPM      0.033700
     25 H4          3.4030    0.0310   -1.5790 hc        1 XPM      0.041700
     26 H4A         3.4880   -1.0380   -0.1240 hc        1 XPM      0.041700
     27 H5          2.1880    0.6650    1.1950 hc        1 XPM      0.027200
     28 H5A         2.1270    1.7530   -0.2450 hc        1 XPM      0.027200
     29 H6          0.9020   -0.0230   -1.5390 hc        1 XPM      0.034700
     30 H6A         0.9750   -1.1170   -0.1050 hc        1 XPM      0.034700
     31 H7         -0.3100    0.5730    1.2480 hc        1 XPM      0.032700
     32 H7A        -0.3810    1.6690   -0.1830 hc        1 XPM      0.032700
     33 H8         -1.5990   -0.1100   -1.4860 hc        1 XPM      0.036200
     34 H8A        -1.5270   -1.2060   -0.0540 hc        1 XPM      0.036200
     35 H9         -2.8100    0.4830    1.3030 hc        1 XPM      0.035700
     36 H9A        -2.8810    1.5810   -0.1280 hc        1 XPM      0.035700
     37 HA         -4.0980   -0.1990   -1.4310 hc        1 XPM      0.037200
     38 HAA        -4.0260   -1.2960    0.0000 hc        1 XPM      0.037200
     39 HB         -5.3090    0.3940    1.3580 hc        1 XPM      0.037200
     40 HBA        -5.3800    1.4910   -0.0730 hc        1 XPM      0.037200
     41 HC         -6.5960   -0.2890   -1.3770 hc        1 XPM      0.038200
     42 HCA        -6.5250   -1.3860    0.0550 hc        1 XPM      0.038200
     43 HD         -7.8070    0.3040    1.4130 hc        1 XPM      0.038200
     44 HDA        -7.8780    1.4010   -0.0190 hc        1 XPM      0.038200
     45 HE         -9.0940   -0.3800   -1.3220 hc        1 XPM      0.038200
     46 HEA        -9.0230   -1.4760    0.1100 hc        1 XPM      0.038200
     47 HF        -10.3030    0.2140    1.4670 hc        1 XPM      0.037200
     48 HFA       -10.3740    1.3100    0.0360 hc        1 XPM      0.037200
     49 HG        -11.6230   -0.4540   -1.2570 hc        1 XPM      0.029033
     50 HGA       -11.5520   -1.5530    0.1790 hc        1 XPM      0.029033
     51 HGB       -12.4830   -0.0020    0.2720 hc        1 XPM      0.029033
@<TRIPOS>BOND
     1    1    2 1   
     2    1    3 1   
     3    1    4 1   
     4    3    5 1   
     5    3   19 1   
     6    3   22 1   
     7    5    6 1   
     8    5   23 1   
     9    5   24 1   
    10    6    7 1   
    11    6   25 1   
    12    6   26 1   
    13    7    8 1   
    14    7   27 1   
    15    7   28 1   
    16    8    9 1   
    17    8   29 1   
    18    8   30 1   
    19    9   10 1   
    20    9   31 1   
    21    9   32 1   
    22   10   11 1   
    23   10   33 1   
    24   10   34 1   
    25   11   12 1   
    26   11   35 1   
    27   11   36 1   
    28   12   13 1   
    29   12   37 1   
    30   12   38 1   
    31   13   14 1   
    32   13   39 1   
    33   13   40 1   
    34   14   15 1   
    35   14   41 1   
    36   14   42 1   
    37   15   16 1   
    38   15   43 1   
    39   15   44 1   
    40   16   17 1   
    41   16   45 1   
    42   16   46 1   
    43   17   18 1   
    44   17   47 1   
    45   17   48 1   
    46   18   49 1   
    47   18   50 1   
    48   18   51 1   
    49   19   20 1   
    50   19   21 1   
@<TRIPOS>SUBSTRUCTURE
     1 XPM         1 TEMP              0 ****  ****    0 ROOT
