@<TRIPOS>MOLECULE
XPM
   51    50     1     0     0
SMALL
bcc


@<TRIPOS>ATOM
      1 C1          0.2430    0.1710   -0.0290 c         1 XPM      0.928100
      2 O1          1.0310    1.1490   -0.2010 o         1 XPM     -0.889050
      3 C2         -0.6650    0.0820    1.2120 c3        1 XPM     -0.257700
      4 O2          0.2490   -0.8220   -0.8290 o         1 XPM     -0.889050
      5 C3          0.2110   -0.0080    2.4510 c3        1 XPM     -0.043400
      6 C4          0.9810   -1.3130    2.4960 c3        1 XPM     -0.086400
      7 C5          2.0070   -1.3180    3.6090 c3        1 XPM     -0.074400
      8 C6          2.7680   -2.6270    3.6570 c3        1 XPM     -0.079400
      9 C7          3.8070   -2.6270    4.7580 c3        1 XPM     -0.078400
     10 C8          4.5680   -3.9360    4.8030 c3        1 XPM     -0.079400
     11 C9          5.6070   -3.9350    5.9040 c3        1 XPM     -0.078400
     12 CA          6.3670   -5.2430    5.9470 c3        1 XPM     -0.079400
     13 CB          7.4060   -5.2420    7.0480 c3        1 XPM     -0.078400
     14 CC          8.1660   -6.5500    7.0900 c3        1 XPM     -0.079400
     15 CD          9.2050   -6.5490    8.1910 c3        1 XPM     -0.079400
     16 CE          9.9650   -7.8570    8.2330 c3        1 XPM     -0.079400
     17 CF         11.0040   -7.8570    9.3340 c3        1 XPM     -0.080400
     18 CG         11.7630   -9.1580    9.3800 c3        1 XPM     -0.091100
     19 C2A        -1.7030    1.2030    1.3830 c         1 XPM      0.928100
     20 O2A        -1.5580    2.0660    2.3080 o         1 XPM     -0.889050
     21 O2B        -2.7510    1.1910    0.6650 o         1 XPM     -0.889050
     22 H2         -1.2550   -0.8720    1.1110 hc        1 XPM      0.022700
     23 H3          0.9220    0.8600    2.4350 hc        1 XPM      0.033700
     24 H3A        -0.4200    0.0930    3.3720 hc        1 XPM      0.033700
     25 H4          1.4840   -1.4650    1.5020 hc        1 XPM      0.041700
     26 H4A         0.2700   -2.1680    2.6420 hc        1 XPM      0.041700
     27 H5          2.7270   -0.4720    3.4530 hc        1 XPM      0.027200
     28 H5A         1.5000   -1.1440    4.5940 hc        1 XPM      0.027200
     29 H6          2.0500   -3.4730    3.8180 hc        1 XPM      0.034700
     30 H6A         3.2680   -2.8020    2.6670 hc        1 XPM      0.034700
     31 H7          3.3070   -2.4500    5.7470 hc        1 XPM      0.032700
     32 H7A         4.5250   -1.7810    4.5950 hc        1 XPM      0.032700
     33 H8          3.8490   -4.7820    4.9650 hc        1 XPM      0.036200
     34 H8A         5.0670   -4.1120    3.8140 hc        1 XPM      0.036200
     35 H9          6.3250   -3.0880    5.7400 hc        1 XPM      0.035700
     36 H9A         5.1070   -3.7580    6.8920 hc        1 XPM      0.035700
     37 HA          5.6490   -6.0900    6.1080 hc        1 XPM      0.037200
     38 HAA         6.8670   -5.4190    4.9580 hc        1 XPM      0.037200
     39 HB          8.1240   -4.3950    6.8850 hc        1 XPM      0.037200
     40 HBA         6.9060   -5.0650    8.0360 hc        1 XPM      0.037200
     41 HC          8.6660   -6.7260    6.1010 hc        1 XPM      0.038200
     42 HCA         7.4480   -7.3970    7.2510 hc        1 XPM      0.038200
     43 HD          9.9220   -5.7020    8.0290 hc        1 XPM      0.038200
     44 HDA         8.7040   -6.3730    9.1800 hc        1 XPM      0.038200
     45 HE          9.2470   -8.7040    8.3950 hc        1 XPM      0.038200
     46 HEA        10.4650   -8.0330    7.2450 hc        1 XPM      0.038200
     47 HF         10.5010   -7.6790   10.3220 hc        1 XPM      0.037200
     48 HFA        11.7200   -7.0080    9.1720 hc        1 XPM      0.037200
     49 HG         11.0690  -10.0130    9.5660 hc        1 XPM      0.029033
     50 HGA        12.2900   -9.3400    8.4130 hc        1 XPM      0.029033
     51 HGB        12.5230   -9.1370   10.1980 hc        1 XPM      0.029033
@<TRIPOS>BOND
     1    1    2 1   
     2    1    3 1   
     3    1    4 1   
     4    3    5 1   
     5    3   19 1   
     6    3   22 1   
     7    5    6 1   
     8    5   23 1   
     9    5   24 1   
    10    6    7 1   
    11    6   25 1   
    12    6   26 1   
    13    7    8 1   
    14    7   27 1   
    15    7   28 1   
    16    8    9 1   
    17    8   29 1   
    18    8   30 1   
    19    9   10 1   
    20    9   31 1   
    21    9   32 1   
    22   10   11 1   
    23   10   33 1   
    24   10   34 1   
    25   11   12 1   
    26   11   35 1   
    27   11   36 1   
    28   12   13 1   
    29   12   37 1   
    30   12   38 1   
    31   13   14 1   
    32   13   39 1   
    33   13   40 1   
    34   14   15 1   
    35   14   41 1   
    36   14   42 1   
    37   15   16 1   
    38   15   43 1   
    39   15   44 1   
    40   16   17 1   
    41   16   45 1   
    42   16   46 1   
    43   17   18 1   
    44   17   47 1   
    45   17   48 1   
    46   18   49 1   
    47   18   50 1   
    48   18   51 1   
    49   19   20 1   
    50   19   21 1   
@<TRIPOS>SUBSTRUCTURE
     1 XPM         1 TEMP              0 ****  ****    0 ROOT
