@<TRIPOS>MOLECULE
XPO
    8     7     1     0     0
SMALL
bcc


@<TRIPOS>ATOM
      1 C           1.7450    0.1580   -0.1320 c         1 XPO      0.686900
      2 O           2.9430   -0.1180    0.1270 o         1 XPO     -0.747000
      3 P          -0.8440    0.0190   -0.0710 p5        1 XPO      1.300900
      4 O1         -1.7520   -0.8990    0.6860 o         1 XPO     -0.916833
      5 O2          0.7890   -0.5280    0.4270 os        1 XPO     -0.493500
      6 O3         -0.7120   -0.1910   -1.5510 o         1 XPO     -0.916833
      7 O4         -0.7540    1.4460    0.3850 o         1 XPO     -0.916833
      8 H1          1.4480    0.9750   -0.8300 h5        1 XPO      0.003200
@<TRIPOS>BOND
     1    1    2 2   
     2    1    5 1   
     3    1    8 1   
     4    3    4 1   
     5    3    5 1   
     6    3    6 1   
     7    3    7 1   
@<TRIPOS>SUBSTRUCTURE
     1 XPO         1 TEMP              0 ****  ****    0 ROOT
