@<TRIPOS>MOLECULE
XPO
    8     5     1     0     0
SMALL
bcc


@<TRIPOS>ATOM
      1 C          -0.2170   -0.0810   -1.4800 c1        1 XPO      0.315000
      2 O           0.9550    0.2430   -1.5350 o         1 XPO     -0.558000
      3 P           0.0040    0.0160    1.0750 p3        1 XPO      2.493000
      4 O1          1.1510   -0.9650    1.1290 o         1 XPO     -1.236333
      5 O2         -0.8450   -0.2380   -0.2330 os        1 XPO     -0.637000
      6 O3         -0.8740   -0.1690    2.2900 o         1 XPO     -1.236333
      7 O4          0.5470    1.4250    1.0580 o         1 XPO     -1.236333
      8 H1         -0.7210   -0.2320   -2.3040 ha        1 XPO      0.096000
@<TRIPOS>BOND
     1    1    2 1   
     2    1    8 1   
     3    3    4 1   
     4    3    6 1   
     5    3    7 1   
@<TRIPOS>SUBSTRUCTURE
     1 XPO         1 TEMP              0 ****  ****    0 ROOT
