@<TRIPOS>MOLECULE
XPO
    8     7     1     0     0
SMALL
bcc


@<TRIPOS>ATOM
      1 C          -0.0530    0.0220    0.0360 c         1 XPO      0.686900
      2 O           1.2010   -0.0020   -0.0300 o         1 XPO     -0.747000
      3 P          -2.4280    0.0090    1.0790 p5        1 XPO      1.300900
      4 O1         -2.8640   -0.0720    2.5090 o         1 XPO     -0.916833
      5 O2         -0.6400   -0.0390    1.1980 os        1 XPO     -0.493500
      6 O3         -2.6300   -1.2020    0.2170 o         1 XPO     -0.916833
      7 O4         -2.5730    1.3280    0.3770 o         1 XPO     -0.916833
      8 H1         -0.7070    0.0940   -0.8640 h5        1 XPO      0.003200
@<TRIPOS>BOND
     1    1    2 2   
     2    1    5 1   
     3    1    8 1   
     4    3    4 1   
     5    3    5 1   
     6    3    6 1   
     7    3    7 1   
@<TRIPOS>SUBSTRUCTURE
     1 XPO         1 TEMP              0 ****  ****    0 ROOT
