@<TRIPOS>MOLECULE
XPP
   89    92     1     0     0
SMALL
bcc


@<TRIPOS>ATOM
      1 N1         -4.9670    1.1820    1.3270 n         1 XPP     -0.430100
      2 C1         -2.5100    0.9560    0.8640 cc        1 XPP      0.020100
      3 C8         -3.1000    2.2860    2.6300 cd        1 XPP     -0.130300
      4 N3         -1.7190    2.2800    2.5290 na        1 XPP     -0.008100
      5 C6         -3.6380    1.4700    1.6020 cc        1 XPP     -0.045400
      6 C9         -0.8240    2.9810    3.3990 c3        1 XPP      0.019600
      7 C10        -1.3330    1.4730    1.4530 cd        1 XPP     -0.188900
      8 C11         0.0820    1.2660    1.0730 c         1 XPP      0.713700
      9 O2          1.0170    1.6110    1.8270 o         1 XPP     -0.624100
     10 N4          0.2940    0.6690   -0.1570 n         1 XPP     -0.435100
     11 C12         1.5450    0.3910   -0.6920 cc        1 XPP     -0.019400
     12 C13         2.8370    0.6000   -0.0990 cc        1 XPP     -0.148000
     13 C14         1.7640   -0.1810   -1.9770 cd        1 XPP     -0.186300
     14 N5          3.1280   -0.3220   -2.1680 na        1 XPP     -0.007100
     15 C15         3.7510   -0.8620   -3.3370 c3        1 XPP      0.020600
     16 C16         3.7950    0.1500   -1.0310 cd        1 XPP     -0.189900
     17 C23         5.2650    0.1380   -0.9050 c         1 XPP      0.700700
     18 O3          6.0060   -0.3600   -1.7840 o         1 XPP     -0.638100
     19 N7         14.1960   -3.2830    0.1910 n3        1 XPP     -0.738600
     20 C21        15.6310   -3.1040    0.1570 c3        1 XPP      0.155600
     21 C22        13.7960   -4.4550    0.9350 c3        1 XPP      0.155600
     22 C18        11.4160   -0.7230    0.6540 c3        1 XPP      0.085000
     23 C19        11.9900   -2.1240    0.4250 c3        1 XPP     -0.108400
     24 N6          9.9890   -0.6380    0.5130 n         1 XPP     -0.566900
     25 N          -8.5500    1.6330    2.2800 na        1 XPP     -0.005100
     26 C2         -9.6400    1.1400    1.5860 cc        1 XPP     -0.178300
     27 C          -9.1670    0.4390    0.4410 cd        1 XPP     -0.026400
     28 C32        -7.7340    0.5210    0.4600 cd        1 XPP     -0.147000
     29 C4         -7.3790    1.2640    1.6060 cc        1 XPP     -0.187900
     30 C5         -6.0340    1.6330    2.0880 c         1 XPP      0.709700
     31 O1         -5.8620    2.3000    3.1330 o         1 XPP     -0.628100
     32 N9        -10.2420   -2.2280   -3.6270 na        1 XPP     -0.144900
     33 C27       -11.4440   -2.6350   -4.1900 cc        1 XPP     -0.238600
     34 C26       -12.4690   -2.1390   -3.3500 cd        1 XPP      0.291200
     35 N10       -11.9190   -1.4420   -2.2920 nd        1 XPP     -0.650000
     36 C25       -10.5660   -1.4990   -2.4650 cc        1 XPP      0.323000
     37 C24        -9.5240   -0.8950   -1.5820 c         1 XPP      0.614600
     38 O4         -8.3110   -1.0360   -1.8450 o         1 XPP     -0.621100
     39 O5          9.5790   -0.2360    2.7360 o         1 XPP     -0.609100
     40 C31         9.1430   -0.4630    1.5900 c         1 XPP      0.657100
     41 C29         7.2090    0.6920    0.4970 c3        1 XPP      0.097000
     42 N11         5.8020    0.7390    0.2190 n         1 XPP     -0.556900
     43 O6         -2.5810    0.1750   -0.2560 oh        1 XPP     -0.499100
     44 HN1        -5.1420    0.7260    0.4590 hn        1 XPP      0.334500
     45 H8         -3.6360    2.8440    3.4040 h4        1 XPP      0.208000
     46 H91        -0.1460    3.6410    2.7910 h1        1 XPP      0.067367
     47 H92        -1.4150    3.6000    4.1230 h1        1 XPP      0.067367
     48 H93        -0.1830    2.2430    3.9550 h1        1 XPP      0.067367
     49 HN4        -0.4940    0.4610   -0.7330 hn        1 XPP      0.341500
     50 H13         3.0130    1.0290    0.8850 ha        1 XPP      0.183000
     51 H14         1.0420   -0.4810   -2.7350 h4        1 XPP      0.173000
     52 H151        4.4690   -0.1090   -3.7640 h1        1 XPP      0.064033
     53 H152        4.3370   -1.7810   -3.0620 h1        1 XPP      0.064033
     54 H153        2.9680   -1.1190   -4.0970 h1        1 XPP      0.064033
     55 H211       16.1020   -4.0380   -0.2460 h1        1 XPP      0.031200
     56 H212       15.8770   -2.2540   -0.5320 h1        1 XPP      0.031200
     57 H213       16.0770   -2.8860    1.1660 h1        1 XPP      0.031200
     58 H221       12.7040   -4.6410    0.7570 h1        1 XPP      0.031200
     59 H222       14.3730   -5.3420    0.5610 h1        1 XPP      0.031200
     60 H223       13.9670   -4.3600    2.0420 h1        1 XPP      0.031200
     61 H201       13.7240   -1.8170    1.6870 h1        1 XPP      0.031700
     62 H202       13.9090   -1.2240   -0.0240 h1        1 XPP      0.031700
     63 H181       11.7000   -0.3720    1.6890 h1        1 XPP      0.061700
     64 H182       11.8790   -0.0170   -0.0950 h1        1 XPP      0.061700
     65 H191       11.7360   -2.4840   -0.6050 hc        1 XPP      0.052700
     66 H192       11.5420   -2.8430    1.1590 hc        1 XPP      0.052700
     67 HN6         9.6020   -0.9330   -0.3520 hn        1 XPP      0.312500
     68 H31        -8.0480    1.8610    4.3010 h1        1 XPP      0.066033
     69 H32A       -8.1250    3.3960    3.3300 h1        1 XPP      0.066033
     70 H33        -9.6820    2.5340    3.7930 h1        1 XPP      0.066033
     71 H2        -10.6620    1.3060    1.9250 h4        1 XPP      0.176000
     72 HN8       -10.9680   -0.1180   -0.3340 hn        1 XPP      0.344500
     73 H32        -7.0710    0.0820   -0.2830 ha        1 XPP      0.182000
     74 H281       -8.3940   -1.5260   -4.3190 h1        1 XPP      0.068033
     75 H282       -8.3430   -3.0680   -3.3550 h1        1 XPP      0.068033
     76 H283       -9.0010   -3.0910   -5.0720 h1        1 XPP      0.068033
     77 H27       -11.4930   -3.2220   -5.1050 h4        1 XPP      0.183000
     78 H26       -13.5460   -2.2550   -3.4650 h4        1 XPP      0.048100
     79 H301        7.3940   -1.4710    0.7820 hc        1 XPP      0.075700
     80 H302        7.1280   -0.5340    2.3130 hc        1 XPP      0.075700
     81 H291        7.4810    1.6290    1.0630 h1        1 XPP      0.069200
     82 H292        7.7630    0.6940   -0.4860 h1        1 XPP      0.069200
     83 HN11        5.1960    1.0010    0.9600 hn        1 XPP      0.319500
     84 HO6        -2.7820   -0.7230    0.0560 ho        1 XPP      0.419000
     85 C3         -8.6120    2.3950    3.4890 c3        1 XPP      0.018600
     86 N8         -9.9860   -0.1900   -0.4900 n         1 XPP     -0.420100
     87 C30         7.6510   -0.5220    1.3210 c3        1 XPP     -0.187400
     88 C28        -8.9300   -2.4960   -4.1250 c3        1 XPP      0.017600
     89 C20        13.5060   -2.0680    0.6070 c3        1 XPP      0.172800
@<TRIPOS>BOND
     1    1    5 1   
     2    1   30 1   
     3    1   44 1   
     4    2    5 1   
     5    2    7 2   
     6    2   43 1   
     7    3    4 1   
     8    3    5 2   
     9    3   45 1   
    10    4    6 1   
    11    4    7 1   
    12    6   46 1   
    13    6   47 1   
    14    6   48 1   
    15    7    8 1   
    16    8    9 2   
    17    8   10 1   
    18   10   11 1   
    19   10   49 1   
    20   11   12 1   
    21   11   13 2   
    22   12   16 2   
    23   12   50 1   
    24   13   14 1   
    25   13   51 1   
    26   14   15 1   
    27   14   16 1   
    28   15   52 1   
    29   15   53 1   
    30   15   54 1   
    31   16   17 1   
    32   17   18 2   
    33   17   42 1   
    34   19   20 1   
    35   19   21 1   
    36   19   89 1   
    37   20   55 1   
    38   20   56 1   
    39   20   57 1   
    40   21   58 1   
    41   21   59 1   
    42   21   60 1   
    43   22   23 1   
    44   22   24 1   
    45   22   63 1   
    46   22   64 1   
    47   23   65 1   
    48   23   66 1   
    49   23   89 1   
    50   24   40 1   
    51   24   67 1   
    52   25   26 1   
    53   25   29 1   
    54   25   85 1   
    55   26   27 2   
    56   26   71 1   
    57   27   28 1   
    58   27   86 1   
    59   28   29 2   
    60   28   73 1   
    61   29   30 1   
    62   30   31 2   
    63   32   33 1   
    64   32   36 1   
    65   32   88 1   
    66   33   34 2   
    67   33   77 1   
    68   34   35 1   
    69   34   78 1   
    70   35   36 2   
    71   36   37 1   
    72   37   38 2   
    73   37   86 1   
    74   39   40 2   
    75   40   87 1   
    76   41   42 1   
    77   41   81 1   
    78   41   82 1   
    79   41   87 1   
    80   42   83 1   
    81   43   84 1   
    82   61   89 1   
    83   62   89 1   
    84   68   85 1   
    85   69   85 1   
    86   70   85 1   
    87   72   86 1   
    88   74   88 1   
    89   75   88 1   
    90   76   88 1   
    91   79   87 1   
    92   80   87 1   
@<TRIPOS>SUBSTRUCTURE
     1 XPP         1 TEMP              0 ****  ****    0 ROOT
