@<TRIPOS>MOLECULE
XPP
   89    78     1     0     0
SMALL
bcc


@<TRIPOS>ATOM
      1 N1         -5.3040   -1.1580   -2.9570 n3        1 XPP     -0.292500
      2 C1         -3.5920   -1.1120   -1.1330 c1        1 XPP     -0.088500
      3 C8         -5.7040   -1.1060   -0.4830 c1        1 XPP     -0.111500
      4 N3         -4.9140   -1.0540    0.6450 n2        1 XPP     -0.092500
      5 C6         -4.8810   -1.1410   -1.5760 c2        1 XPP     -0.029500
      6 C9         -5.3700   -1.1530    1.9830 c2        1 XPP     -0.080000
      7 C10        -3.6160   -1.0580    0.2480 c1        1 XPP     -0.144500
      8 C11        -2.3760   -0.9120    1.1780 c1        1 XPP      0.381000
      9 O2         -2.5220   -0.8750    2.3780 o         1 XPP     -0.369500
     10 N4         -1.0690   -0.9040    0.6200 n3        1 XPP     -0.292500
     11 C12         0.1070   -0.8500    1.5030 c2        1 XPP     -0.029500
     12 C13         1.2340   -0.1120    1.2910 c1        1 XPP     -0.088500
     13 C14         0.2660   -1.5370    2.6820 c1        1 XPP     -0.111500
     14 N5          1.4980   -1.2180    3.1940 n2        1 XPP     -0.092500
     15 C15         2.0890   -1.7630    4.4070 c2        1 XPP     -0.080000
     16 C16         2.0960   -0.3390    2.3380 c1        1 XPP     -0.144500
     17 C23         3.5450    0.1970    2.4500 c1        1 XPP      0.365000
     18 O3          4.0030    0.8770    1.5690 o         1 XPP     -0.356000
     19 N7          9.1550    6.8110    8.7220 n3        1 XPP     -0.264000
     20 C21         9.9680    6.4020    9.8400 c3        1 XPP     -0.119500
     21 C22         9.5350    8.1180    8.3130 c3        1 XPP     -0.119500
     22 C20         9.3450    5.8550    7.5980 c3        1 XPP     -0.063000
     23 C18         8.2150    3.9240    6.4510 c3        1 XPP     -0.032000
     24 C19         8.0030    5.2790    7.1970 c3        1 XPP     -0.185000
     25 N6          6.9190    3.3710    6.0830 n         1 XPP     -0.376000
     26 C3         -5.7480   -0.0800   -5.5880 c3        1 XPP     -0.084000
     27 N          -6.0710   -1.4240   -5.8800 n3        1 XPP     -0.115000
     28 C2         -6.3220   -1.9380   -7.1260 c1        1 XPP     -0.114000
     29 N8         -7.1840   -4.1350   -8.0570 n3        1 XPP     -0.268000
     30 C          -6.6870   -3.2450   -6.9790 c2        1 XPP     -0.031000
     31 C32        -6.6620   -3.5390   -5.6480 c1        1 XPP     -0.142000
     32 C4         -6.2790   -2.4060   -4.9700 c1        1 XPP     -0.137000
     33 C5         -5.9990   -2.3090   -3.4820 c1        1 XPP      0.381000
     34 O1         -6.2230   -3.2390   -2.7760 o         1 XPP     -0.369500
     35 C28        -5.7690   -3.9280  -12.3510 c3        1 XPP     -0.081000
     36 N9         -6.7660   -4.8300  -11.8040 n3        1 XPP     -0.101000
     37 C27        -7.4540   -5.7360  -12.4850 c1        1 XPP     -0.150000
     38 C26        -8.3090   -6.3630  -11.6120 c1        1 XPP     -0.174000
     39 N10        -8.1310   -5.8310  -10.4080 n2        1 XPP     -0.121000
     40 C25        -7.1750   -4.8760  -10.5090 c1        1 XPP     -0.116000
     41 C24        -6.8040   -3.8850   -9.4340 c1        1 XPP      0.392000
     42 O4         -6.0780   -2.9460   -9.7020 o         1 XPP     -0.390000
     43 O5          7.8490    1.5390    5.0520 o         1 XPP     -0.369000
     44 C31         6.8420    2.1230    5.3520 c2        1 XPP      0.302000
     45 C30         5.4980    1.5050    5.0620 c3        1 XPP     -0.219000
     46 C29         5.6090    0.5870    3.8330 c3        1 XPP     -0.029000
     47 N11         4.3350   -0.0960    3.6200 n3        1 XPP     -0.369000
     48 O6         -2.4080   -1.2250   -1.9600 o         1 XPP     -0.254000
     49 HN1        -5.2310   -0.3950   -3.4680 hn        1 XPP      0.249500
     50 H8         -6.6820   -1.0530   -0.5020 DU        1 XPP      0.189286
     51 H91        -5.0360   -0.3900    2.5000 ha        1 XPP      0.101833
     52 H92        -5.0410   -1.9770    2.3760 ha        1 XPP      0.101833
     53 H93        -6.3460   -1.1530    1.9950 ha        1 XPP      0.101833
     54 HN4        -0.9580   -1.0170   -0.2790 hn        1 XPP      0.249500
     55 H13         1.4040    0.4850    0.5170 DU        1 XPP      0.189286
     56 H14        -0.4130   -2.1300    3.1110 DU        1 XPP      0.189286
     57 H151        1.4870   -2.4240    4.7930 ha        1 XPP      0.101833
     58 H152        2.9540   -2.1930    4.1880 ha        1 XPP      0.101833
     59 H153        2.2370   -1.0360    5.0540 ha        1 XPP      0.101833
     60 H211        9.7680    6.9880   10.6350 h1        1 XPP      0.070500
     61 H212       10.9210    6.4840    9.6030 h1        1 XPP      0.070500
     62 H213        9.7640    5.4570   10.0670 h1        1 XPP      0.070500
     63 H221       10.3590    8.0730    7.8080 h1        1 XPP      0.070500
     64 H222        8.8310    8.5020    7.7550 h1        1 XPP      0.070500
     65 H223        9.6680    8.6830    9.1070 h1        1 XPP      0.070500
     66 H201        9.9450    5.1210    7.8890 h1        1 XPP      0.071000
     67 H202        9.7530    6.3310    6.8160 h1        1 XPP      0.071000
     68 H181        8.7380    4.0720    5.6580 h1        1 XPP      0.100500
     69 H182        8.6840    3.2960    7.0390 h1        1 XPP      0.100500
     70 H191        7.4670    5.1280    7.9920 hc        1 XPP      0.092000
     71 H192        7.5420    5.9040    6.6100 hc        1 XPP      0.092000
     72 HN6         6.1480    3.8030    6.3350 hn        1 XPP      0.226000
     73 H31        -6.2550    0.2150   -4.8000 h1        1 XPP      0.098667
     74 H32A       -5.9770    0.4810   -6.3490 h1        1 XPP      0.098667
     75 H33        -4.7810   -0.0080   -5.4040 h1        1 XPP      0.098667
     76 H2         -6.3070   -1.4420   -7.9590 DU        1 XPP      0.189286
     77 HN8        -7.6480   -4.9160   -7.8380 hn        1 XPP      0.263000
     78 H32        -6.8840   -4.4240   -5.2360 DU        1 XPP      0.189286
     79 H281       -5.9980   -3.0020  -12.1110 h1        1 XPP      0.107000
     80 H282       -4.8930   -4.1510  -11.9840 h1        1 XPP      0.107000
     81 H283       -5.7470   -4.0160  -13.3240 h1        1 XPP      0.107000
     82 H27        -7.3690   -5.9230  -13.4360 DU        1 XPP      0.189286
     83 H26        -8.9490   -7.0880  -11.8410 DU        1 XPP      0.189286
     84 H301        5.2160    0.9970    5.8100 hc        1 XPP      0.115500
     85 H302        4.8460    2.2120    4.8840 hc        1 XPP      0.115500
     86 H291        6.3170   -0.0790    3.9830 h1        1 XPP      0.109500
     87 H292        5.8270    1.1210    3.0460 h1        1 XPP      0.109500
     88 HN11        4.0540   -0.7260    4.2090 hn        1 XPP      0.217000
     89 HO6        -2.1050   -2.0760   -1.9400 ho        1 XPP      0.217000
@<TRIPOS>BOND
     1    1    5 1   
     2    1   33 1   
     3    1   49 1   
     4    2    5 1   
     5    2    7 1   
     6    3    4 1   
     7    3    5 1   
     8    4    7 1   
     9    6   51 1   
    10    6   52 1   
    11    6   53 1   
    12    8    9 1   
    13    8   10 1   
    14   10   11 1   
    15   10   54 1   
    16   11   12 1   
    17   11   13 1   
    18   12   16 1   
    19   13   14 1   
    20   14   16 1   
    21   15   57 1   
    22   15   58 1   
    23   15   59 1   
    24   17   18 1   
    25   17   47 1   
    26   19   20 1   
    27   19   21 1   
    28   19   22 1   
    29   20   60 1   
    30   20   61 1   
    31   20   62 1   
    32   21   63 1   
    33   21   64 1   
    34   21   65 1   
    35   22   24 1   
    36   22   66 1   
    37   22   67 1   
    38   23   24 1   
    39   23   25 1   
    40   23   68 1   
    41   23   69 1   
    42   24   70 1   
    43   24   71 1   
    44   25   44 1   
    45   25   72 1   
    46   26   27 1   
    47   26   73 1   
    48   26   74 1   
    49   26   75 1   
    50   27   28 1   
    51   27   32 1   
    52   28   30 1   
    53   29   30 1   
    54   29   41 1   
    55   29   77 1   
    56   30   31 1   
    57   31   32 1   
    58   33   34 1   
    59   35   36 1   
    60   35   79 1   
    61   35   80 1   
    62   35   81 1   
    63   36   37 1   
    64   36   40 1   
    65   37   38 1   
    66   38   39 1   
    67   39   40 1   
    68   41   42 1   
    69   43   44 1   
    70   44   45 1   
    71   45   46 1   
    72   45   84 1   
    73   45   85 1   
    74   46   47 1   
    75   46   86 1   
    76   46   87 1   
    77   47   88 1   
    78   48   89 1   
@<TRIPOS>SUBSTRUCTURE
     1 XPP         1 TEMP              0 ****  ****    0 ROOT
