@<TRIPOS>MOLECULE
XPP
   95    89     1     0     0
SMALL
bcc


@<TRIPOS>ATOM
      1 N1        -37.8000 -115.7660  -31.9900 n4        1 XPP     -0.013000
      2 C1        -36.0520 -114.0250  -31.1450 c2        1 XPP      0.309000
      3 C8        -36.6900 -115.7970  -29.7530 c1        1 XPP      0.107000
      4 N3        -35.6660 -114.9890  -29.0420 n4        1 XPP      0.043000
      5 C6        -36.9010 -115.1970  -31.0210 c2        1 XPP     -0.441000
      6 C9        -36.2000 -114.5210  -27.7310 c3        1 XPP     -0.162000
      7 C10       -35.2830 -113.8920  -29.9650 c2        1 XPP     -0.421000
      8 C11       -34.2500 -112.9730  -29.5760 c2        1 XPP      0.340000
      9 O2        -33.6160 -112.9850  -28.5260 o         1 XPP     -0.199000
     10 N4        -33.8620 -111.8920  -30.5830 n4        1 XPP      0.002000
     11 C12       -33.3480 -110.6830  -29.9930 c2        1 XPP     -0.245000
     12 C13       -32.0190 -110.4200  -29.5350 c2        1 XPP     -0.035000
     13 C14       -34.1150 -109.4870  -29.7950 c2        1 XPP      0.005000
     14 N5        -33.3040 -108.5340  -29.2560 na        1 XPP     -0.015000
     15 C15       -33.7070 -107.1860  -28.9280 c3        1 XPP     -0.123000
     16 C16       -32.0040 -109.0780  -29.0850 c2        1 XPP     -0.174000
     17 C23       -30.9420 -108.2430  -28.5410 c2        1 XPP      0.377000
     18 O3        -31.0430 -107.0570  -28.2400 o         1 XPP     -0.188000
     19 N7        484.3060    0.1760  422.5880 n1        1 XPP     -0.080000
     20 C21       485.9860    0.3840  424.1970 c1        1 XPP     -0.052000
     21 C22       484.9580    0.2460  423.2180 c2        1 XPP      0.053000
     22 C19       -22.7150 -107.0020  -26.0830 c3        1 XPP     -0.225000
     23 N6        -24.9810 -107.7000  -26.8310 n         1 XPP     -0.245000
     24 N         -41.4650 -114.4880  -32.0170 n3        1 XPP     -0.122000
     25 C2        -42.6210 -115.2560  -31.9080 c1        1 XPP      0.222000
     26 C         -42.2300 -116.7540  -32.0390 c3        1 XPP     -0.108000
     27 C32       -40.7230 -116.7000  -32.3210 c2        1 XPP     -0.017000
     28 C4        -40.3050 -115.4040  -32.2370 c2        1 XPP     -0.268000
     29 C5        -38.9750 -114.8540  -32.3660 c2        1 XPP      0.354000
     30 O1        -38.6340 -113.7270  -32.7140 o         1 XPP     -0.245000
     31 N9        -48.1710 -119.8680  -36.6780 n2        1 XPP      0.146000
     32 C27       -47.0760 -119.4420  -36.1140 c1        1 XPP     -0.167000
     33 C26       -46.0580 -119.0580  -35.5800 c1        1 XPP      0.198000
     34 N10       -44.9610 -118.6650  -34.9590 n3        1 XPP     -0.166000
     35 C25       -44.6180 -117.3060  -34.8650 c2        1 XPP     -0.107000
     36 C24       -43.7580 -116.7910  -33.9370 c2        1 XPP      0.077000
     37 O4        -43.4470 -115.4350  -34.0120 oh        1 XPP     -0.259000
     38 O5        -26.7280 -106.2460  -27.2560 o         1 XPP     -0.196000
     39 C31       -26.3320 -107.4100  -27.2260 c2        1 XPP      0.300000
     40 C29       -28.6060 -108.1120  -27.8950 c2        1 XPP      0.181000
     41 N11       -29.6080 -108.8480  -28.3180 n         1 XPP     -0.180000
     42 O6        -35.9140 -113.1560  -32.1510 oh        1 XPP     -0.242000
     43 HN1       -38.1620 -116.6480  -31.5900 hn        1 XPP      0.272500
     44 H8        -34.8490 -115.5990  -28.8700 hn        1 XPP      0.288000
     45 H91       -35.3890 -113.9690  -27.1850 hx        1 XPP      0.156000
     46 H92       -36.5190 -115.4270  -27.1420 hx        1 XPP      0.156000
     47 H93       -37.0820 -113.8500  -27.8970 hx        1 XPP      0.156000
     48 HN4       -33.1380 -112.2880  -31.2020 hn        1 XPP      0.272000
     49 H13       -31.1870 -111.1240  -29.5320 ha        1 XPP      0.180000
     50 H14       -35.1730 -109.2920  -30.0220 h4        1 XPP      0.226000
     51 H151      -34.7990 -107.0500  -29.1570 h1        1 XPP      0.152000
     52 H152      -33.5250 -106.9930  -27.8340 h1        1 XPP      0.152000
     53 H153      -33.1010 -106.4540  -29.5330 h1        1 XPP      0.152000
     54 H211      -23.3170 -109.7330  -24.4110 ha        1 XPP      0.002300
     55 H212      486.4470    0.4780  424.6460 ha        1 XPP      0.238000
     56 H213      486.3600    0.3690  424.5450 DU        1 XPP      0.270000
     57 H221      -23.1380 -109.9780  -27.1230 ha        1 XPP      0.002300
     58 H222      484.6620    0.1960  422.9450 DU        1 XPP      0.270000
     59 H223      -22.6250 -110.4210  -27.1810 ha        1 XPP      0.002300
     60 H201      -21.6970 -105.7980  -27.5910 hc        1 XPP      0.130333
     61 H202      -23.5800 -109.3380  -24.8970 ha        1 XPP      0.002300
     62 H181      -22.1490 -104.8880  -26.0790 hc        1 XPP      0.130333
     63 H182      -22.7400 -107.0750  -24.9450 hc        1 XPP      0.187000
     64 H191      -22.3110 -107.9900  -26.4510 hc        1 XPP      0.187000
     65 H192      -20.7750 -106.0670  -26.0550 hc        1 XPP      0.130333
     66 HN6       -24.7010 -108.6720  -26.7880 hn        1 XPP      0.293000
     67 H31       -37.0020 -114.1240  -35.0260 ha        1 XPP      0.002300
     68 H32A      -40.5190 -112.6210  -32.1330 ha        1 XPP      0.074000
     69 H33       -36.9820 -114.4190  -34.4130 ha        1 XPP      0.002300
     70 H2        -42.3490 -117.2060  -31.0010 h1        1 XPP      0.179000
     71 HN8       -44.2540 -114.9360  -33.7810 ho        1 XPP      0.271000
     72 H32       -40.1540 -117.6030  -32.5540 ha        1 XPP      0.179000
     73 H281      -50.0590 -120.6130  -37.6530 ha        1 XPP      0.376000
     74 H282      -34.4760 -104.8150  -28.3830 ha        1 XPP      0.002300
     75 H283      -34.7050 -104.1890  -28.2580 ha        1 XPP      0.002300
     76 H27       -45.1170 -116.6230  -35.5810 h4        1 XPP      0.198000
     77 H26       -44.2710 -119.3650  -34.7550 hn        1 XPP      0.281000
     78 H301      -27.2440 -109.3370  -26.7470 hc        1 XPP      0.201500
     79 H302      -26.7760 -109.1200  -28.4970 hc        1 XPP      0.201500
     80 H291      -28.8810 -105.1030  -27.5700 ha        1 XPP      0.002300
     81 H292      -28.5620 -104.5230  -27.4210 ha        1 XPP      0.002300
     82 HN11      -29.5160 -109.8350  -28.4910 hn        1 XPP      0.278000
     83 HO6       -36.5820 -113.3100  -32.8610 ho        1 XPP      0.318000
     84 N8        -42.9950 -117.5200  -32.9930 n3        1 XPP     -0.252000
     85 C30       -27.2200 -108.5910  -27.6000 c3        1 XPP     -0.229000
     86 C20       -21.7940 -105.8690  -26.4810 c3        1 XPP     -0.235000
     87 H12       -37.2740 -115.9870  -32.8500 hn        1 XPP      0.272500
     88 H42       -34.6830 -111.6520  -31.1610 hn        1 XPP      0.272000
     89 H71       484.5150    0.1400  422.7790 h4        1 XPP      0.302000
     90 H62       -24.4410 -105.6750  -26.5840 h4        1 XPP      0.236000
     91 H112      -28.8020 -107.0010  -27.7310 h4        1 XPP      0.277000
     92 H82       -43.5380 -118.2390  -32.5480 hn        1 XPP      0.222000
     93 C3        -41.4740 -113.1710  -31.9940 c1        1 XPP      0.072000
     94 C28       -49.1450 -120.2530  -37.1810 c1        1 XPP      0.206000
     95 C18       -24.1020 -106.7460  -26.5180 c2        1 XPP      0.255000
@<TRIPOS>BOND
     1    1    5 1   
     2    1   29 1   
     3    1   43 1   
     4    1   87 1   
     5    2    5 1   
     6    2    7 1   
     7    2   42 1   
     8    3    4 1   
     9    3    5 1   
    10    4    6 1   
    11    4    7 1   
    12    4   44 1   
    13    6   45 1   
    14    6   46 1   
    15    6   47 1   
    16    7    8 1   
    17    8    9 1   
    18    8   10 1   
    19   10   11 1   
    20   10   48 1   
    21   10   88 1   
    22   11   12 1   
    23   11   13 1   
    24   12   16 1   
    25   12   49 1   
    26   13   14 1   
    27   13   50 1   
    28   14   15 1   
    29   14   16 1   
    30   15   51 1   
    31   15   52 1   
    32   15   53 1   
    33   16   17 1   
    34   17   18 1   
    35   17   41 1   
    36   19   21 1   
    37   20   21 1   
    38   20   55 1   
    39   21   89 1   
    40   22   63 1   
    41   22   64 1   
    42   22   86 1   
    43   22   95 1   
    44   23   39 1   
    45   23   66 1   
    46   23   95 1   
    47   24   25 1   
    48   24   28 1   
    49   24   93 1   
    50   25   26 1   
    51   26   27 1   
    52   26   70 1   
    53   26   84 1   
    54   27   28 1   
    55   27   72 1   
    56   28   29 1   
    57   29   30 1   
    58   31   32 1   
    59   31   94 1   
    60   32   33 1   
    61   33   34 1   
    62   34   35 1   
    63   34   77 1   
    64   35   36 1   
    65   35   76 1   
    66   36   37 1   
    67   36   84 1   
    68   37   71 1   
    69   38   39 1   
    70   39   85 1   
    71   40   41 1   
    72   40   85 1   
    73   40   91 1   
    74   41   82 1   
    75   42   83 1   
    76   54   61 1   
    77   57   59 1   
    78   60   86 1   
    79   62   86 1   
    80   65   86 1   
    81   67   69 1   
    82   68   93 1   
    83   73   94 1   
    84   74   75 1   
    85   78   85 1   
    86   79   85 1   
    87   80   81 1   
    88   84   92 1   
    89   90   95 1   
@<TRIPOS>SUBSTRUCTURE
     1 XPP         1 TEMP              0 ****  ****    0 ROOT
