@<TRIPOS>MOLECULE
XPR
   30    31     1     0     0
SMALL
bcc


@<TRIPOS>ATOM
      1 N           2.2010   -0.2210    1.3950 n3        1 XPR     -0.786200
      2 CD          1.2910   -1.2620    0.8940 c3        1 XPR      0.167500
      3 CG          1.6490   -1.5320   -0.5950 c3        1 XPR     -0.088700
      4 CB          3.1140   -1.0960   -0.7040 c3        1 XPR     -0.083400
      5 CA          3.4390   -0.3580    0.6170 c3        1 XPR      0.034500
      6 C14        -0.1920   -1.0810    1.1990 c3        1 XPR     -0.076400
      7 C13        -1.0580   -0.4530    0.1050 c3        1 XPR      0.227100
      8 C12        -0.6930   -1.0000   -1.2750 c3        1 XPR     -0.116400
      9 C11         0.7700   -0.7610   -1.5580 c3        1 XPR     -0.068400
     10 O2         -2.3890   -0.7710    0.4060 os        1 XPR     -0.624500
     11 S          -3.7420    0.1330   -0.1440 s6        1 XPR      1.697300
     12 OS1        -3.4980    1.4200    0.3400 o         1 XPR     -0.762200
     13 OS2        -3.6850    0.0040   -1.5350 o         1 XPR     -0.762200
     14 OS3        -4.7910   -0.5550    0.4740 o         1 XPR     -0.762200
     15 C           4.1940    0.9660    0.3170 c         1 XPR      0.913600
     16 O           3.5440    2.0440    0.2270 o         1 XPR     -0.850300
     17 HD2         1.6050   -2.1960    1.4590 h1        1 XPR      0.016700
     18 HG2         1.5420   -2.6280   -0.8030 hc        1 XPR      0.021700
     19 HB2         3.7850   -1.9790   -0.8290 hc        1 XPR      0.031200
     20 HB3         3.2750   -0.4160   -1.5760 hc        1 XPR      0.031200
     21 HA          4.1300   -1.0040    1.2300 h1        1 XPR      0.036700
     22 H25        -0.6180   -2.0990    1.4110 hc        1 XPR      0.040200
     23 H26        -0.3190   -0.4740    2.1340 hc        1 XPR      0.040200
     24 H27        -0.9270    0.6680    0.1110 h1        1 XPR      0.035700
     25 H28        -0.9240   -2.0960   -1.3080 hc        1 XPR      0.048200
     26 H29        -1.3360   -0.4980   -2.0440 hc        1 XPR      0.048200
     27 H30         0.9960    0.3360   -1.4720 hc        1 XPR      0.035200
     28 H31         1.0110   -1.0720   -2.6080 hc        1 XPR      0.035200
     29 H           1.8130    0.6950    1.2380 hn        1 XPR      0.369800
     30 OXT         5.4480    0.8810    0.1660 o         1 XPR     -0.850300
@<TRIPOS>BOND
     1    1    2 1   
     2    1    5 1   
     3    1   29 1   
     4    2    3 1   
     5    2    6 1   
     6    2   17 1   
     7    3    4 1   
     8    3    9 1   
     9    3   18 1   
    10    4    5 1   
    11    4   19 1   
    12    4   20 1   
    13    5   15 1   
    14    5   21 1   
    15    6    7 1   
    16    6   22 1   
    17    6   23 1   
    18    7    8 1   
    19    7   10 1   
    20    7   24 1   
    21    8    9 1   
    22    8   25 1   
    23    8   26 1   
    24    9   27 1   
    25    9   28 1   
    26   10   11 1   
    27   11   12 1   
    28   11   13 1   
    29   11   14 1   
    30   15   16 1   
    31   15   30 1   
@<TRIPOS>SUBSTRUCTURE
     1 XPR         1 TEMP              0 ****  ****    0 ROOT
