@<TRIPOS>MOLECULE
XPT
   32    31     1     0     0
SMALL
bcc


@<TRIPOS>ATOM
      1 Cl1         1.0120    1.6200   -0.3850 cl        1 XPT     -0.238900
      2 C3          1.9710   -0.3590    1.8690 c3        1 XPT     -0.035933
      3 C4          2.7790   -1.5190    2.3890 c3        1 XPT     -0.056067
      4 C5          2.4860   -1.7900    3.8440 c3        1 XPT     -0.091767
      5 C6          2.1560   -1.3380   -0.7580 c3        1 XPT     -0.035933
      6 C7          0.7680   -1.9260   -0.7590 c3        1 XPT     -0.056067
      7 C8          0.6660   -3.1080   -1.6900 c3        1 XPT     -0.091767
      8 C9          3.9710    0.5080    0.1710 c3        1 XPT     -0.035933
      9 C10         4.3750    1.1590   -1.1290 c3        1 XPT     -0.056067
     10 C11         5.8270    1.5640   -1.1170 c3        1 XPT     -0.091767
     11 SN1         2.2570    0.1250    0.2050 s6        1 XPT     -0.303500
     12 H3          0.8800   -0.5990    1.9640 h1        1 XPT      0.083533
     13 H3A         2.1570    0.5390    2.5120 h1        1 XPT      0.083533
     14 H4          3.8750   -1.3040    2.2670 hc        1 XPT      0.045700
     15 H4A         2.5480   -2.4400    1.7890 hc        1 XPT      0.045700
     16 H5          1.4050   -2.0250    3.9900 hc        1 XPT      0.035478
     17 H5A         3.0900   -2.6570    4.2040 hc        1 XPT      0.035478
     18 H5B         2.7380   -0.8990    4.4690 hc        1 XPT      0.035478
     19 H6          2.8890   -2.1040   -0.4020 h1        1 XPT      0.083533
     20 H6A         2.4480   -1.0750   -1.8070 h1        1 XPT      0.083533
     21 H7          0.0270   -1.1410   -1.0710 hc        1 XPT      0.045700
     22 H7A         0.4970   -2.2490    0.2820 hc        1 XPT      0.045700
     23 H8          0.8980   -2.8030   -2.7400 hc        1 XPT      0.035478
     24 H8A        -0.3670   -3.5310   -1.6650 hc        1 XPT      0.035478
     25 H8B         1.3850   -3.9080   -1.3920 hc        1 XPT      0.035478
     26 H9          4.1940    1.2040    1.0180 h1        1 XPT      0.083533
     27 H9A         4.5870   -0.4100    0.3360 h1        1 XPT      0.083533
     28 H10         3.7360    2.0650   -1.3120 hc        1 XPT      0.045700
     29 H10A        4.1950    0.4470   -1.9790 hc        1 XPT      0.045700
     30 H11         6.4840    0.6750   -0.9550 hc        1 XPT      0.035478
     31 H11A        6.1040    2.0360   -2.0900 hc        1 XPT      0.035478
     32 H11B        6.0240    2.2990   -0.2990 hc        1 XPT      0.035478
@<TRIPOS>BOND
     1    1   11 1   
     2    2    3 1   
     3    2   11 1   
     4    2   12 1   
     5    2   13 1   
     6    3    4 1   
     7    3   14 1   
     8    3   15 1   
     9    4   16 1   
    10    4   17 1   
    11    4   18 1   
    12    5    6 1   
    13    5   11 1   
    14    5   19 1   
    15    5   20 1   
    16    6    7 1   
    17    6   21 1   
    18    6   22 1   
    19    7   23 1   
    20    7   24 1   
    21    7   25 1   
    22    8    9 1   
    23    8   11 1   
    24    8   26 1   
    25    8   27 1   
    26    9   10 1   
    27    9   28 1   
    28    9   29 1   
    29   10   30 1   
    30   10   31 1   
    31   10   32 1   
@<TRIPOS>SUBSTRUCTURE
     1 XPT         1 TEMP              0 ****  ****    0 ROOT
