@<TRIPOS>MOLECULE
XPT
   32    31     1     0     0
SMALL
bcc


@<TRIPOS>ATOM
      1 CL1         0.9980    1.5980   -0.4220 cl        1 XPT     -0.238900
      2 C3          1.9740   -0.3350    1.8640 c3        1 XPT     -0.035933
      3 C4          2.7870   -1.4830    2.4020 c3        1 XPT     -0.056067
      4 C5          2.5010   -1.7280    3.8630 c3        1 XPT     -0.091767
      5 C6          2.1570   -1.3600   -0.7450 c3        1 XPT     -0.035933
      6 C7          0.7720   -1.9550   -0.7320 c3        1 XPT     -0.056067
      7 C8          0.6750   -3.1540   -1.6410 c3        1 XPT     -0.091767
      8 C9          3.9640    0.5130    0.1460 c3        1 XPT     -0.035933
      9 C10         4.3610    1.1410   -1.1670 c3        1 XPT     -0.056067
     10 C11         5.8110    1.5540   -1.1650 c3        1 XPT     -0.091767
     11 SN1         2.2520    0.1210    0.1920 s6        1 XPT     -0.303500
     12 H3          0.8840   -0.5760    1.9670 h1        1 XPT      0.083533
     13 H3A         2.1590    0.5750    2.4910 h1        1 XPT      0.083533
     14 H4          3.8810   -1.2680    2.2710 hc        1 XPT      0.045700
     15 H4A         2.5550   -2.4150    1.8190 hc        1 XPT      0.045700
     16 H5          1.4200   -1.9630    4.0180 hc        1 XPT      0.035478
     17 H5A         3.1070   -2.5880    4.2360 hc        1 XPT      0.035478
     18 H5B         2.7530   -0.8260    4.4710 hc        1 XPT      0.035478
     19 H6          2.8950   -2.1150   -0.3780 h1        1 XPT      0.083533
     20 H6A         2.4450   -1.1140   -1.7990 h1        1 XPT      0.083533
     21 H7          0.0260   -1.1790   -1.0560 hc        1 XPT      0.045700
     22 H7A         0.5050   -2.2610    0.3160 hc        1 XPT      0.045700
     23 H8          0.9020   -2.8670   -2.6960 hc        1 XPT      0.035478
     24 H8A        -0.3560   -3.5830   -1.6050 hc        1 XPT      0.035478
     25 H8B         1.3990   -3.9450   -1.3300 hc        1 XPT      0.035478
     26 H9          4.1850    1.2260    0.9800 h1        1 XPT      0.083533
     27 H9A         4.5860   -0.3990    0.3270 h1        1 XPT      0.083533
     28 H10         3.7160    2.0400   -1.3660 hc        1 XPT      0.045700
     29 H10A        4.1850    0.4110   -2.0020 hc        1 XPT      0.045700
     30 H11         6.4740    0.6730   -0.9870 hc        1 XPT      0.035478
     31 H11A        6.0830    2.0090   -2.1480 hc        1 XPT      0.035478
     32 H11B        6.0050    2.3060   -0.3630 hc        1 XPT      0.035478
@<TRIPOS>BOND
     1    1   11 1   
     2    2    3 1   
     3    2   11 1   
     4    2   12 1   
     5    2   13 1   
     6    3    4 1   
     7    3   14 1   
     8    3   15 1   
     9    4   16 1   
    10    4   17 1   
    11    4   18 1   
    12    5    6 1   
    13    5   11 1   
    14    5   19 1   
    15    5   20 1   
    16    6    7 1   
    17    6   21 1   
    18    6   22 1   
    19    7   23 1   
    20    7   24 1   
    21    7   25 1   
    22    8    9 1   
    23    8   11 1   
    24    8   26 1   
    25    8   27 1   
    26    9   10 1   
    27    9   28 1   
    28    9   29 1   
    29   10   30 1   
    30   10   31 1   
    31   10   32 1   
@<TRIPOS>SUBSTRUCTURE
     1 XPT         1 TEMP              0 ****  ****    0 ROOT
