@<TRIPOS>MOLECULE
XPT
   32    31     1     0     0
SMALL
bcc


@<TRIPOS>ATOM
      1 CL1         0.5510    0.9220   -2.2130 cl        1 XPT     -0.237900
      2 C3         -0.5670   -1.2010   -0.1570 c3        1 XPT     -0.035933
      3 C4         -1.2000   -1.5980    1.1500 c3        1 XPT     -0.055400
      4 C5         -1.5190   -3.0720    1.1860 c3        1 XPT     -0.091433
      5 C6          1.1130    0.7660    0.9290 c3        1 XPT     -0.035933
      6 C7          2.4120    0.0470    0.6660 c3        1 XPT     -0.055400
      7 C8          3.4610    0.4080    1.6870 c3        1 XPT     -0.091433
      8 C9         -1.4210    1.4480    0.2340 c3        1 XPT     -0.035933
      9 C10        -2.6380    1.3060   -0.6450 c3        1 XPT     -0.055400
     10 C11        -3.7470    2.2310   -0.2120 c3        1 XPT     -0.091433
     11 SN1        -0.0750    0.4740   -0.3320 s6        1 XPT     -0.304500
     12 H3          0.3400   -1.8360   -0.3360 h1        1 XPT      0.083367
     13 H3A        -1.2810   -1.4220   -0.9930 h1        1 XPT      0.083367
     14 H4         -0.5090   -1.3510    2.0010 hc        1 XPT      0.045367
     15 H4A        -2.1460   -1.0120    1.3050 hc        1 XPT      0.045367
     16 H5         -0.5900   -3.6800    1.0670 hc        1 XPT      0.035367
     17 H5A        -1.9960   -3.3410    2.1590 hc        1 XPT      0.035367
     18 H5B        -2.2220   -3.3420    0.3610 hc        1 XPT      0.035367
     19 H6          0.7150    0.4700    1.9310 h1        1 XPT      0.083367
     20 H6A         1.3040    1.8690    0.9700 h1        1 XPT      0.083367
     21 H7          2.2400   -1.0630    0.6890 hc        1 XPT      0.045367
     22 H7A         2.7850    0.3080   -0.3610 hc        1 XPT      0.045367
     23 H8          4.4090   -0.1450    1.4780 hc        1 XPT      0.035367
     24 H8A         3.6770    1.5030    1.6590 hc        1 XPT      0.035367
     25 H8B         3.1170    0.1450    2.7160 hc        1 XPT      0.035367
     26 H9         -1.0900    2.5190    0.2360 h1        1 XPT      0.083367
     27 H9A        -1.6860    1.1910    1.2900 h1        1 XPT      0.083367
     28 H10        -2.3600    1.5290   -1.7110 hc        1 XPT      0.045367
     29 H10A       -3.0040    0.2440   -0.6090 hc        1 XPT      0.045367
     30 H11        -3.4170    3.2960   -0.2730 hc        1 XPT      0.035367
     31 H11A       -4.6380    2.1000   -0.8720 hc        1 XPT      0.035367
     32 H11B       -4.0510    2.0180    0.8410 hc        1 XPT      0.035367
@<TRIPOS>BOND
     1    1   11 1   
     2    2    3 1   
     3    2   11 1   
     4    2   12 1   
     5    2   13 1   
     6    3    4 1   
     7    3   14 1   
     8    3   15 1   
     9    4   16 1   
    10    4   17 1   
    11    4   18 1   
    12    5    6 1   
    13    5   11 1   
    14    5   19 1   
    15    5   20 1   
    16    6    7 1   
    17    6   21 1   
    18    6   22 1   
    19    7   23 1   
    20    7   24 1   
    21    7   25 1   
    22    8    9 1   
    23    8   11 1   
    24    8   26 1   
    25    8   27 1   
    26    9   10 1   
    27    9   28 1   
    28    9   29 1   
    29   10   30 1   
    30   10   31 1   
    31   10   32 1   
@<TRIPOS>SUBSTRUCTURE
     1 XPT         1 TEMP              0 ****  ****    0 ROOT
