@<TRIPOS>MOLECULE
XPY
   52    49     1     0     0
SMALL
bcc


@<TRIPOS>ATOM
      1 C1          1.4520   -0.8470   -0.1320 c1        1 XPY      0.242500
      2 C2          1.2720   -0.0290    0.8770 ce        1 XPY     -0.255700
      3 C3          1.8190   -0.3450    2.2320 ce        1 XPY      0.739500
      4 N6         -2.1670    0.5940   10.2220 nc        1 XPY     -0.429800
      5 C7          5.7700    3.0650    2.4530 c1        1 XPY     -0.167500
      6 C8          6.5570    0.2610   -0.1320 c3        1 XPY     -0.241400
      7 C9          5.6180   -0.6960    0.4870 c2        1 XPY      0.424200
      8 C10         0.5680   -3.3810   -2.2600 c1        1 XPY      0.582800
      9 C11        -1.2420    0.2750    4.2480 ce        1 XPY     -0.293200
     10 C12        -0.8600    0.2000    5.6750 c         1 XPY      0.682300
     11 C13        -1.6900    0.4380    7.9650 cd        1 XPY     -0.076700
     12 C14        -2.7050    0.7220    8.9720 cd        1 XPY      0.178600
     13 C15        -4.1530    1.1070    8.7700 c3        1 XPY      0.637600
     14 F2         -4.5360    1.1810    7.4490 f         1 XPY     -0.230300
     15 F          -5.0520    0.2350    9.3280 f         1 XPY     -0.230300
     16 F1         -4.4870    2.3330    9.2830 f         1 XPY     -0.230300
     17 N7         -0.8920    0.2480   10.0640 na        1 XPY      0.119400
     18 C17        -0.5290    0.1370    8.7150 cc        1 XPY     -0.160300
     19 N5         -1.8620    0.4650    6.5910 ns        1 XPY     -0.420100
     20 O           0.3030   -0.0880    6.0470 o         1 XPY     -0.652100
     21 C          -0.3890    0.1000    3.2120 c2        1 XPY      0.126000
     22 N4          1.1130   -2.5020   -1.6600 n1        1 XPY     -0.748100
     23 N1          1.8190   -1.5340   -1.1240 ne        1 XPY     -0.081100
     24 N           0.9660   -0.1690    3.3200 nu        1 XPY     -0.734000
     25 N2          3.0750   -0.7310    2.2830 nf        1 XPY     -0.759300
     26 C4          3.7050   -1.0740    3.4890 cf        1 XPY      0.030600
     27 C6          6.0780    3.4490    1.3620 c1        1 XPY     -0.167500
     28 C5          4.8080   -0.4760    3.9660 c2        1 XPY     -0.237000
     29 H1         -0.7830    0.1650    2.1760 h4        1 XPY      0.151000
     30 H2          0.7800    0.9510    0.7480 ha        1 XPY      0.200000
     31 H3          6.8580    2.6400   -1.5080 ha        1 XPY      0.001000
     32 H4          6.4510    0.3620   -1.2410 hc        1 XPY      0.118033
     33 H5          5.4980    2.7510    3.4310 ha        1 XPY      0.169000
     34 H6          6.3960    1.2760    0.3380 hc        1 XPY      0.118033
     35 H7          7.6100   -0.0550    0.1030 hc        1 XPY      0.118033
     36 H8         -2.2990    0.4820    4.0100 ha        1 XPY      0.163000
     37 H12         0.4720   -0.1360    8.3770 h4        1 XPY      0.210000
     38 H13        -2.7770    0.6930    6.2650 hn        1 XPY      0.345500
     39 H14         1.3430   -0.2760    4.2490 hn        1 XPY      0.490800
     40 H15         3.2790   -1.9550    4.0170 h4        1 XPY      0.145000
     41 H19         7.0190    3.1800   -1.8860 ha        1 XPY      0.001000
     42 H20         5.3060   -0.8580    4.8680 ha        1 XPY      0.128000
     43 H21         5.2550    0.4270    3.5290 ha        1 XPY      0.128000
     44 H22         6.3530    3.8230    0.4060 ha        1 XPY      0.169000
     45 C16         0.0230    0.0390   11.1660 c3        1 XPY      0.034600
     46 N3          4.7330   -1.4030   -0.1570 nv        1 XPY     -0.308100
     47 H16         5.6770   -0.8160    1.6030 h4        1 XPY      0.087800
     48 H9         -0.4380   -0.6480   11.9250 h1        1 XPY      0.070700
     49 H10         0.2590    1.0220   11.6550 h1        1 XPY      0.070700
     50 H11         0.9630   -0.4190   10.7620 h1        1 XPY      0.070700
     51 H17         4.6030   -1.3300   -1.1520 hn        1 XPY      0.335200
     52 H33         4.0980   -2.0170    0.3290 hn        1 XPY      0.335200
@<TRIPOS>BOND
     1    1    2 2   
     2    1   23 2   
     3    2    3 1   
     4    2   30 1   
     5    3   24 1   
     6    3   25 2   
     7    4   12 2   
     8    4   17 1   
     9    5   27 3   
    10    5   33 1   
    11    6    7 1   
    12    6   32 1   
    13    6   34 1   
    14    6   35 1   
    15    7   46 2   
    16    7   47 1   
    17    8   22 3   
    18    9   10 1   
    19    9   21 2   
    20    9   36 1   
    21   10   19 1   
    22   10   20 2   
    23   11   12 1   
    24   11   18 2   
    25   11   19 1   
    26   12   13 1   
    27   13   14 1   
    28   13   15 1   
    29   13   16 1   
    30   17   18 1   
    31   17   45 1   
    32   18   37 1   
    33   19   38 1   
    34   21   24 1   
    35   21   29 1   
    36   22   23 1   
    37   24   39 1   
    38   25   26 1   
    39   26   28 2   
    40   26   40 1   
    41   27   44 1   
    42   28   42 1   
    43   28   43 1   
    44   31   41 1   
    45   45   48 1   
    46   45   49 1   
    47   45   50 1   
    48   46   51 1   
    49   46   52 1   
@<TRIPOS>SUBSTRUCTURE
     1 XPY         1 TEMP              0 ****  ****    0 ROOT
