@<TRIPOS>MOLECULE
XQ0
   19    14     1     0     0
SMALL
bcc


@<TRIPOS>ATOM
      1 O3         -3.2990    1.4530   -0.2570 oh        1 XQ0     -0.249000
      2 C3         -1.8920    1.4530   -0.2570 c2        1 XQ0      0.115000
      3 C2         -1.3120    1.4530    1.0000 c2        1 XQ0     -0.183000
      4 C4         -1.3380    0.6970   -1.2760 c1        1 XQ0     -0.239000
      5 C5         -0.1830   -0.0730   -1.0330 c1        1 XQ0     -0.067000
      6 C6          0.3870   -0.0730    0.2030 c1        1 XQ0     -0.067000
      7 C1         -0.1770    0.6970    1.2390 c1        1 XQ0     -0.030000
      8 N2          0.5570   -0.8940   -1.8400 n1        1 XQ0     -0.190000
      9 N1          1.5930   -1.4040   -1.0920 n2        1 XQ0     -0.058000
     10 C7          1.4930   -0.9030    0.1620 c1        1 XQ0     -0.079000
     11 C8          2.4810   -1.6300    1.0480 c2        1 XQ0     -0.149000
     12 H3         -3.5950    2.2320   -0.5620 ho        1 XQ0      0.220000
     13 H2         -1.6860    2.0100    1.7090 ha        1 XQ0      0.153000
     14 H4         -1.7330    0.7160   -2.1680 ha        1 XQ0      0.142000
     15 H1          0.2320    0.6970    2.1250 ha        1 XQ0      0.141000
     16 HA          0.3920   -1.0720   -2.7190 DU        1 XQ0      0.264000
     17 H81C        1.9990   -2.2350    1.6440 ha        1 XQ0      0.092667
     18 H82C        3.0990   -2.1430    0.4940 ha        1 XQ0      0.092667
     19 H83C        2.9810   -0.9810    1.5780 ha        1 XQ0      0.092667
@<TRIPOS>BOND
     1    1    2 1   
     2    1   12 1   
     3    2    3 1   
     4    2    4 1   
     5    3    7 1   
     6    3   13 1   
     7    4   14 1   
     8    5    6 1   
     9    7   15 1   
    10    8    9 1   
    11    9   10 1   
    12   11   17 1   
    13   11   18 1   
    14   11   19 1   
@<TRIPOS>SUBSTRUCTURE
     1 XQ0         1 TEMP              0 ****  ****    0 ROOT
