@<TRIPOS>MOLECULE
XQ0
   19    20     1     0     0
SMALL
bcc


@<TRIPOS>ATOM
      1 O3         -0.0070    0.0860    0.1840 oh        1 XQ0     -0.495100
      2 C3          1.3650    0.0730    0.0770 ca        1 XQ0      0.160100
      3 C2          2.0670   -0.0220    1.3050 ca        1 XQ0     -0.183000
      4 C4          2.0100    0.1440   -1.1590 ca        1 XQ0     -0.239000
      5 C5          3.4090    0.1140   -1.1330 ca        1 XQ0     -0.017200
      6 C6          4.1400    0.0160    0.1080 ca        1 XQ0     -0.245900
      7 C1          3.4510   -0.0480    1.3180 ca        1 XQ0     -0.030000
      8 N2          4.3770    0.2260   -2.1480 na        1 XQ0     -0.015100
      9 N1          5.6210    0.1060   -1.6520 nc        1 XQ0     -0.525100
     10 C7          5.5450    0.0190   -0.3040 cd        1 XQ0      0.367900
     11 C8          6.6940   -0.0440    0.6180 c3        1 XQ0     -0.106400
     12 H3         -0.3790    0.1720   -0.7060 ho        1 XQ0      0.421000
     13 H2          1.4880   -0.0730    2.2370 ha        1 XQ0      0.153000
     14 H4          1.4500    0.2220   -2.0990 ha        1 XQ0      0.142000
     15 H1          4.0020   -0.1160    2.2680 ha        1 XQ0      0.141000
     16 HA          4.2220    0.0120   -3.1060 hn        1 XQ0      0.313700
     17 H81C        7.5210   -0.6690    0.1990 hc        1 XQ0      0.053367
     18 H82C        6.3680   -0.4820    1.5930 hc        1 XQ0      0.053367
     19 H83C        7.0910    0.9870    0.8030 hc        1 XQ0      0.053367
@<TRIPOS>BOND
     1    1    2 1   
     2    1   12 1   
     3    2    3 ar  
     4    2    4 ar  
     5    3    7 ar  
     6    3   13 1   
     7    4    5 ar  
     8    4   14 1   
     9    5    6 ar  
    10    5    8 1   
    11    6    7 ar  
    12    6   10 1   
    13    7   15 1   
    14    8    9 1   
    15    8   16 1   
    16    9   10 2   
    17   10   11 1   
    18   11   17 1   
    19   11   18 1   
    20   11   19 1   
@<TRIPOS>SUBSTRUCTURE
     1 XQ0         1 TEMP              0 ****  ****    0 ROOT
