@<TRIPOS>MOLECULE
XQ0
   19    20     1     0     0
SMALL
bcc


@<TRIPOS>ATOM
      1 O3         -0.0090    0.0370    0.1610 oh        1 XQ0     -0.495100
      2 C3          1.3630    0.0430    0.0620 ca        1 XQ0      0.160100
      3 C2          2.0590   -0.0620    1.2930 ca        1 XQ0     -0.183000
      4 C4          2.0150    0.1400   -1.1690 ca        1 XQ0     -0.239000
      5 C5          3.4140    0.1260   -1.1340 ca        1 XQ0     -0.017200
      6 C6          4.1390    0.0180    0.1110 ca        1 XQ0     -0.245900
      7 C1          3.4440   -0.0720    1.3150 ca        1 XQ0     -0.030000
      8 N2          4.3870    0.2650   -2.1410 na        1 XQ0     -0.015100
      9 N1          5.6300    0.1520   -1.6390 nc        1 XQ0     -0.525100
     10 C7          5.5460    0.0440   -0.2920 cd        1 XQ0      0.367900
     11 C8          6.6900   -0.0180    0.6350 c3        1 XQ0     -0.106400
     12 H3         -0.3760    0.1320   -0.7300 ho        1 XQ0      0.421000
     13 H2          1.4750   -0.1340    2.2210 ha        1 XQ0      0.153000
     14 H4          1.4600    0.2250   -2.1100 ha        1 XQ0      0.142000
     15 H1          3.9890   -0.1470    2.2670 ha        1 XQ0      0.141000
     16 HA          4.2410    0.0630   -3.1030 hn        1 XQ0      0.313700
     17 H81C        7.5320   -0.6180    0.2090 hc        1 XQ0      0.053367
     18 H82C        6.3660   -0.4850    1.5980 hc        1 XQ0      0.053367
     19 H83C        7.0660    1.0150    0.8470 hc        1 XQ0      0.053367
@<TRIPOS>BOND
     1    1    2 1   
     2    1   12 1   
     3    2    3 ar  
     4    2    4 ar  
     5    3    7 ar  
     6    3   13 1   
     7    4    5 ar  
     8    4   14 1   
     9    5    6 ar  
    10    5    8 1   
    11    6    7 ar  
    12    6   10 1   
    13    7   15 1   
    14    8    9 1   
    15    8   16 1   
    16    9   10 2   
    17   10   11 1   
    18   11   17 1   
    19   11   18 1   
    20   11   19 1   
@<TRIPOS>SUBSTRUCTURE
     1 XQ0         1 TEMP              0 ****  ****    0 ROOT
