@<TRIPOS>MOLECULE
XQ0
   19    20     1     0     0
SMALL
bcc


@<TRIPOS>ATOM
      1 O3          3.4900   -0.2990    0.2260 oh        1 XQ0     -0.497100
      2 C3          2.1380   -0.0430    0.1660 ca        1 XQ0      0.154100
      3 C2          1.6350    1.2800    0.2150 ca        1 XQ0     -0.238000
      4 C4          1.3100   -1.1630    0.0500 ca        1 XQ0     -0.179000
      5 C5         -0.0640   -0.9100   -0.0190 ca        1 XQ0     -0.020200
      6 C6         -0.5940    0.4340    0.0290 ca        1 XQ0     -0.245900
      7 C1          0.2700    1.5170    0.1490 ca        1 XQ0     -0.023000
      8 N2         -1.1780   -1.7660   -0.0770 na        1 XQ0     -0.016100
      9 N1         -2.3260   -1.0710   -0.1670 nc        1 XQ0     -0.522100
     10 C7         -2.0430    0.2490   -0.0690 cd        1 XQ0      0.365900
     11 C8         -3.0370    1.3380   -0.0440 c3        1 XQ0     -0.106400
     12 H3          3.9520    0.5480    0.3020 ho        1 XQ0      0.422000
     13 H2          2.3380    2.1190    0.3080 ha        1 XQ0      0.135000
     14 H4          1.7310   -2.1740    0.0190 ha        1 XQ0      0.158000
     15 H1         -0.1240    2.5430    0.1930 ha        1 XQ0      0.139000
     16 HA         -1.1600   -2.7050   -0.4010 hn        1 XQ0      0.316700
     17 H81C       -3.8820    1.1380   -0.7480 hc        1 XQ0      0.052700
     18 H82C       -3.4570    1.4480    0.9880 hc        1 XQ0      0.052700
     19 H83C       -2.5450    2.3000   -0.3340 hc        1 XQ0      0.052700
@<TRIPOS>BOND
     1    1    2 1   
     2    1   12 1   
     3    2    3 ar  
     4    2    4 ar  
     5    3    7 ar  
     6    3   13 1   
     7    4    5 ar  
     8    4   14 1   
     9    5    6 ar  
    10    5    8 1   
    11    6    7 ar  
    12    6   10 1   
    13    7   15 1   
    14    8    9 1   
    15    8   16 1   
    16    9   10 2   
    17   10   11 1   
    18   11   17 1   
    19   11   18 1   
    20   11   19 1   
@<TRIPOS>SUBSTRUCTURE
     1 XQ0         1 TEMP              0 ****  ****    0 ROOT
