@<TRIPOS>MOLECULE
XQ9
   55    58     1     0     0
SMALL
bcc


@<TRIPOS>ATOM
      1 C1          0.5640    0.6550    1.4240 c3        1 XQ9     -0.386300
      2 S2          1.9930    0.3150    0.5950 s6        1 XQ9      1.466900
      3 O3          3.0760    0.4940    1.4590 o         1 XQ9     -0.614300
      4 O4          1.8370   -0.8800   -0.1150 o         1 XQ9     -0.614300
      5 N5          2.0580    1.5520   -0.5380 n3        1 XQ9     -0.804500
      6 C6          2.7910    2.7590   -0.3040 c3        1 XQ9      0.231300
      7 C7          2.0450    4.0240   -0.7830 c3        1 XQ9     -0.131400
      8 C8          1.6870    3.8240   -2.2550 c3        1 XQ9      0.149500
      9 C9          0.8340    2.5740   -2.4430 c3        1 XQ9     -0.131400
     10 C10         1.6250    1.3680   -1.8910 c3        1 XQ9      0.231300
     11 N11         0.9530    5.0830   -2.7750 n4        1 XQ9     -0.666800
     12 C12         0.9670    5.1880   -4.2630 c         1 XQ9      0.495100
     13 O13         1.6560    4.4440   -4.9440 o         1 XQ9     -0.304100
     14 N14         0.1360    6.2370   -4.9080 n4        1 XQ9     -0.678800
     15 C15         0.9430    7.5440   -5.2400 c3        1 XQ9      0.167200
     16 C16        -0.0900    8.6470   -5.5400 c3        1 XQ9     -0.104400
     17 C17         0.6760    9.9290   -5.8820 c3        1 XQ9     -0.053367
     18 C18         1.5400   10.3370   -4.6960 c3        1 XQ9     -0.092400
     19 C19         2.5530    9.2380   -4.4010 c3        1 XQ9     -0.053367
     20 C20         1.8130    7.9410   -4.0440 c3        1 XQ9     -0.104400
     21 C21         3.4300    8.9960   -5.6230 c3        1 XQ9     -0.092400
     22 C22         2.5600    8.5910   -6.8050 c3        1 XQ9     -0.053367
     23 C23         1.5500    9.6910   -7.1070 c3        1 XQ9     -0.092400
     24 C24         1.8170    7.2920   -6.4790 c3        1 XQ9     -0.104400
     25 H11C       -0.3580    0.6070    0.7950 h1        1 XQ9      0.129700
     26 H12C        0.4000   -0.1060    2.2390 h1        1 XQ9      0.129700
     27 H13C        0.5550    1.6430    1.9450 h1        1 XQ9      0.129700
     28 H61C        2.9950    2.8690    0.8030 h1        1 XQ9      0.091700
     29 H62C        3.7880    2.7270   -0.8350 h1        1 XQ9      0.091700
     30 H101        2.5120    1.1990   -2.5710 h1        1 XQ9      0.091700
     31 H102        0.9650    0.4520   -1.9550 h1        1 XQ9      0.091700
     32 H71C        2.7300    4.9000   -0.6400 hc        1 XQ9      0.077700
     33 H72C        1.1250    4.1770   -0.1610 hc        1 XQ9      0.077700
     34 H8          2.6340    3.7400   -2.8710 hx        1 XQ9      0.132700
     35 H91C       -0.1410    2.6640   -1.8990 hc        1 XQ9      0.077700
     36 H92C        0.6320    2.3830   -3.5290 hc        1 XQ9      0.077700
     37 H11         1.4230    5.9150   -2.3760 hn        1 XQ9      0.480800
     38 H14        -0.1940    5.8580   -5.8160 hn        1 XQ9      0.485800
     39 H161       -0.7440    8.8360   -4.6480 hc        1 XQ9      0.065533
     40 H162       -0.7350    8.3610   -6.4120 hc        1 XQ9      0.065533
     41 H201        2.5790    7.1500   -3.8310 hc        1 XQ9      0.065533
     42 H202        1.1860    8.1210   -3.1330 hc        1 XQ9      0.065533
     43 H241        1.1850    7.0030   -7.3600 hc        1 XQ9      0.065533
     44 H242        2.5580    6.4740   -6.2820 hc        1 XQ9      0.065533
     45 H17        -0.0760   10.7370   -6.1020 hc        1 XQ9      0.106700
     46 H181        2.0830   11.2900   -4.9370 hc        1 XQ9      0.082533
     47 H182        0.9010   10.5310   -3.7960 hc        1 XQ9      0.082533
     48 H231        0.9170    9.4080   -7.9870 hc        1 XQ9      0.082533
     49 H232        2.0920   10.6380   -7.3710 hc        1 XQ9      0.082533
     50 H19         3.1920    9.5340   -3.5240 hc        1 XQ9      0.106700
     51 H211        4.1900    8.2010   -5.4070 hc        1 XQ9      0.082533
     52 H212        3.9900    9.9370   -5.8730 hc        1 XQ9      0.082533
     53 H22         3.2060    8.4080   -7.7090 hc        1 XQ9      0.106700
     54 H112       -0.0140    5.0460   -2.4240 hn        1 XQ9      0.480800
     55 H142       -0.6810    6.4970   -4.3440 hn        1 XQ9      0.485800
@<TRIPOS>BOND
     1    1    2 1   
     2    1   25 1   
     3    1   26 1   
     4    1   27 1   
     5    2    3 2   
     6    2    4 2   
     7    2    5 1   
     8    5    6 1   
     9    5   10 1   
    10    6    7 1   
    11    6   28 1   
    12    6   29 1   
    13    7    8 1   
    14    7   32 1   
    15    7   33 1   
    16    8    9 1   
    17    8   11 1   
    18    8   34 1   
    19    9   10 1   
    20    9   35 1   
    21    9   36 1   
    22   10   30 1   
    23   10   31 1   
    24   11   12 1   
    25   11   37 1   
    26   11   54 1   
    27   12   13 2   
    28   12   14 1   
    29   14   15 1   
    30   14   38 1   
    31   14   55 1   
    32   15   16 1   
    33   15   20 1   
    34   15   24 1   
    35   16   17 1   
    36   16   39 1   
    37   16   40 1   
    38   17   18 1   
    39   17   23 1   
    40   17   45 1   
    41   18   19 1   
    42   18   46 1   
    43   18   47 1   
    44   19   20 1   
    45   19   21 1   
    46   19   50 1   
    47   20   41 1   
    48   20   42 1   
    49   21   22 1   
    50   21   51 1   
    51   21   52 1   
    52   22   23 1   
    53   22   24 1   
    54   22   53 1   
    55   23   48 1   
    56   23   49 1   
    57   24   43 1   
    58   24   44 1   
@<TRIPOS>SUBSTRUCTURE
     1 XQ9         1 TEMP              0 ****  ****    0 ROOT
