@<TRIPOS>MOLECULE
XQ9
   55    58     1     0     0
SMALL
bcc


@<TRIPOS>ATOM
      1 C1          0.3540    1.8510    1.7370 c3        1 XQ9     -0.388300
      2 S2          0.5750    0.7210    0.5060 s6        1 XQ9      1.467900
      3 O3          1.4840   -0.2480    0.9310 o         1 XQ9     -0.613300
      4 O4         -0.6700    0.3510   -0.0160 o         1 XQ9     -0.613300
      5 N5          1.3350    1.6330   -0.6880 n3        1 XQ9     -0.802500
      6 C6          2.7420    1.8980   -0.6660 c3        1 XQ9      0.230800
      7 C7          3.0920    3.3440   -1.0780 c3        1 XQ9     -0.129900
      8 C8          2.4600    3.6150   -2.4460 c3        1 XQ9      0.138500
      9 C9          0.9530    3.3990   -2.3920 c3        1 XQ9     -0.129900
     10 C10         0.6880    1.9490   -1.9230 c3        1 XQ9      0.230800
     11 N11         2.8120    5.0440   -2.9000 ny        1 XQ9     -0.666800
     12 C12         2.7680    5.1960   -4.3830 c         1 XQ9      0.496100
     13 O13         3.7670    4.9510   -5.0430 o         1 XQ9     -0.310100
     14 N14         1.5130    5.6400   -5.0290 ny        1 XQ9     -0.670800
     15 C15         1.4450    7.1940   -5.2500 c3        1 XQ9      0.166200
     16 C16         0.0010    7.5240   -5.6750 c3        1 XQ9     -0.103400
     17 C17        -0.0860    9.0360   -5.9090 c3        1 XQ9     -0.053700
     18 C18         0.2560    9.7710   -4.6200 c3        1 XQ9     -0.092400
     19 C19         1.6810    9.4330   -4.2020 c3        1 XQ9     -0.053700
     20 C20         1.7950    7.9230   -3.9490 c3        1 XQ9     -0.103400
     21 C21         2.6560    9.8340   -5.3020 c3        1 XQ9     -0.092400
     22 C22         2.3070    9.0980   -6.5890 c3        1 XQ9     -0.053700
     23 C23         0.8840    9.4390   -7.0120 c3        1 XQ9     -0.092400
     24 C24         2.4240    7.5870   -6.3680 c3        1 XQ9     -0.103400
     25 H11C        1.2930    2.3330    2.1040 h1        1 XQ9      0.132033
     26 H12C       -0.0860    1.3500    2.6460 h1        1 XQ9      0.132033
     27 H13C       -0.3600    2.6720    1.4860 h1        1 XQ9      0.132033
     28 H61C        3.2900    1.1960   -1.3620 h1        1 XQ9      0.091450
     29 H62C        3.1400    1.7260    0.3780 h1        1 XQ9      0.091450
     30 H101        1.0420    1.2580   -2.7440 h1        1 XQ9      0.091450
     31 H102       -0.4300    1.8130   -1.8130 h1        1 XQ9      0.091450
     32 H71C        4.2100    3.4260   -1.1210 hc        1 XQ9      0.073450
     33 H72C        2.7040    4.0620   -0.3100 hc        1 XQ9      0.073450
     34 H8          2.9310    2.9250   -3.2130 hx        1 XQ9      0.126700
     35 H91C        0.4840    3.5130   -3.4020 hc        1 XQ9      0.073450
     36 H92C        0.4660    4.1150   -1.6800 hc        1 XQ9      0.073450
     37 H11         2.1930    5.7190   -2.4290 hn        1 XQ9      0.489800
     38 H14         0.6810    5.3500   -4.4990 hn        1 XQ9      0.487800
     39 H161       -0.2650    6.9900   -6.6250 hc        1 XQ9      0.065200
     40 H162       -0.7270    7.2330   -4.8740 hc        1 XQ9      0.065200
     41 H201        1.0890    7.6380   -3.1260 hc        1 XQ9      0.065200
     42 H202        2.8490    7.6980   -3.6390 hc        1 XQ9      0.065200
     43 H241        3.4770    7.3290   -6.0830 hc        1 XQ9      0.065200
     44 H242        2.1700    7.0580   -7.3240 hc        1 XQ9      0.065200
     45 H17        -1.1400    9.2800   -6.2200 hc        1 XQ9      0.107033
     46 H181        0.1670   10.8780   -4.7840 hc        1 XQ9      0.082367
     47 H182       -0.4660    9.4930   -3.8090 hc        1 XQ9      0.082367
     48 H231        0.8010   10.5430   -7.1990 hc        1 XQ9      0.082367
     49 H232        0.6260    8.9160   -7.9680 hc        1 XQ9      0.082367
     50 H19         1.9370    9.9710   -3.2490 hc        1 XQ9      0.107033
     51 H211        2.5900   10.9410   -5.4730 hc        1 XQ9      0.082367
     52 H212        3.7080    9.6040   -4.9940 hc        1 XQ9      0.082367
     53 H22         3.0270    9.3910   -7.4020 hc        1 XQ9      0.107033
     54 H112        3.7890    5.2330   -2.6030 hn        1 XQ9      0.489800
     55 H142        1.4770    5.2080   -5.9720 hn        1 XQ9      0.487800
@<TRIPOS>BOND
     1    1    2 1   
     2    1   25 1   
     3    1   26 1   
     4    1   27 1   
     5    2    3 2   
     6    2    4 2   
     7    2    5 1   
     8    5    6 1   
     9    5   10 1   
    10    6    7 1   
    11    6   28 1   
    12    6   29 1   
    13    7    8 1   
    14    7   32 1   
    15    7   33 1   
    16    8    9 1   
    17    8   11 1   
    18    8   34 1   
    19    9   10 1   
    20    9   35 1   
    21    9   36 1   
    22   10   30 1   
    23   10   31 1   
    24   11   12 1   
    25   11   37 1   
    26   11   54 1   
    27   12   13 2   
    28   12   14 1   
    29   14   15 1   
    30   14   38 1   
    31   14   55 1   
    32   15   16 1   
    33   15   20 1   
    34   15   24 1   
    35   16   17 1   
    36   16   39 1   
    37   16   40 1   
    38   17   18 1   
    39   17   23 1   
    40   17   45 1   
    41   18   19 1   
    42   18   46 1   
    43   18   47 1   
    44   19   20 1   
    45   19   21 1   
    46   19   50 1   
    47   20   41 1   
    48   20   42 1   
    49   21   22 1   
    50   21   51 1   
    51   21   52 1   
    52   22   23 1   
    53   22   24 1   
    54   22   53 1   
    55   23   48 1   
    56   23   49 1   
    57   24   43 1   
    58   24   44 1   
@<TRIPOS>SUBSTRUCTURE
     1 XQ9         1 TEMP              0 ****  ****    0 ROOT
