@<TRIPOS>MOLECULE
XQC
   47    48     1     0     0
SMALL
bcc


@<TRIPOS>ATOM
      1 CAA        -0.1120   -0.0500    0.1980 c3        1 XQC     -0.126600
      2 CAB         1.4140   -0.0350    0.1440 c3        1 XQC      0.154200
      3 CAC         1.9820   -0.0180    1.5620 c3        1 XQC     -0.126600
      4 CAD         1.9330   -1.2810   -0.6240 c3        1 XQC     -0.037100
      5 CAE         1.5600   -2.5640    0.0260 ca        1 XQC     -0.166300
      6 CAF         0.3870   -3.2310   -0.3460 ca        1 XQC     -0.080000
      7 CAG         0.0590   -4.4610    0.2170 ca        1 XQC     -0.180500
      8 CAH         0.9230   -5.0350    1.1620 ca        1 XQC      0.159100
      9 CAJ         2.1120   -4.3810    1.5390 ca        1 XQC     -0.180500
     10 CAK         2.4190   -3.1550    0.9650 ca        1 XQC     -0.080000
     11 CAM         1.3990    2.4960   -0.1080 c3        1 XQC      0.096800
     12 CAN         1.9990    3.6970   -0.8800 c3        1 XQC      0.191400
     13 CAP         1.5630    4.9630   -0.2130 ca        1 XQC     -0.173300
     14 CAQ         2.2580    5.4560    0.8940 ca        1 XQC     -0.115000
     15 CAR         1.8570    6.6410    1.5090 ca        1 XQC     -0.166000
     16 CAS         0.7480    7.3330    1.0140 ca        1 XQC      0.080100
     17 CAU         0.0390    6.8360   -0.1080 ca        1 XQC      0.125100
     18 CAW         0.4550    5.6500   -0.7210 ca        1 XQC     -0.120000
     19 NAL         1.9010    1.1960   -0.6260 ny        1 XQC     -0.764000
     20 OAI         0.6750   -6.2380    1.7670 oh        1 XQC     -0.477100
     21 OAO         3.4060    3.5020   -0.8790 oh        1 XQC     -0.636800
     22 OAT         0.2700    8.5020    1.5520 oh        1 XQC     -0.499100
     23 OAV        -1.0590    7.4620   -0.6350 oh        1 XQC     -0.481100
     24 H1         -0.4330   -1.0270    0.6430 hc        1 XQC      0.075367
     25 H2         -0.5620    0.0310   -0.8220 hc        1 XQC      0.075367
     26 H3         -0.5050    0.7720    0.8440 hc        1 XQC      0.075367
     27 H4          1.5630    0.8250    2.1620 hc        1 XQC      0.075367
     28 H5          1.6940   -0.9780    2.0620 hc        1 XQC      0.075367
     29 H6          3.0980    0.0490    1.5560 hc        1 XQC      0.075367
     30 H7          1.5140   -1.2660   -1.6670 hc        1 XQC      0.063200
     31 H8          3.0530   -1.2240   -0.6980 hc        1 XQC      0.063200
     32 H9         -0.2840   -2.7880   -1.0990 ha        1 XQC      0.134000
     33 H10        -0.8620   -4.9810   -0.0830 ha        1 XQC      0.160000
     34 H11         2.7800   -4.8540    2.2740 ha        1 XQC      0.160000
     35 H12         3.3550   -2.6480    1.2450 ha        1 XQC      0.134000
     36 H13         0.2780    2.5260   -0.2050 hx        1 XQC      0.112700
     37 H14         1.6850    2.5790    0.9790 hx        1 XQC      0.112700
     38 H15         1.6450    3.6790   -1.9530 h1        1 XQC      0.065700
     39 H16         3.1320    4.9100    1.2830 ha        1 XQC      0.142000
     40 H17         2.4090    7.0310    2.3770 ha        1 XQC      0.155000
     41 H18        -0.0950    5.2850   -1.6010 ha        1 XQC      0.158000
     42 H19         2.9300    1.2150   -0.5900 hn        1 XQC      0.451800
     43 H21        -0.1460   -6.6040    1.4030 ho        1 XQC      0.434000
     44 H22         3.8300    4.3650   -0.9770 ho        1 XQC      0.455000
     45 H23         0.8600    8.7730    2.2730 ho        1 XQC      0.446000
     46 H24        -1.2060    8.2890   -0.1470 ho        1 XQC      0.453000
     47 HAL2        1.6190    1.0960   -1.6050 hn        1 XQC      0.451800
@<TRIPOS>BOND
     1    1    2 1   
     2    1   24 1   
     3    1   25 1   
     4    1   26 1   
     5    2    3 1   
     6    2    4 1   
     7    2   19 1   
     8    3   27 1   
     9    3   28 1   
    10    3   29 1   
    11    4    5 1   
    12    4   30 1   
    13    4   31 1   
    14    5    6 ar  
    15    5   10 ar  
    16    6    7 ar  
    17    6   32 1   
    18    7    8 ar  
    19    7   33 1   
    20    8    9 ar  
    21    8   20 1   
    22    9   10 ar  
    23    9   34 1   
    24   10   35 1   
    25   11   12 1   
    26   11   19 1   
    27   11   36 1   
    28   11   37 1   
    29   12   13 1   
    30   12   21 1   
    31   12   38 1   
    32   13   14 ar  
    33   13   18 ar  
    34   14   15 ar  
    35   14   39 1   
    36   15   16 ar  
    37   15   40 1   
    38   16   17 ar  
    39   16   22 1   
    40   17   18 ar  
    41   17   23 1   
    42   18   41 1   
    43   19   42 1   
    44   19   47 1   
    45   20   43 1   
    46   21   44 1   
    47   22   45 1   
    48   23   46 1   
@<TRIPOS>SUBSTRUCTURE
     1 XQC         1 TEMP              0 ****  ****    0 ROOT
