@<TRIPOS>MOLECULE
XQC
   47    48     1     0     0
SMALL
bcc


@<TRIPOS>ATOM
      1 CAA        -0.1450   -0.0480    0.1650 c3        1 XQC     -0.126600
      2 CAB         1.3810   -0.0350    0.1240 c3        1 XQC      0.154200
      3 CAC         1.9370   -0.0210    1.5470 c3        1 XQC     -0.126600
      4 CAD         1.9070   -1.2800   -0.6390 c3        1 XQC     -0.037100
      5 CAE         1.5060   -2.5650   -0.0090 ca        1 XQC     -0.166300
      6 CAF         0.3200   -3.2040   -0.4020 ca        1 XQC     -0.080000
      7 CAG        -0.0410   -4.4310    0.1360 ca        1 XQC     -0.180500
      8 CAH         0.8060   -5.0390    1.0830 ca        1 XQC      0.159100
      9 CAJ         2.0010   -4.4170    1.4770 ca        1 XQC     -0.180500
     10 CAK         2.3430   -3.1860    0.9250 ca        1 XQC     -0.080000
     11 CAM         1.3920    2.4980   -0.1100 c3        1 XQC      0.096800
     12 CAN         1.9950    3.6980   -0.8810 c3        1 XQC      0.191400
     13 CAP         1.5770    4.9630   -0.2030 ca        1 XQC     -0.173300
     14 CAQ         2.2870    5.4450    0.9000 ca        1 XQC     -0.115000
     15 CAR         1.9030    6.6310    1.5240 ca        1 XQC     -0.166000
     16 CAS         0.7950    7.3350    1.0440 ca        1 XQC      0.080100
     17 CAU         0.0700    6.8490   -0.0730 ca        1 XQC      0.125100
     18 CAW         0.4700    5.6620   -0.6960 ca        1 XQC     -0.120000
     19 NAL         1.8750    1.1960   -0.6410 n4        1 XQC     -0.764000
     20 OAI         0.3930   -6.2460    1.5790 oh        1 XQC     -0.477100
     21 OAO         3.4010    3.4890   -0.8930 oh        1 XQC     -0.636800
     22 OAT         0.3330    8.5050    1.5920 oh        1 XQC     -0.499100
     23 OAV        -1.0280    7.4860   -0.5870 oh        1 XQC     -0.481100
     24 H1         -0.4720   -1.0180    0.6220 hc        1 XQC      0.075533
     25 H2         -0.5850    0.0180   -0.8600 hc        1 XQC      0.075533
     26 H3         -0.5440    0.7820    0.7960 hc        1 XQC      0.075533
     27 H4          3.0510    0.0660    1.5520 hc        1 XQC      0.075533
     28 H5          1.6610   -0.9910    2.0360 hc        1 XQC      0.075533
     29 H6          1.4970    0.8090    2.1510 hc        1 XQC      0.075533
     30 H7          3.0300   -1.2320   -0.6850 hc        1 XQC      0.063200
     31 H8          1.5140   -1.2560   -1.6930 hc        1 XQC      0.063200
     32 H9         -0.3330   -2.7330   -1.1550 ha        1 XQC      0.134500
     33 H10        -0.9670   -4.9410   -0.1670 ha        1 XQC      0.160000
     34 H11         2.6640   -4.9010    2.2080 ha        1 XQC      0.160000
     35 H12         3.2870   -2.7050    1.2240 ha        1 XQC      0.134500
     36 H13         0.2700    2.5400   -0.1940 hx        1 XQC      0.112700
     37 H14         1.6900    2.5710    0.9750 hx        1 XQC      0.112700
     38 H15         1.6320    3.6880   -1.9500 h1        1 XQC      0.065700
     39 H16         3.1610    4.8910    1.2770 ha        1 XQC      0.142000
     40 H17         2.4670    7.0120    2.3880 ha        1 XQC      0.155000
     41 H18        -0.0920    5.3060   -1.5720 ha        1 XQC      0.158000
     42 H19         1.5830    1.1060   -1.6180 hn        1 XQC      0.451300
     43 H21         1.0700   -6.5780    2.1900 ho        1 XQC      0.434000
     44 H22         3.8320    4.3490   -0.9930 ho        1 XQC      0.455000
     45 H23         0.9310    8.7680    2.3080 ho        1 XQC      0.446000
     46 H24        -1.1630    8.3130   -0.0930 ho        1 XQC      0.453000
     47 HAL2        2.9040    1.2040   -0.6140 hn        1 XQC      0.451300
@<TRIPOS>BOND
     1    1    2 1   
     2    1   24 1   
     3    1   25 1   
     4    1   26 1   
     5    2    3 1   
     6    2    4 1   
     7    2   19 1   
     8    3   27 1   
     9    3   28 1   
    10    3   29 1   
    11    4    5 1   
    12    4   30 1   
    13    4   31 1   
    14    5    6 ar  
    15    5   10 ar  
    16    6    7 ar  
    17    6   32 1   
    18    7    8 ar  
    19    7   33 1   
    20    8    9 ar  
    21    8   20 1   
    22    9   10 ar  
    23    9   34 1   
    24   10   35 1   
    25   11   12 1   
    26   11   19 1   
    27   11   36 1   
    28   11   37 1   
    29   12   13 1   
    30   12   21 1   
    31   12   38 1   
    32   13   14 ar  
    33   13   18 ar  
    34   14   15 ar  
    35   14   39 1   
    36   15   16 ar  
    37   15   40 1   
    38   16   17 ar  
    39   16   22 1   
    40   17   18 ar  
    41   17   23 1   
    42   18   41 1   
    43   19   42 1   
    44   19   47 1   
    45   20   43 1   
    46   21   44 1   
    47   22   45 1   
    48   23   46 1   
@<TRIPOS>SUBSTRUCTURE
     1 XQC         1 TEMP              0 ****  ****    0 ROOT
