@<TRIPOS>MOLECULE
XQC
   47    48     1     0     0
SMALL
bcc


@<TRIPOS>ATOM
      1 CAA        -0.1170   -0.0820    0.1710 c3        1 XQC     -0.126600
      2 CAB         1.4090   -0.0520    0.1550 c3        1 XQC      0.154200
      3 CAC         1.9430   -0.0450    1.5870 c3        1 XQC     -0.126600
      4 CAD         1.9580   -1.2860   -0.6120 c3        1 XQC     -0.037100
      5 CAE         1.5810   -2.5790    0.0140 ca        1 XQC     -0.166300
      6 CAF         0.4240   -3.2520   -0.3940 ca        1 XQC     -0.080000
      7 CAG         0.0940   -4.4910    0.1480 ca        1 XQC     -0.180500
      8 CAH         0.9390   -5.0680    1.1080 ca        1 XQC      0.159100
      9 CAJ         2.1120   -4.4070    1.5210 ca        1 XQC     -0.180500
     10 CAK         2.4220   -3.1730    0.9680 ca        1 XQC     -0.080000
     11 CAM         1.3810    2.4810   -0.0690 c3        1 XQC      0.096800
     12 CAN         1.9870    3.6950   -0.8160 c3        1 XQC      0.191400
     13 CAP         1.5280    4.9500   -0.1440 ca        1 XQC     -0.173300
     14 CAQ         2.1970    5.4370    0.9830 ca        1 XQC     -0.115000
     15 CAR         1.7740    6.6120    1.6010 ca        1 XQC     -0.166000
     16 CAS         0.6690    7.3000    1.0920 ca        1 XQC      0.080100
     17 CAU        -0.0130    6.8100   -0.0490 ca        1 XQC      0.125100
     18 CAW         0.4250    5.6340   -0.6660 ca        1 XQC     -0.120000
     19 NAL         1.9050    1.1910   -0.5900 n4        1 XQC     -0.764000
     20 OAI         0.6870   -6.2790    1.6940 oh        1 XQC     -0.477100
     21 OAO         3.3960    3.5100   -0.7880 oh        1 XQC     -0.636800
     22 OAT         0.1710    8.4600    1.6330 oh        1 XQC     -0.499100
     23 OAV        -1.1060    7.4320   -0.5920 oh        1 XQC     -0.481100
     24 H1         -0.5420    0.0050   -0.8590 hc        1 XQC      0.075533
     25 H2         -0.5330    0.7300    0.8160 hc        1 XQC      0.075533
     26 H3         -0.4400   -1.0660    0.5980 hc        1 XQC      0.075533
     27 H4          1.6510   -1.0140    2.0700 hc        1 XQC      0.075533
     28 H5          3.0570    0.0320    1.6100 hc        1 XQC      0.075533
     29 H6          1.5000    0.7870    2.1850 hc        1 XQC      0.075533
     30 H7          3.0800   -1.2180   -0.6570 hc        1 XQC      0.063200
     31 H8          1.5660   -1.2630   -1.6660 hc        1 XQC      0.063200
     32 H9         -0.2320   -2.8070   -1.1590 ha        1 XQC      0.134000
     33 H10        -0.8150   -5.0160   -0.1800 ha        1 XQC      0.160000
     34 H11         2.7660   -4.8820    2.2680 ha        1 XQC      0.160000
     35 H12         3.3470   -2.6600    1.2770 ha        1 XQC      0.134000
     36 H13         0.2620    2.5030   -0.1880 hx        1 XQC      0.112700
     37 H14         1.6440    2.5550    1.0250 hx        1 XQC      0.112700
     38 H15         1.6550    3.6850   -1.8950 h1        1 XQC      0.065700
     39 H16         3.0670    4.8940    1.3830 ha        1 XQC      0.142000
     40 H17         2.3060    6.9970    2.4840 ha        1 XQC      0.155000
     41 H18        -0.1050    5.2740   -1.5610 ha        1 XQC      0.158000
     42 H19         1.6450    1.1000   -1.5760 hn        1 XQC      0.451800
     43 H21        -0.1220   -6.6480    1.3060 ho        1 XQC      0.434000
     44 H22         3.8150    4.3780   -0.8680 ho        1 XQC      0.455000
     45 H23         0.7440    8.7280    2.3680 ho        1 XQC      0.446000
     46 H24        -1.2690    8.2530   -0.0990 ho        1 XQC      0.453000
     47 HAL2        2.9320    1.2170   -0.5310 hn        1 XQC      0.451800
@<TRIPOS>BOND
     1    1    2 1   
     2    1   24 1   
     3    1   25 1   
     4    1   26 1   
     5    2    3 1   
     6    2    4 1   
     7    2   19 1   
     8    3   27 1   
     9    3   28 1   
    10    3   29 1   
    11    4    5 1   
    12    4   30 1   
    13    4   31 1   
    14    5    6 ar  
    15    5   10 ar  
    16    6    7 ar  
    17    6   32 1   
    18    7    8 ar  
    19    7   33 1   
    20    8    9 ar  
    21    8   20 1   
    22    9   10 ar  
    23    9   34 1   
    24   10   35 1   
    25   11   12 1   
    26   11   19 1   
    27   11   36 1   
    28   11   37 1   
    29   12   13 1   
    30   12   21 1   
    31   12   38 1   
    32   13   14 ar  
    33   13   18 ar  
    34   14   15 ar  
    35   14   39 1   
    36   15   16 ar  
    37   15   40 1   
    38   16   17 ar  
    39   16   22 1   
    40   17   18 ar  
    41   17   23 1   
    42   18   41 1   
    43   19   42 1   
    44   19   47 1   
    45   20   43 1   
    46   21   44 1   
    47   22   45 1   
    48   23   46 1   
@<TRIPOS>SUBSTRUCTURE
     1 XQC         1 TEMP              0 ****  ****    0 ROOT
