@<TRIPOS>MOLECULE
XQC
   46    47     1     0     0
SMALL
bcc


@<TRIPOS>ATOM
      1 CAA        -1.4270    1.1450   -0.2420 c3        1 XQC     -0.110600
      2 CAB        -1.5010   -0.3840   -0.1300 c3        1 XQC      0.193200
      3 CAC        -1.7330   -0.7380    1.3490 c3        1 XQC     -0.110600
      4 CAD        -2.7200   -0.8880   -0.9540 c3        1 XQC     -0.026100
      5 CAE        -4.0280   -0.3290   -0.5180 ca        1 XQC     -0.111300
      6 CAF        -4.5350    0.8320   -1.1140 ca        1 XQC     -0.092000
      7 CAG        -5.7800    1.3370   -0.7470 ca        1 XQC     -0.185000
      8 CAH        -6.5300    0.6680    0.2290 ca        1 XQC      0.121100
      9 CAJ        -6.0400   -0.5010    0.8350 ca        1 XQC     -0.185000
     10 CAK        -4.7950   -0.9870    0.4530 ca        1 XQC     -0.092000
     11 CAM         0.9600   -0.4680   -0.2400 c3        1 XQC      0.136800
     12 CAN         2.1490   -1.4200   -0.5030 c3        1 XQC      0.176400
     13 CAP         3.4450   -0.7270   -0.1950 ca        1 XQC     -0.111300
     14 CAQ         4.3170   -1.2140    0.7820 ca        1 XQC     -0.121000
     15 CAR         5.5230   -0.5670    1.0470 ca        1 XQC     -0.168000
     16 CAS         5.8640    0.5780    0.3240 ca        1 XQC      0.042100
     17 CAU         4.9960    1.0700   -0.6750 ca        1 XQC      0.113100
     18 CAW         3.7890    0.4120   -0.9330 ca        1 XQC     -0.129000
     19 NAL        -0.2970   -1.0220   -0.6920 n3        1 XQC     -0.819200
     20 OAI        -7.7680    1.1040    0.6460 oh        1 XQC     -0.498100
     21 OAO         1.9790   -2.6270    0.2220 oh        1 XQC     -0.592800
     22 OAT         7.0320    1.2870    0.5210 oh        1 XQC     -0.516100
     23 OAV         5.2780    2.1880   -1.4230 oh        1 XQC     -0.494100
     24 H1         -1.2350    1.4550   -1.2970 hc        1 XQC      0.041033
     25 H2         -2.3980    1.5840    0.0900 hc        1 XQC      0.041033
     26 H3         -0.6150    1.5500    0.4080 hc        1 XQC      0.041033
     27 H4         -2.6640   -0.2390    1.7110 hc        1 XQC      0.041033
     28 H5         -1.8510   -1.8410    1.4760 hc        1 XQC      0.041033
     29 H6         -0.8810   -0.3920    1.9800 hc        1 XQC      0.041033
     30 H7         -2.5480   -0.6260   -2.0330 hc        1 XQC      0.055200
     31 H8         -2.7630   -2.0090   -0.8810 hc        1 XQC      0.055200
     32 H9         -3.9420    1.3530   -1.8820 ha        1 XQC      0.135500
     33 H10        -6.1710    2.2490   -1.2190 ha        1 XQC      0.141500
     34 H11        -6.6450   -1.0130    1.5960 ha        1 XQC      0.141500
     35 H12        -4.4040   -1.9040    0.9220 ha        1 XQC      0.135500
     36 H13         0.9590   -0.2140    0.8610 h1        1 XQC      0.040200
     37 H14         1.1320    0.4900   -0.8070 h1        1 XQC      0.040200
     38 H15         2.1570   -1.7570   -1.5820 h1        1 XQC      0.100700
     39 H16         4.0660   -2.1290    1.3400 ha        1 XQC      0.142000
     40 H17         6.2050   -0.9570    1.8160 ha        1 XQC      0.137000
     41 H18         3.1280    0.7990   -1.7220 ha        1 XQC      0.157000
     42 H19        -0.3280   -2.0090   -0.5070 hn        1 XQC      0.367800
     43 H21        -7.9850    1.9030    0.1450 ho        1 XQC      0.418000
     44 H22         1.9040   -2.3970    1.1560 ho        1 XQC      0.397000
     45 H23         7.5520    0.8200    1.1900 ho        1 XQC      0.430000
     46 H24         6.1490    2.5170   -1.1510 ho        1 XQC      0.438000
@<TRIPOS>BOND
     1    1    2 1   
     2    1   24 1   
     3    1   25 1   
     4    1   26 1   
     5    2    3 1   
     6    2    4 1   
     7    2   19 1   
     8    3   27 1   
     9    3   28 1   
    10    3   29 1   
    11    4    5 1   
    12    4   30 1   
    13    4   31 1   
    14    5    6 ar  
    15    5   10 ar  
    16    6    7 ar  
    17    6   32 1   
    18    7    8 ar  
    19    7   33 1   
    20    8    9 ar  
    21    8   20 1   
    22    9   10 ar  
    23    9   34 1   
    24   10   35 1   
    25   11   12 1   
    26   11   19 1   
    27   11   36 1   
    28   11   37 1   
    29   12   13 1   
    30   12   21 1   
    31   12   38 1   
    32   13   14 ar  
    33   13   18 ar  
    34   14   15 ar  
    35   14   39 1   
    36   15   16 ar  
    37   15   40 1   
    38   16   17 ar  
    39   16   22 1   
    40   17   18 ar  
    41   17   23 1   
    42   18   41 1   
    43   19   42 1   
    44   20   43 1   
    45   21   44 1   
    46   22   45 1   
    47   23   46 1   
@<TRIPOS>SUBSTRUCTURE
     1 XQC         1 TEMP              0 ****  ****    0 ROOT
