@<TRIPOS>MOLECULE
XQG
   17    18     1     0     0
SMALL
bcc


@<TRIPOS>ATOM
      1 C6          0.7350    0.1550   -0.0000 ca        1 XQG      0.564600
      2 C5         -0.5760   -0.3930   -0.0000 ca        1 XQG     -0.163200
      3 C4         -1.6900    0.5630    0.0010 ca        1 XQG      0.431800
      4 C2         -0.2220    2.2840    0.0000 ca        1 XQG      0.662900
      5 C8         -2.4150   -1.5630    0.0000 cc        1 XQG      0.411700
      6 C11         3.4770    0.0630   -0.0010 c3        1 XQG     -0.082000
      7 N1          0.8950    1.4980   -0.0000 nb        1 XQG     -0.745000
      8 N3         -1.5240    1.9190    0.0010 nb        1 XQG     -0.701000
      9 N9         -2.8490   -0.2200    0.0010 na        1 XQG     -0.378000
     10 N7         -1.0790   -1.7010   -0.0000 nd        1 XQG     -0.527100
     11 S1          2.0340   -0.9220   -0.0010 ss        1 XQG     -0.157400
     12 H9         -3.7770    0.1120    0.0010 hn        1 XQG      0.319700
     13 H2         -0.0310    3.3780    0.0010 h5        1 XQG      0.055100
     14 H8         -3.1340   -2.3920    0.0000 h5        1 XQG      0.075800
     15 H111        3.5520    0.7130   -0.9020 h1        1 XQG      0.077367
     16 H112        3.5520    0.7130    0.9000 h1        1 XQG      0.077367
     17 H113        4.3260   -0.6610   -0.0020 h1        1 XQG      0.077367
@<TRIPOS>BOND
     1    1    2 ar  
     2    1    7 ar  
     3    1   11 1   
     4    2    3 ar  
     5    2   10 1   
     6    3    8 ar  
     7    3    9 1   
     8    4    7 ar  
     9    4    8 ar  
    10    4   13 1   
    11    5    9 1   
    12    5   10 2   
    13    5   14 1   
    14    6   11 1   
    15    6   15 1   
    16    6   16 1   
    17    6   17 1   
    18    9   12 1   
@<TRIPOS>SUBSTRUCTURE
     1 XQG         1 TEMP              0 ****  ****    0 ROOT
