@<TRIPOS>MOLECULE
XQI
   23    23     1     0     0
SMALL
bcc


@<TRIPOS>ATOM
      1 CG         -0.5580   -0.1040    0.1850 ca        1 XQI     -0.021300
      2 CD1         0.7640   -0.1510   -0.2680 ca        1 XQI     -0.181500
      3 CD2        -0.8430    0.1270    1.5320 ca        1 XQI     -0.181500
      4 CE1         1.8080    0.0390    0.6490 ca        1 XQI      0.163600
      5 CE2         0.2180    0.3160    2.4320 ca        1 XQI      0.163600
      6 CZ          1.5520    0.2760    2.0070 ca        1 XQI     -0.296000
      7 OH1         3.0840   -0.0190    0.1420 oh        1 XQI     -0.492600
      8 OH2        -0.1290    0.5440    3.7420 oh        1 XQI     -0.492600
      9 C          -1.6230   -1.5950   -1.4870 c         1 XQI      0.634100
     10 O          -2.2110   -2.6370   -1.2000 o         1 XQI     -0.531000
     11 C9         -1.6760   -0.2680   -0.7870 c3        1 XQI     -0.084100
     12 OXT        -0.8300   -1.5830   -2.6030 os        1 XQI     -0.441900
     13 CH3        -0.7250   -2.8090   -3.3290 c3        1 XQI      0.124700
     14 HD1         0.9880   -0.3410   -1.3280 ha        1 XQI      0.161500
     15 HD2        -1.8770    0.1590    1.9030 ha        1 XQI      0.161500
     16 H91C       -2.6690   -0.1990   -0.2670 hc        1 XQI      0.088700
     17 H92C       -1.6190    0.5510   -1.5570 hc        1 XQI      0.088700
     18 HZ          2.3750    0.4230    2.7180 ha        1 XQI      0.137000
     19 HH1         3.7050    0.1190    0.8730 ho        1 XQI      0.420500
     20 HH2         0.6850    0.6400    4.2570 ho        1 XQI      0.420500
     21 HH31       -0.0360   -2.5590   -4.1720 h1        1 XQI      0.051700
     22 HH32       -0.2990   -3.6050   -2.6730 h1        1 XQI      0.051700
     23 HH33       -1.7320   -3.1180   -3.7000 h1        1 XQI      0.051700
@<TRIPOS>BOND
     1    1    2 ar  
     2    1    3 ar  
     3    1   11 1   
     4    2    4 ar  
     5    2   14 1   
     6    3    5 ar  
     7    3   15 1   
     8    4    6 ar  
     9    4    7 1   
    10    5    6 ar  
    11    5    8 1   
    12    6   18 1   
    13    7   19 1   
    14    8   20 1   
    15    9   10 2   
    16    9   11 1   
    17    9   12 1   
    18   11   16 1   
    19   11   17 1   
    20   12   13 1   
    21   13   21 1   
    22   13   22 1   
    23   13   23 1   
@<TRIPOS>SUBSTRUCTURE
     1 XQI         1 TEMP              0 ****  ****    0 ROOT
