@<TRIPOS>MOLECULE
XQI
   23    23     1     0     0
SMALL
bcc


@<TRIPOS>ATOM
      1 CG          0.0950   -0.0940   -0.6930 ca        1 XQI     -0.019300
      2 CD1         0.8400   -1.2580   -0.8880 ca        1 XQI     -0.211500
      3 CD2         0.6420    0.9910   -0.0020 ca        1 XQI     -0.211500
      4 CE1         2.1500   -1.3230   -0.3840 ca        1 XQI      0.161600
      5 CE2         1.9490    0.9010    0.4960 ca        1 XQI      0.161600
      6 CZ          2.7230   -0.2540    0.3110 ca        1 XQI     -0.241000
      7 OH1         2.8300   -2.4960   -0.6150 oh        1 XQI     -0.495600
      8 OH2         2.5460    1.9300    1.1860 oh        1 XQI     -0.495600
      9 C          -2.2760    0.5250   -0.2780 c         1 XQI      0.637100
     10 O          -2.3320    1.6350    0.2550 o         1 XQI     -0.545000
     11 C9         -1.2780   -0.0030   -1.2650 c3        1 XQI     -0.085100
     12 OXT        -3.2610   -0.3790    0.0120 os        1 XQI     -0.435900
     13 CH3        -4.2670    0.0360    0.9370 c3        1 XQI      0.124700
     14 HD1         0.4250   -2.1230   -1.4250 ha        1 XQI      0.157500
     15 HD2         0.0410    1.9000    0.1590 ha        1 XQI      0.157500
     16 H91C       -1.2680    0.7060   -2.1390 hc        1 XQI      0.089700
     17 H92C       -1.6190   -1.0090   -1.6330 hc        1 XQI      0.089700
     18 HZ          3.7460   -0.3010    0.7080 ha        1 XQI      0.154000
     19 HH1         3.7090   -2.4170   -0.2150 ho        1 XQI      0.425000
     20 HH2         1.9030    2.6510    1.2640 ho        1 XQI      0.425000
     21 HH31       -3.8000    0.2830    1.9200 h1        1 XQI      0.052367
     22 HH32       -4.8080    0.9260    0.5350 h1        1 XQI      0.052367
     23 HH33       -4.9390   -0.8540    1.0130 h1        1 XQI      0.052367
@<TRIPOS>BOND
     1    1    2 ar  
     2    1    3 ar  
     3    1   11 1   
     4    2    4 ar  
     5    2   14 1   
     6    3    5 ar  
     7    3   15 1   
     8    4    6 ar  
     9    4    7 1   
    10    5    6 ar  
    11    5    8 1   
    12    6   18 1   
    13    7   19 1   
    14    8   20 1   
    15    9   10 2   
    16    9   11 1   
    17    9   12 1   
    18   11   16 1   
    19   11   17 1   
    20   12   13 1   
    21   13   21 1   
    22   13   22 1   
    23   13   23 1   
@<TRIPOS>SUBSTRUCTURE
     1 XQI         1 TEMP              0 ****  ****    0 ROOT
