@<TRIPOS>MOLECULE
XQI
   23    23     1     0     0
SMALL
bcc


@<TRIPOS>ATOM
      1 CG         -0.0040    0.0600   -0.1610 ca        1 XQI     -0.023300
      2 CD1         1.3410    0.4380   -0.1780 ca        1 XQI     -0.182500
      3 CD2        -0.6370   -0.2720    1.0390 ca        1 XQI     -0.182500
      4 CE1         2.0520    0.4860    1.0310 ca        1 XQI      0.163600
      5 CE2         0.0950   -0.2180    2.2360 ca        1 XQI      0.163600
      6 CZ          1.4440    0.1620    2.2500 ca        1 XQI     -0.296000
      7 OH1         3.3700    0.8690    0.9460 oh        1 XQI     -0.491600
      8 OH2        -0.5850   -0.5530    3.3820 oh        1 XQI     -0.491600
      9 C          -1.5260   -1.2300   -1.6410 c         1 XQI      0.635100
     10 O          -2.5070   -1.6590   -1.0310 o         1 XQI     -0.537000
     11 C9         -0.7730    0.0520   -1.4380 c3        1 XQI     -0.084100
     12 OXT        -1.0360   -1.9720   -2.6800 os        1 XQI     -0.437900
     13 CH3        -1.6920   -3.2100   -2.9530 c3        1 XQI      0.124700
     14 HD1         1.8520    0.6960   -1.1160 ha        1 XQI      0.164500
     15 HD2        -1.6930   -0.5860    1.0540 ha        1 XQI      0.164500
     16 H91C       -1.5310    0.8840   -1.4180 hc        1 XQI      0.089200
     17 H92C       -0.0880    0.2200   -2.3120 hc        1 XQI      0.089200
     18 HZ          2.0080    0.2020    3.1900 ha        1 XQI      0.137000
     19 HH1         3.7450    0.8540    1.8390 ho        1 XQI      0.420500
     20 HH2         0.0300   -0.4840    4.1270 ho        1 XQI      0.420500
     21 HH31       -1.1200   -3.6280   -3.8180 h1        1 XQI      0.051700
     22 HH32       -1.6320   -3.8780   -2.0610 h1        1 XQI      0.051700
     23 HH33       -2.7600   -3.0240   -3.2190 h1        1 XQI      0.051700
@<TRIPOS>BOND
     1    1    2 ar  
     2    1    3 ar  
     3    1   11 1   
     4    2    4 ar  
     5    2   14 1   
     6    3    5 ar  
     7    3   15 1   
     8    4    6 ar  
     9    4    7 1   
    10    5    6 ar  
    11    5    8 1   
    12    6   18 1   
    13    7   19 1   
    14    8   20 1   
    15    9   10 2   
    16    9   11 1   
    17    9   12 1   
    18   11   16 1   
    19   11   17 1   
    20   12   13 1   
    21   13   21 1   
    22   13   22 1   
    23   13   23 1   
@<TRIPOS>SUBSTRUCTURE
     1 XQI         1 TEMP              0 ****  ****    0 ROOT
