@<TRIPOS>MOLECULE
XQK
   24    25     1     0     0
SMALL
bcc


@<TRIPOS>ATOM
      1 C1          0.1750    0.3660   -0.1340 cc        1 XQK      0.300200
      2 C4          1.9660    0.2530    1.2080 cd        1 XQK      0.312200
      3 C5          1.6330    0.3280   -0.1340 cc        1 XQK     -0.333600
      4 C6          3.1990    0.1930    1.9330 cd        1 XQK     -0.088800
      5 C9          4.9940    0.3860    3.3220 cc        1 XQK      0.373600
      6 C10         3.6550    0.9000    3.0710 cc        1 XQK     -0.260900
      7 C11         2.9830    1.9270    3.8390 c         1 XQK      0.681700
      8 C13         1.1950    3.4930    3.9290 c3        1 XQK      0.129700
      9 C15         5.9010    0.8120    4.4040 c3        1 XQK     -0.144400
     10 O14         3.2640    2.3480    4.9660 o         1 XQK     -0.545000
     11 O12         1.9120    2.4960    3.1990 os        1 XQK     -0.430900
     12 N8          5.2960   -0.5580    2.3820 nd        1 XQK     -0.505800
     13 N7          4.2450   -0.6640    1.5740 na        1 XQK      0.005400
     14 NAF        -0.2660    0.3100    1.1330 nd        1 XQK     -0.341300
     15 O3          0.7580    0.2400    1.9540 os        1 XQK     -0.081100
     16 H1         -0.4840    0.4310   -1.0010 h4        1 XQK      0.057100
     17 H5          2.2810    0.3720   -1.0020 ha        1 XQK      0.179000
     18 H7          4.2430   -1.3230    0.8280 hn        1 XQK      0.332700
     19 H151        6.7070    1.4690    3.9900 hc        1 XQK      0.068033
     20 H152        5.3270    1.3870    5.1750 hc        1 XQK      0.068033
     21 H153        6.3820   -0.0710    4.8940 hc        1 XQK      0.068033
     22 H131        0.3700    3.7840    3.2320 h1        1 XQK      0.052033
     23 H132        1.8670    4.3560    4.1540 h1        1 XQK      0.052033
     24 H133        0.7960    3.0600    4.8780 h1        1 XQK      0.052033
@<TRIPOS>BOND
     1    1    3 1   
     2    1   14 2   
     3    1   16 1   
     4    2    3 2   
     5    2    4 1   
     6    2   15 1   
     7    3   17 1   
     8    4    6 2   
     9    4   13 1   
    10    5    6 1   
    11    5    9 1   
    12    5   12 2   
    13    6    7 1   
    14    7   10 2   
    15    7   11 1   
    16    8   11 1   
    17    8   22 1   
    18    8   23 1   
    19    8   24 1   
    20    9   19 1   
    21    9   20 1   
    22    9   21 1   
    23   12   13 1   
    24   13   18 1   
    25   14   15 1   
@<TRIPOS>SUBSTRUCTURE
     1 XQK         1 TEMP              0 ****  ****    0 ROOT
