@<TRIPOS>MOLECULE
XQK
   24    25     1     0     0
SMALL
bcc


@<TRIPOS>ATOM
      1 C1          3.5260   -0.2600   -0.7270 cc        1 XQK      0.300200
      2 C4          1.4470    0.4170   -0.2390 cd        1 XQK      0.312200
      3 C5          2.5050    0.7210   -1.0770 cc        1 XQK     -0.333600
      4 C6          0.1350    0.9560   -0.0440 cd        1 XQK     -0.088800
      5 C9         -2.0740    1.4260    0.2540 cc        1 XQK      0.373600
      6 C10        -1.1300    0.3330    0.0680 cc        1 XQK     -0.261900
      7 C11        -1.4650   -1.0740    0.0030 c         1 XQK      0.681700
      8 C13        -0.7510   -3.2620   -0.5990 c3        1 XQK      0.129700
      9 C15        -3.5340    1.2980    0.4150 c3        1 XQK     -0.144400
     10 O14        -2.5100   -1.6300    0.3570 o         1 XQK     -0.545000
     11 O12        -0.4810   -1.8600   -0.5420 os        1 XQK     -0.430900
     12 N8         -1.3950    2.6120    0.2440 nd        1 XQK     -0.505800
     13 N7         -0.1070    2.3300    0.0680 na        1 XQK      0.005400
     14 NAF         3.0560   -1.0530    0.2500 nd        1 XQK     -0.341300
     15 O3          1.8350   -0.6850    0.5680 os        1 XQK     -0.081100
     16 H1          4.5190   -0.3670   -1.1660 h4        1 XQK      0.057100
     17 H5          2.5810    1.4870   -1.8400 ha        1 XQK      0.179000
     18 H7          0.5730    3.0560    0.0580 hn        1 XQK      0.332700
     19 H151       -3.9050    1.9530    1.2420 hc        1 XQK      0.068033
     20 H152       -4.0510    1.5980   -0.5310 hc        1 XQK      0.068033
     21 H153       -3.7980    0.2340    0.6490 hc        1 XQK      0.068033
     22 H131        0.1820   -3.6880   -1.0440 h1        1 XQK      0.052033
     23 H132       -0.9330   -3.6590    0.4290 h1        1 XQK      0.052033
     24 H133       -1.6400   -3.4520   -1.2470 h1        1 XQK      0.052033
@<TRIPOS>BOND
     1    1    3 1   
     2    1   14 2   
     3    1   16 1   
     4    2    3 2   
     5    2    4 1   
     6    2   15 1   
     7    3   17 1   
     8    4    6 2   
     9    4   13 1   
    10    5    6 1   
    11    5    9 1   
    12    5   12 2   
    13    6    7 1   
    14    7   10 2   
    15    7   11 1   
    16    8   11 1   
    17    8   22 1   
    18    8   23 1   
    19    8   24 1   
    20    9   19 1   
    21    9   20 1   
    22    9   21 1   
    23   12   13 1   
    24   13   18 1   
    25   14   15 1   
@<TRIPOS>SUBSTRUCTURE
     1 XQK         1 TEMP              0 ****  ****    0 ROOT
