@<TRIPOS>MOLECULE
XQK
   24    25     1     0     0
SMALL
bcc


@<TRIPOS>ATOM
      1 C1          0.0820    0.3910   -0.0450 cc        1 XQK      0.300200
      2 C4          1.8960    0.2440    1.2610 cd        1 XQK      0.312200
      3 C5          1.5360    0.2860   -0.0740 cc        1 XQK     -0.333600
      4 C6          3.1420    0.1540    1.9620 cd        1 XQK     -0.088800
      5 C9          4.9750    0.3150    3.3040 cc        1 XQK      0.373600
      6 C10         3.6560    0.8810    3.0610 cc        1 XQK     -0.261900
      7 C11         3.0510    1.9680    3.8010 c         1 XQK      0.681700
      8 C13         1.3390    3.6180    3.8680 c3        1 XQK      0.129700
      9 C15         5.9260    0.7380    4.3480 c3        1 XQK     -0.144400
     10 O14         3.3790    2.4190    4.9040 o         1 XQK     -0.545000
     11 O12         1.9920    2.5610    3.1630 os        1 XQK     -0.430900
     12 N8          5.2110   -0.6790    2.3950 nd        1 XQK     -0.505800
     13 N7          4.1380   -0.7660    1.6150 na        1 XQK      0.005400
     14 NAF        -0.3320    0.4010    1.2330 nd        1 XQK     -0.341300
     15 O3          0.7070    0.3130    2.0330 os        1 XQK     -0.081100
     16 H1         -0.5940    0.4550   -0.8990 h4        1 XQK      0.057100
     17 H5          2.1650    0.2690   -0.9580 ha        1 XQK      0.179000
     18 H7          4.0880   -1.4520    0.8960 hn        1 XQK      0.332700
     19 H151        6.7540    1.3380    3.8910 hc        1 XQK      0.068033
     20 H152        5.3980    1.3710    5.1070 hc        1 XQK      0.068033
     21 H153        6.3760   -0.1470    4.8630 hc        1 XQK      0.068033
     22 H131        0.5120    3.9190    3.1790 h1        1 XQK      0.052033
     23 H132        2.0550    4.4570    4.0420 h1        1 XQK      0.052033
     24 H133        0.9440    3.2420    4.8420 h1        1 XQK      0.052033
@<TRIPOS>BOND
     1    1    3 1   
     2    1   14 2   
     3    1   16 1   
     4    2    3 2   
     5    2    4 1   
     6    2   15 1   
     7    3   17 1   
     8    4    6 2   
     9    4   13 1   
    10    5    6 1   
    11    5    9 1   
    12    5   12 2   
    13    6    7 1   
    14    7   10 2   
    15    7   11 1   
    16    8   11 1   
    17    8   22 1   
    18    8   23 1   
    19    8   24 1   
    20    9   19 1   
    21    9   20 1   
    22    9   21 1   
    23   12   13 1   
    24   13   18 1   
    25   14   15 1   
@<TRIPOS>SUBSTRUCTURE
     1 XQK         1 TEMP              0 ****  ****    0 ROOT
