@<TRIPOS>MOLECULE
XQO
   46    46     1     0     0
SMALL
bcc


@<TRIPOS>ATOM
      1 O13         2.5350    0.2290    1.0810 o         1 XQO     -0.412100
      2 C12         1.8940   -0.0870    0.0910 c         1 XQO      0.547100
      3 N14         0.4860   -0.5880    0.3430 ny        1 XQO     -0.673800
      4 C15        -0.0090   -0.2890    1.7030 c3        1 XQO      0.080100
      5 C11         2.3730   -0.0350   -1.3280 c3        1 XQO     -0.158400
      6 C3          1.3440   -0.2870   -2.4130 c3        1 XQO      0.106500
      7 C4          1.9840   -0.0220   -3.8150 c3        1 XQO      0.104100
      8 O21         2.0230    1.3520   -4.0900 oh        1 XQO     -0.582800
      9 C5          1.0870   -0.8370   -4.7760 c3        1 XQO      0.089100
     10 O20         0.2560    0.0360   -5.5140 oh        1 XQO     -0.597800
     11 C6          0.1520   -1.6840   -3.8550 c3        1 XQO      0.166500
     12 C18        -0.0520   -3.0810   -4.4450 c3        1 XQO      0.127400
     13 O19         1.2100   -3.6470   -4.7550 oh        1 XQO     -0.618800
     14 N2          0.6290   -1.5740   -2.4590 n3        1 XQO     -0.747600
     15 C1          1.3360   -2.7370   -1.9350 c3        1 XQO      0.125800
     16 C7          0.4040   -3.7120   -1.1990 c3        1 XQO     -0.096400
     17 C8          1.1290   -4.3770   -0.0480 c3        1 XQO     -0.084400
     18 C9          0.2470   -5.3990    0.6380 c3        1 XQO     -0.081400
     19 C10         0.9540   -6.0420    1.8030 c3        1 XQO     -0.098100
     20 H14         0.4830   -1.6110    0.1900 hn        1 XQO      0.476300
     21 H111        2.7810    1.0090   -1.4980 hc        1 XQO      0.137700
     22 H112        3.2520   -0.7360   -1.4120 hc        1 XQO      0.137700
     23 H151       -1.0440   -0.7100    1.8180 hx        1 XQO      0.111033
     24 H152       -0.0280    0.8230    1.8600 hx        1 XQO      0.111033
     25 H153        0.6770   -0.7500    2.4650 hx        1 XQO      0.111033
     26 H3          0.5250    0.4920   -2.2990 h1        1 XQO      0.063700
     27 H4          3.0520   -0.3660   -3.8500 h1        1 XQO      0.097700
     28 H21         1.1440    1.6330   -4.3880 ho        1 XQO      0.429000
     29 H5          1.7010   -1.4940   -5.4450 h1        1 XQO      0.096700
     30 H20         0.7250    0.2610   -6.3290 ho        1 XQO      0.430000
     31 H6         -0.8690   -1.1910   -3.8520 h1        1 XQO      0.093700
     32 H181       -0.6640   -2.9660   -5.3820 h1        1 XQO      0.050700
     33 H182       -0.6010   -3.7450   -3.7250 h1        1 XQO      0.050700
     34 H19         1.0440   -4.4340   -5.2890 ho        1 XQO      0.425000
     35 H11C        2.1320   -2.4100   -1.2060 h1        1 XQO      0.056200
     36 H12C        1.8800   -3.3100   -2.7420 h1        1 XQO      0.056200
     37 H71C       -0.5210   -3.2020   -0.8200 hc        1 XQO      0.051700
     38 H72C        0.0580   -4.5000   -1.9190 hc        1 XQO      0.051700
     39 H81C        2.0580   -4.8800   -0.4280 hc        1 XQO      0.035700
     40 H82C        1.4560   -3.6060    0.6990 hc        1 XQO      0.035700
     41 H91C       -0.0530   -6.1880   -0.1020 hc        1 XQO      0.045200
     42 H92C       -0.6960   -4.9060    0.9930 hc        1 XQO      0.045200
     43 H101        0.2870   -6.7950    2.2900 hc        1 XQO      0.043033
     44 H102        1.8820   -6.5620    1.4640 hc        1 XQO      0.043033
     45 H103        1.2390   -5.2790    2.5670 hc        1 XQO      0.043033
     46 H142       -0.1440   -0.1710   -0.3550 hn        1 XQO      0.476300
@<TRIPOS>BOND
     1    1    2 2   
     2    2    3 1   
     3    2    5 1   
     4    3    4 1   
     5    3   20 1   
     6    3   46 1   
     7    4   23 1   
     8    4   24 1   
     9    4   25 1   
    10    5    6 1   
    11    5   21 1   
    12    5   22 1   
    13    6    7 1   
    14    6   14 1   
    15    6   26 1   
    16    7    8 1   
    17    7    9 1   
    18    7   27 1   
    19    8   28 1   
    20    9   10 1   
    21    9   11 1   
    22    9   29 1   
    23   10   30 1   
    24   11   12 1   
    25   11   14 1   
    26   11   31 1   
    27   12   13 1   
    28   12   32 1   
    29   12   33 1   
    30   13   34 1   
    31   14   15 1   
    32   15   16 1   
    33   15   35 1   
    34   15   36 1   
    35   16   17 1   
    36   16   37 1   
    37   16   38 1   
    38   17   18 1   
    39   17   39 1   
    40   17   40 1   
    41   18   19 1   
    42   18   41 1   
    43   18   42 1   
    44   19   43 1   
    45   19   44 1   
    46   19   45 1   
@<TRIPOS>SUBSTRUCTURE
     1 XQO         1 TEMP              0 ****  ****    0 ROOT
