@<TRIPOS>MOLECULE
XQO
   46    46     1     0     0
SMALL
bcc


@<TRIPOS>ATOM
      1 O13         2.4910    0.2600    1.0810 o         1 XQO     -0.412100
      2 C12         1.8530   -0.0680    0.0920 c         1 XQO      0.547100
      3 N14         0.4580   -0.6040    0.3490 n4        1 XQO     -0.673800
      4 C15        -0.0380   -0.3210    1.7130 c3        1 XQO      0.080100
      5 C11         2.3240   -0.0000   -1.3280 c3        1 XQO     -0.158400
      6 C3          1.2970   -0.2740   -2.4090 c3        1 XQO      0.106500
      7 C4          1.9230    0.0110   -3.8140 c3        1 XQO      0.104100
      8 O21         1.9290    1.3860   -4.0830 oh        1 XQO     -0.582800
      9 C5          1.0420   -0.8230   -4.7720 c3        1 XQO      0.089100
     10 O20         0.1870    0.0330   -5.5040 oh        1 XQO     -0.597800
     11 C6          0.1320   -1.6940   -3.8500 c3        1 XQO      0.166500
     12 C18        -0.0420   -3.0940   -4.4440 c3        1 XQO      0.127400
     13 O19         1.2320   -3.6280   -4.7610 oh        1 XQO     -0.618800
     14 N2          0.6120   -1.5770   -2.4560 n3        1 XQO     -0.747600
     15 C1          1.3490   -2.7250   -1.9380 c3        1 XQO      0.125800
     16 C7          0.4440   -3.7230   -1.2020 c3        1 XQO     -0.096400
     17 C8          1.1900   -4.3750   -0.0570 c3        1 XQO     -0.084400
     18 C9          0.3360   -5.4200    0.6310 c3        1 XQO     -0.081400
     19 C10         1.0630   -6.0500    1.7900 c3        1 XQO     -0.098100
     20 H14        -0.1850   -0.1990   -0.3440 hn        1 XQO      0.476300
     21 H111        2.7060    1.0540   -1.4960 hc        1 XQO      0.137700
     22 H112        3.2200   -0.6800   -1.4180 hc        1 XQO      0.137700
     23 H151        0.6630   -0.7670    2.4700 hx        1 XQO      0.111033
     24 H152       -0.0820    0.7900    1.8740 hx        1 XQO      0.111033
     25 H153       -1.0620   -0.7660    1.8310 hx        1 XQO      0.111033
     26 H3          0.4590    0.4850   -2.2890 h1        1 XQO      0.063700
     27 H4          2.9990   -0.3070   -3.8540 h1        1 XQO      0.097700
     28 H21         1.0410    1.6470   -4.3770 ho        1 XQO      0.429000
     29 H5          1.6690   -1.4620   -5.4470 h1        1 XQO      0.096700
     30 H20         0.6460    0.2710   -6.3200 ho        1 XQO      0.430000
     31 H6         -0.9010   -1.2260   -3.8410 h1        1 XQO      0.093700
     32 H181       -0.5720   -3.7730   -3.7230 h1        1 XQO      0.050700
     33 H182       -0.6610   -2.9900   -5.3770 h1        1 XQO      0.050700
     34 H19         1.0830   -4.4170   -5.2970 ho        1 XQO      0.425000
     35 H11C        1.9030   -3.2820   -2.7500 h1        1 XQO      0.056200
     36 H12C        2.1410   -2.3810   -1.2120 h1        1 XQO      0.056200
     37 H71C       -0.4910   -3.2370   -0.8170 hc        1 XQO      0.051700
     38 H72C        0.1130   -4.5180   -1.9230 hc        1 XQO      0.051700
     39 H81C        2.1290   -4.8550   -0.4420 hc        1 XQO      0.035700
     40 H82C        1.5020   -3.5980    0.6920 hc        1 XQO      0.035700
     41 H91C       -0.6170   -4.9500    0.9920 hc        1 XQO      0.045200
     42 H92C        0.0510   -6.2130   -0.1100 hc        1 XQO      0.045200
     43 H101        2.0020   -6.5470    1.4450 hc        1 XQO      0.043033
     44 H102        1.3340   -5.2820    2.5550 hc        1 XQO      0.043033
     45 H103        0.4170   -6.8200    2.2780 hc        1 XQO      0.043033
     46 H142        0.4790   -1.6260    0.1940 hn        1 XQO      0.476300
@<TRIPOS>BOND
     1    1    2 2   
     2    2    3 1   
     3    2    5 1   
     4    3    4 1   
     5    3   20 1   
     6    3   46 1   
     7    4   23 1   
     8    4   24 1   
     9    4   25 1   
    10    5    6 1   
    11    5   21 1   
    12    5   22 1   
    13    6    7 1   
    14    6   14 1   
    15    6   26 1   
    16    7    8 1   
    17    7    9 1   
    18    7   27 1   
    19    8   28 1   
    20    9   10 1   
    21    9   11 1   
    22    9   29 1   
    23   10   30 1   
    24   11   12 1   
    25   11   14 1   
    26   11   31 1   
    27   12   13 1   
    28   12   32 1   
    29   12   33 1   
    30   13   34 1   
    31   14   15 1   
    32   15   16 1   
    33   15   35 1   
    34   15   36 1   
    35   16   17 1   
    36   16   37 1   
    37   16   38 1   
    38   17   18 1   
    39   17   39 1   
    40   17   40 1   
    41   18   19 1   
    42   18   41 1   
    43   18   42 1   
    44   19   43 1   
    45   19   44 1   
    46   19   45 1   
@<TRIPOS>SUBSTRUCTURE
     1 XQO         1 TEMP              0 ****  ****    0 ROOT
