@<TRIPOS>MOLECULE
XR1
   68    71     1     0     0
SMALL
bcc


@<TRIPOS>ATOM
      1 C26        -0.4910   -1.1170   -0.2640 c3        1 XR1     -0.281000
      2 C25         2.3690   -0.3390    0.4190 c1        1 XR1     -0.007000
      3 N21         2.3590   -0.2570    1.7570 n         1 XR1     -0.186000
      4 C22         2.3010   -1.4350    2.6090 c2        1 XR1      0.294000
      5 O27         1.9300   -2.4850    2.0710 o         1 XR1     -0.257000
      6 C33         3.8290   -3.5650    4.2380 c3        1 XR1      0.063000
      7 C32         3.8990   -4.8170    5.0070 c2        1 XR1     -0.119000
      8 C31         3.1450   -4.9420    6.2930 c2        1 XR1     -0.068000
      9 C37         3.4340   -6.2450    6.8720 c2        1 XR1     -0.638000
     10 C36         3.6690   -8.5310    4.3430 c1        1 XR1      0.068000
     11 N35         3.5070   -9.0030    3.2840 n2        1 XR1     -0.291000
     12 S38         4.3750   -7.0750    5.9290 ss        1 XR1      1.133000
     13 C34         4.5720   -5.9500    4.7530 c1        1 XR1     -0.659000
     14 C30         2.3540   -3.9480    6.7470 c2        1 XR1     -0.047000
     15 C29         2.2040   -2.7460    5.9610 c2        1 XR1     -0.109000
     16 C28         2.8690   -2.5580    4.7960 c2        1 XR1     -0.056000
     17 C23         2.6940   -1.3230    4.0310 c2        1 XR1     -0.086000
     18 C24         2.8890   -0.1060    4.5830 c2        1 XR1     -0.040000
     19 C19         2.7280    1.0970    3.8120 c2        1 XR1     -0.212000
     20 C20         2.8590    2.3460    4.3770 c2        1 XR1      0.063000
     21 N15         2.6750    3.4860    3.6440 na        1 XR1     -0.310000
     22 C18         2.4210    1.0320    2.3750 c2        1 XR1      0.227000
     23 N17         2.2020    2.1230    1.6440 n2        1 XR1     -0.115000
     24 C16         2.3180    3.4020    2.2520 c2        1 XR1      0.201000
     25 N14         2.0840    4.4540    1.4810 n2        1 XR1     -0.233000
     26 C8          2.1970    5.8060    1.9480 c3        1 XR1     -0.038000
     27 C13         3.5840    6.2960    2.2450 c2        1 XR1     -0.029000
     28 C12         3.8310    7.3340    3.0700 c2        1 XR1     -0.255000
     29 C11         2.7500    8.0200    3.7740 c2        1 XR1      0.225000
     30 C10         1.4870    7.2850    3.8370 c2        1 XR1     -0.255000
     31 C9          1.2390    6.2470    3.0140 c2        1 XR1     -0.029000
     32 N3          2.9030    9.2300    4.3190 n3        1 XR1     -0.111000
     33 C2          1.8240    9.8550    5.0840 c3        1 XR1     -0.069000
     34 C4          4.2020    9.9040    4.3070 c3        1 XR1     -0.069000
     35 C5          4.1420   11.4410    4.4110 c3        1 XR1     -0.082500
     36 N6          3.2130   11.8860    5.4340 n3        1 XR1     -0.259000
     37 C7          3.2630   13.3110    5.6760 c3        1 XR1     -0.124000
     38 C1          1.8770   11.3950    5.1500 c3        1 XR1     -0.082500
     39 H1          0.0380   -1.7710    0.4650 hc        1 XR1      0.071250
     40 H2         -1.4550   -0.7770    0.1730 hc        1 XR1      0.071250
     41 H3         -0.6900   -1.6890   -1.1960 hc        1 XR1      0.071250
     42 H4          0.1410   -0.2310   -0.5030 hc        1 XR1      0.071250
     43 H5          2.3270   -1.3770    0.0160 ha        1 XR1      0.079000
     44 H6          3.5730   -3.7920    3.1640 h1        1 XR1      0.157000
     45 H7          2.9910   -6.5310    7.8270 h4        1 XR1      0.175000
     46 H8          3.3890   -9.3690    2.3930 hn        1 XR1      0.300000
     47 H9          1.8090   -4.0140    7.7010 ha        1 XR1      0.140000
     48 H10         1.5030   -1.9860    6.3410 ha        1 XR1      0.130000
     49 H11         3.1830   -0.0040    5.6420 ha        1 XR1      0.156000
     50 H12         3.1150    2.4730    5.4480 h4        1 XR1      0.172000
     51 H13         2.8070    4.3720    4.0740 hn        1 XR1      0.239000
     52 H14         4.4110    5.7950    1.7070 ha        1 XR1      0.185500
     53 H15         4.8700    7.6660    3.2370 ha        1 XR1      0.170500
     54 H16         0.7370    7.5800    4.5900 ha        1 XR1      0.170500
     55 H17         0.2740    5.7070    3.0630 ha        1 XR1      0.185500
     56 H18         1.8710    9.4370    6.1320 h1        1 XR1      0.127750
     57 H19         0.8310    9.5880    4.6210 h1        1 XR1      0.127750
     58 H20         4.7980    9.4960    5.1750 h1        1 XR1      0.127750
     59 H21         4.7380    9.6680    3.3430 h1        1 XR1      0.127750
     60 H22         5.1770   11.7900    4.6890 h1        1 XR1      0.106750
     61 H23         3.8920   11.8630    3.3930 h1        1 XR1      0.106750
     62 H25         2.9590   13.9220    4.7830 h1        1 XR1      0.092667
     63 H26         2.5780   13.5520    6.5310 h1        1 XR1      0.092667
     64 H27         4.3110   13.5880    5.9650 h1        1 XR1      0.092667
     65 H28         1.4620   11.8130    4.1860 h1        1 XR1      0.106750
     66 H29         1.1920   11.7090    5.9890 h1        1 XR1      0.106750
     67 H142        1.8770    6.4000    1.0090 h1        1 XR1      0.197000
     68 CL1         5.4400   -2.7950    4.1610 cl        1 XR1     -0.121000
@<TRIPOS>BOND
     1    1   39 1   
     2    1   40 1   
     3    1   41 1   
     4    1   42 1   
     5    2    3 1   
     6    2   43 1   
     7    3    4 1   
     8    3   22 1   
     9    4    5 1   
    10    4   17 1   
    11    6    7 1   
    12    6   16 1   
    13    6   44 1   
    14    6   68 1   
    15    7    8 1   
    16    7   13 1   
    17    8    9 1   
    18    8   14 1   
    19    9   12 1   
    20    9   45 1   
    21   10   11 1   
    22   11   46 1   
    23   12   13 1   
    24   14   15 1   
    25   14   47 1   
    26   15   16 1   
    27   15   48 1   
    28   16   17 1   
    29   17   18 1   
    30   18   19 1   
    31   18   49 1   
    32   19   20 1   
    33   19   22 1   
    34   20   21 1   
    35   20   50 1   
    36   21   24 1   
    37   21   51 1   
    38   22   23 1   
    39   23   24 1   
    40   24   25 1   
    41   25   26 1   
    42   26   27 1   
    43   26   31 1   
    44   26   67 1   
    45   27   28 1   
    46   27   52 1   
    47   28   29 1   
    48   28   53 1   
    49   29   30 1   
    50   29   32 1   
    51   30   31 1   
    52   30   54 1   
    53   31   55 1   
    54   32   33 1   
    55   32   34 1   
    56   33   38 1   
    57   33   56 1   
    58   33   57 1   
    59   34   35 1   
    60   34   58 1   
    61   34   59 1   
    62   35   36 1   
    63   35   60 1   
    64   35   61 1   
    65   36   37 1   
    66   36   38 1   
    67   37   62 1   
    68   37   63 1   
    69   37   64 1   
    70   38   65 1   
    71   38   66 1   
@<TRIPOS>SUBSTRUCTURE
     1 XR1         1 TEMP              0 ****  ****    0 ROOT
