@<TRIPOS>MOLECULE
XR1
   67    72     1     0     0
SMALL
bcc


@<TRIPOS>ATOM
      1 C26         0.9520    4.8420   -1.1680 c3        1 XR1     -0.111100
      2 C25         1.1750    4.0720    0.1230 c3        1 XR1      0.087000
      3 N21         1.3770    2.6390   -0.0490 n         1 XR1     -0.423300
      4 C22         2.7080    2.1440   -0.0830 c         1 XR1      0.711700
      5 O27         3.6400    2.9660    0.0010 o         1 XR1     -0.619500
      6 C33         4.6970   -0.8410    0.6860 ca        1 XR1      0.032400
      7 C32         6.0150   -1.3040    0.6720 ca        1 XR1     -0.129000
      8 C31         6.9590   -0.7340   -0.1940 ca        1 XR1      0.010000
      9 C37         8.3150   -1.2180   -0.2120 cc        1 XR1     -0.143400
     10 C36         9.2100   -1.1230   -1.2810 cd        1 XR1      0.338200
     11 N35        10.4620   -1.6630   -1.0520 nd        1 XR1     -0.625000
     12 S38         9.0740   -1.9950    1.0870 ss        1 XR1     -0.079300
     13 C34        10.5070   -2.1600    0.1820 cc        1 XR1      0.364300
     14 C30         6.5610    0.3180   -1.0340 ca        1 XR1     -0.115000
     15 C29         5.2490    0.7740   -1.0160 ca        1 XR1     -0.086000
     16 C28         4.2890    0.1980   -0.1690 ca        1 XR1     -0.023800
     17 C23         2.9140    0.6870   -0.2090 cc        1 XR1     -0.158400
     18 C24         1.8500   -0.1410   -0.3820 cd        1 XR1      0.024800
     19 C19         0.5240    0.3770   -0.4140 ca        1 XR1     -0.421400
     20 C20        -0.6200   -0.4410   -0.5940 ca        1 XR1      0.516200
     21 N15        -1.8660    0.0150   -0.6250 nb        1 XR1     -0.747000
     22 C18         0.2900    1.7860   -0.2460 ca        1 XR1      0.626200
     23 N17        -0.9860    2.2940   -0.2620 nb        1 XR1     -0.810000
     24 C16        -2.0170    1.4010   -0.4660 ca        1 XR1      0.917900
     25 N14        -3.2970    1.9620   -0.5770 nh        1 XR1     -0.701300
     26 C8         -4.4760    1.1900   -0.4400 ca        1 XR1      0.089600
     27 C13        -5.4110    1.5060    0.5690 ca        1 XR1     -0.103500
     28 C12        -6.6070    0.8140    0.6720 ca        1 XR1     -0.162000
     29 C11        -6.9230   -0.2380   -0.2210 ca        1 XR1      0.139600
     30 C10        -5.9770   -0.5520   -1.2210 ca        1 XR1     -0.162000
     31 C9         -4.7840    0.1510   -1.3370 ca        1 XR1     -0.103500
     32 N3         -8.1880   -0.8700   -0.1370 nh        1 XR1     -0.635000
     33 C2         -8.5320   -1.7730   -1.2220 c3        1 XR1      0.185300
     34 C4         -8.5340   -1.4060    1.1720 c3        1 XR1      0.185300
     35 C5         -9.9960   -1.8900    1.2420 c3        1 XR1      0.165300
     36 N6        -10.3470   -2.7960    0.1590 n3        1 XR1     -0.732600
     37 C7        -11.7230   -3.2320    0.2240 c3        1 XR1      0.157100
     38 C1         -9.9960   -2.2530   -1.1450 c3        1 XR1      0.165300
     39 H1          1.8320    4.7440   -1.8490 hc        1 XR1      0.046700
     40 H2          0.0410    4.4860   -1.7050 hc        1 XR1      0.046700
     41 H3          0.8180    5.9210   -0.9140 hc        1 XR1      0.046700
     42 H4          2.0930    4.4830    0.6380 h1        1 XR1      0.074700
     43 H5          0.2970    4.2320    0.8110 h1        1 XR1      0.074700
     44 H6          6.3160   -2.1230    1.3460 ha        1 XR1      0.148000
     45 H7          8.9980   -0.6740   -2.2580 h4        1 XR1      0.047100
     46 H8         11.4110   -2.6370    0.5730 h5        1 XR1      0.056100
     47 H9          7.2960    0.7900   -1.7040 ha        1 XR1      0.143000
     48 H10         4.9520    1.6200   -1.6580 ha        1 XR1      0.156000
     49 H11         1.9870   -1.2290   -0.5010 ha        1 XR1      0.151000
     50 H12        -0.5010   -1.5360   -0.7180 h4        1 XR1      0.033100
     51 H13        -3.3810    2.9100   -0.2670 hn        1 XR1      0.445800
     52 H14        -5.2040    2.3170    1.2860 ha        1 XR1      0.142500
     53 H15        -7.3190    1.1080    1.4590 ha        1 XR1      0.138500
     54 H16        -6.1650   -1.3670   -1.9370 ha        1 XR1      0.138500
     55 H17        -4.0800   -0.1230   -2.1380 ha        1 XR1      0.142500
     56 H18        -8.4060   -1.2190   -2.1950 h1        1 XR1      0.044950
     57 H19        -7.8570   -2.6780   -1.2390 h1        1 XR1      0.044950
     58 H20        -7.8550   -2.2640    1.4500 h1        1 XR1      0.044950
     59 H21        -8.4070   -0.5970    1.9430 h1        1 XR1      0.044950
     60 H22       -10.1240   -2.4480    2.2120 h1        1 XR1      0.039700
     61 H23       -10.6750   -0.9880    1.2690 h1        1 XR1      0.039700
     62 H25       -12.4630   -2.3940    0.0970 h1        1 XR1      0.033700
     63 H26       -11.9000   -3.9900   -0.5830 h1        1 XR1      0.033700
     64 H27       -11.9010   -3.7160    1.2200 h1        1 XR1      0.033700
     65 H28       -10.6730   -1.3980   -1.4390 h1        1 XR1      0.039700
     66 H29       -10.1240   -3.0730   -1.9060 h1        1 XR1      0.039700
     67 CL1         3.6180   -1.5650    1.7880 cl        1 XR1     -0.094400
@<TRIPOS>BOND
     1    1    2 1   
     2    1   39 1   
     3    1   40 1   
     4    1   41 1   
     5    2    3 1   
     6    2   42 1   
     7    2   43 1   
     8    3    4 1   
     9    3   22 1   
    10    4    5 2   
    11    4   17 1   
    12    6    7 ar  
    13    6   16 ar  
    14    6   67 1   
    15    7    8 ar  
    16    7   44 1   
    17    8    9 1   
    18    8   14 ar  
    19    9   10 2   
    20    9   12 1   
    21   10   11 1   
    22   10   45 1   
    23   11   13 2   
    24   12   13 1   
    25   13   46 1   
    26   14   15 ar  
    27   14   47 1   
    28   15   16 ar  
    29   15   48 1   
    30   16   17 1   
    31   17   18 2   
    32   18   19 1   
    33   18   49 1   
    34   19   20 ar  
    35   19   22 ar  
    36   20   21 ar  
    37   20   50 1   
    38   21   24 ar  
    39   22   23 ar  
    40   23   24 ar  
    41   24   25 1   
    42   25   26 1   
    43   25   51 1   
    44   26   27 ar  
    45   26   31 ar  
    46   27   28 ar  
    47   27   52 1   
    48   28   29 ar  
    49   28   53 1   
    50   29   30 ar  
    51   29   32 1   
    52   30   31 ar  
    53   30   54 1   
    54   31   55 1   
    55   32   33 1   
    56   32   34 1   
    57   33   38 1   
    58   33   56 1   
    59   33   57 1   
    60   34   35 1   
    61   34   58 1   
    62   34   59 1   
    63   35   36 1   
    64   35   60 1   
    65   35   61 1   
    66   36   37 1   
    67   36   38 1   
    68   37   62 1   
    69   37   63 1   
    70   37   64 1   
    71   38   65 1   
    72   38   66 1   
@<TRIPOS>SUBSTRUCTURE
     1 XR1         1 TEMP              0 ****  ****    0 ROOT
