@<TRIPOS>MOLECULE
XR1
   67    69     1     0     0
SMALL
bcc


@<TRIPOS>ATOM
      1 C26         1.0100   -0.3090   -0.5890 c3        1 XR1     -0.229000
      2 C25         2.3590   -0.4060    0.1050 c3        1 XR1     -0.030000
      3 N21         2.2950   -0.3940    1.5620 n         1 XR1     -0.235000
      4 C22         2.3330   -1.6320    2.2500 c2        1 XR1      0.355000
      5 O27         2.4220   -2.6770    1.5750 o         1 XR1     -0.361000
      6 C33         3.3580   -3.9000    4.0430 c3        1 XR1     -0.066000
      7 C32         3.4160   -5.1310    4.8200 c1        1 XR1     -0.142000
      8 C31         2.3720   -5.4470    5.7390 c2        1 XR1      0.014000
      9 C37         2.4160   -6.7220    6.3640 c2        1 XR1     -0.962000
     10 C36         5.2640   -6.5440    5.4810 c1        1 XR1      0.049000
     11 N35         6.2020   -5.9210    5.1490 n2        1 XR1     -0.310000
     12 S38         3.4400   -7.7950    5.9500 ss        1 XR1      1.565000
     13 C34         3.3290   -9.1600    5.7180 c1        1 XR1     -0.719000
     14 C30         1.4340   -4.4860    6.0550 c2        1 XR1     -0.105000
     15 C29         1.4150   -3.2220    5.3870 c2        1 XR1     -0.119000
     16 C28         2.3240   -2.8970    4.4260 c2        1 XR1     -0.065000
     17 C23         2.2660   -1.6230    3.7250 c2        1 XR1     -0.144000
     18 C24         2.1310   -0.4480    4.3960 c2        1 XR1      0.002000
     19 C19         2.0640    0.7880    3.6920 c2        1 XR1     -0.278000
     20 C20         1.9310    2.0420    4.3390 c2        1 XR1      0.048000
     21 N15         1.8590    3.2050    3.7060 n2        1 XR1     -0.219000
     22 C18         2.1380    0.8090    2.2550 c2        1 XR1      0.216000
     23 N17         2.0740    1.9930    1.5640 n2        1 XR1     -0.284000
     24 C16         1.9200    3.1470    2.3040 c2        1 XR1      0.199000
     25 N14         1.7510    4.3280    1.5690 nh        1 XR1     -0.218000
     26 C8          1.9410    5.6080    2.1460 ca        1 XR1     -0.011000
     27 C13         2.9380    6.4690    1.6380 ca        1 XR1     -0.088500
     28 C12         3.0910    7.7510    2.1390 ca        1 XR1     -0.182000
     29 C11         2.2520    8.2330    3.1750 ca        1 XR1      0.069000
     30 C10         1.2640    7.3620    3.6840 ca        1 XR1     -0.182000
     31 C9          1.1070    6.0790    3.1760 ca        1 XR1     -0.088500
     32 N3          2.3650    9.5650    3.5970 nh        1 XR1     -0.280000
     33 C2          1.8510    9.9110    4.9010 c3        1 XR1     -0.055000
     34 C4          5.4220   13.2000    5.6000 c2        1 XR1     -0.310000
     35 C5          4.3380   12.5880    5.0960 c2        1 XR1     -0.042000
     36 N6          3.7410   11.4090    5.5690 n3        1 XR1     -0.269000
     37 C7          4.2450   10.8650    6.8040 c3        1 XR1     -0.101000
     38 C1          2.3050   11.3030    5.3930 c3        1 XR1     -0.052000
     39 H1          2.8580   -1.3720   -0.2040 h1        1 XR1      0.114000
     40 H2          1.1810   -0.3360   -1.6920 hc        1 XR1      0.087000
     41 H3          0.3530   -1.1670   -0.3100 hc        1 XR1      0.087000
     42 H4          0.4860    0.6420   -0.3330 hc        1 XR1      0.087000
     43 H5          3.0180    0.4420   -0.2340 h1        1 XR1      0.114000
     44 H6          3.1470   -4.2240    2.9670 h1        1 XR1      0.219000
     45 H7          1.6880   -6.9070    7.1640 h4        1 XR1      0.173000
     46 H8          6.8650   -5.3020    4.8080 hn        1 XR1      0.296000
     47 H9          0.6790   -4.6690    6.8350 ha        1 XR1      0.139000
     48 H10         0.6170   -2.5130    5.6620 ha        1 XR1      0.135000
     49 H11         2.0740   -0.4260    5.4970 ha        1 XR1      0.147000
     50 H12         1.8840    2.0880    5.4450 h4        1 XR1      0.168000
     51 H13         1.9870    4.2690    0.5980 hn        1 XR1      0.240000
     52 H14         3.6090    6.1300    0.8320 ha        1 XR1      0.141000
     53 H15         3.8760    8.3980    1.7190 ha        1 XR1      0.136000
     54 H16         0.5920    7.6920    4.4910 ha        1 XR1      0.136000
     55 H17         0.3200    5.4320    3.5950 ha        1 XR1      0.141000
     56 H18         0.7250    9.9400    4.8300 h1        1 XR1      0.081500
     57 H19         2.1240    9.1350    5.6750 h1        1 XR1      0.081500
     58 H20         3.2570    9.9680    3.3940 hn        1 XR1      0.206000
     59 H21         5.9380   12.8860    6.5140 ha        1 XR1      0.119500
     60 H22         5.8580   14.0650    5.0880 ha        1 XR1      0.119500
     61 H23         3.8630   12.9720    4.1700 h4        1 XR1      0.133000
     62 H25         4.0800   11.5530    7.6790 h1        1 XR1      0.077667
     63 H26         3.7350    9.8890    7.0150 h1        1 XR1      0.077667
     64 H27         5.3470   10.6820    6.6970 h1        1 XR1      0.077667
     65 H28         1.9510   12.0760    4.6540 h1        1 XR1      0.089500
     66 H29         1.7670   11.4890    6.3680 h1        1 XR1      0.089500
     67 CL1         4.9740   -3.1720    4.0000 cl        1 XR1     -0.082000
@<TRIPOS>BOND
     1    1    2 1   
     2    1   40 1   
     3    1   41 1   
     4    1   42 1   
     5    2    3 1   
     6    2   39 1   
     7    2   43 1   
     8    3    4 1   
     9    3   22 1   
    10    4    5 1   
    11    4   17 1   
    12    6    7 1   
    13    6   16 1   
    14    6   44 1   
    15    6   67 1   
    16    7    8 1   
    17    8    9 1   
    18    8   14 1   
    19    9   12 1   
    20    9   45 1   
    21   10   11 1   
    22   11   46 1   
    23   12   13 1   
    24   14   15 1   
    25   14   47 1   
    26   15   16 1   
    27   15   48 1   
    28   16   17 1   
    29   17   18 1   
    30   18   19 1   
    31   18   49 1   
    32   19   20 1   
    33   19   22 1   
    34   20   21 1   
    35   20   50 1   
    36   21   24 1   
    37   22   23 1   
    38   23   24 1   
    39   24   25 1   
    40   25   26 1   
    41   25   51 1   
    42   26   27 1   
    43   26   31 1   
    44   27   28 1   
    45   27   52 1   
    46   28   29 1   
    47   28   53 1   
    48   29   30 1   
    49   29   32 1   
    50   30   31 1   
    51   30   54 1   
    52   31   55 1   
    53   32   33 1   
    54   32   58 1   
    55   33   38 1   
    56   33   56 1   
    57   33   57 1   
    58   34   35 1   
    59   34   59 1   
    60   34   60 1   
    61   35   36 1   
    62   35   61 1   
    63   36   37 1   
    64   36   38 1   
    65   37   62 1   
    66   37   63 1   
    67   37   64 1   
    68   38   65 1   
    69   38   66 1   
@<TRIPOS>SUBSTRUCTURE
     1 XR1         1 TEMP              0 ****  ****    0 ROOT
