@<TRIPOS>MOLECULE
XR2
   84    89     1     0     0
SMALL
bcc


@<TRIPOS>ATOM
      1 C1         -4.6200   -4.9850    2.1480 ca        1 XR2     -0.272600
      2 C2         -5.1580   -4.6180    3.4020 ca        1 XR2      0.005000
      3 C3         -5.8400   -5.5080    4.2140 ca        1 XR2     -0.153000
      4 C4         -6.0290   -6.8310    3.8220 ca        1 XR2      0.066700
      5 C12        -5.5150   -7.2760    2.5710 ca        1 XR2      0.296600
      6 C11        -4.7970   -6.3540    1.7080 ca        1 XR2      0.062400
      7 N5         -5.7250   -8.5910    2.2250 nb        1 XR2     -0.454000
      8 N10        -4.3250   -6.8440    0.5130 na        1 XR2     -0.144100
      9 C13        -5.2600   -9.0430    1.0650 ca        1 XR2      0.371600
     10 C14        -4.5200   -8.1650    0.1330 ca        1 XR2      0.007400
     11 C6         -5.4680  -10.4270    0.6760 ca        1 XR2     -0.042300
     12 C7         -4.9840  -10.8800   -0.5220 ca        1 XR2     -0.125000
     13 C8         -4.2790  -10.0230   -1.3980 ca        1 XR2      0.094000
     14 C9         -4.0400   -8.6780   -1.0910 ca        1 XR2     -0.137300
     15 C9A        -3.2940   -7.8240   -2.0470 c3        1 XR2     -0.084800
     16 C          -3.9130   -4.0510    1.3140 c         1 XR2      0.613700
     17 O          -3.3820   -4.1640    0.2190 o         1 XR2     -0.467100
     18 N          -3.7680   -2.5740    1.8780 n4        1 XR2     -0.698800
     19 CA         -3.0270   -1.6710    0.9600 c3        1 XR2      0.083800
     20 CB         -2.8770   -0.2220    1.4980 c3        1 XR2      0.085800
     21 NG         -2.1210    0.6690    0.5430 n4        1 XR2     -0.759000
     22 CD         -1.9820    2.0670    1.0730 c3        1 XR2      0.083800
     23 N'          0.5810    7.6540   -0.6920 n4        1 XR2     -0.698800
     24 C'          0.7250    9.1320   -0.1290 c         1 XR2      0.613700
     25 O'          0.1920    9.2460    0.9650 o         1 XR2     -0.467100
     26 C1'         1.4330   10.0660   -0.9640 ca        1 XR2     -0.272600
     27 C2'         1.9730    9.6980   -2.2160 ca        1 XR2      0.005000
     28 C3'         2.6560   10.5880   -3.0280 ca        1 XR2     -0.153000
     29 C4'         2.8430   11.9110   -2.6360 ca        1 XR2      0.066700
     30 CCX         2.3270   12.3570   -1.3860 ca        1 XR2      0.296600
     31 N5'         2.5360   13.6730   -1.0410 nb        1 XR2     -0.454000
     32 CDX         2.0690   14.1250    0.1180 ca        1 XR2      0.371600
     33 CEX         1.3270   13.2470    1.0500 ca        1 XR2      0.007400
     34 NAX         1.1350   11.9250    0.6700 na        1 XR2     -0.144100
     35 CBX         1.6080   11.4350   -0.5230 ca        1 XR2      0.062400
     36 C9'         0.8460   13.7610    2.2720 ca        1 XR2     -0.137300
     37 C8'         1.0830   15.1060    2.5780 ca        1 XR2      0.094000
     38 C7'         1.7900   15.9630    1.7030 ca        1 XR2     -0.125000
     39 C6'         2.2760   15.5090    0.5060 ca        1 XR2     -0.042300
     40 C9X         0.0990   12.9080    3.2270 c3        1 XR2     -0.084800
     41 CA'        -0.1610    6.7520    0.2250 c3        1 XR2      0.083800
     42 CB'        -0.3100    5.3020   -0.3120 c3        1 XR2      0.085800
     43 NG'        -1.0670    4.4120    0.6420 n4        1 XR2     -0.759000
     44 CD'        -1.2050    3.0140    0.1120 c3        1 XR2      0.083800
     45 H2         -5.0550   -3.5910    3.7900 ha        1 XR2      0.129000
     46 H3         -6.2450   -5.1730    5.1910 ha        1 XR2      0.218000
     47 H4         -6.5790   -7.5440    4.4790 ha        1 XR2      0.239000
     48 H10        -3.8210   -6.2500   -0.1250 hn        1 XR2      0.336700
     49 H6         -6.0230  -11.0960    1.3680 ha        1 XR2      0.227000
     50 H7         -5.1420  -11.9390   -0.8220 ha        1 XR2      0.227000
     51 H8         -3.9040  -10.4340   -2.3600 ha        1 XR2      0.213000
     52 H91        -2.9970   -8.4080   -2.9580 hc        1 XR2      0.077033
     53 H92        -2.3560   -7.4310   -1.5810 hc        1 XR2      0.077033
     54 H93        -3.9260   -6.9660   -2.3910 hc        1 XR2      0.077033
     55 HN         -4.7170   -2.2170    2.0390 hn        1 XR2      0.467800
     56 HA1        -3.5800   -1.6690   -0.0290 hx        1 XR2      0.143700
     57 HA2        -2.0080   -2.1330    0.7830 hx        1 XR2      0.143700
     58 HB1        -3.8960    0.2410    1.6610 hx        1 XR2      0.137700
     59 HB2        -2.3130   -0.2260    2.4790 hx        1 XR2      0.137700
     60 HG1        -1.1840    0.2650    0.3810 hn        1 XR2      0.480800
     61 HG2        -2.6190    0.6890   -0.3610 hn        1 XR2      0.480800
     62 HD1        -1.4450    2.0020    2.0680 hx        1 XR2      0.143700
     63 HD2        -3.0260    2.4680    1.2510 hx        1 XR2      0.143700
     64 HN'         1.5300    7.2980   -0.8530 hn        1 XR2      0.467800
     65 H2'         1.8710    8.6710   -2.6030 ha        1 XR2      0.129000
     66 H3'         3.0630   10.2520   -4.0040 ha        1 XR2      0.218000
     67 H4'         3.3940   12.6240   -3.2930 ha        1 XR2      0.239000
     68 H10'        0.6290   11.3320    1.3080 hn        1 XR2      0.336700
     69 H8'         0.7070   15.5180    3.5400 ha        1 XR2      0.213000
     70 H7'         1.9470   17.0220    2.0020 ha        1 XR2      0.227000
     71 H6'         2.8310   16.1780   -0.1850 ha        1 XR2      0.227000
     72 H91'       -0.2000   13.4920    4.1380 hc        1 XR2      0.077033
     73 H92'       -0.8390   12.5130    2.7610 hc        1 XR2      0.077033
     74 H93'        0.7300   12.0500    3.5740 hc        1 XR2      0.077033
     75 HA1'        0.3910    6.7510    1.2140 hx        1 XR2      0.143700
     76 HA2'       -1.1800    7.2140    0.4010 hx        1 XR2      0.143700
     77 HB1'       -0.8730    5.3070   -1.2940 hx        1 XR2      0.137700
     78 HB2'        0.7090    4.8400   -0.4740 hx        1 XR2      0.137700
     79 HG1'       -0.5690    4.3920    1.5460 hn        1 XR2      0.480800
     80 HG2'       -2.0030    4.8160    0.8040 hn        1 XR2      0.480800
     81 HD1'       -1.7420    3.0790   -0.8830 hx        1 XR2      0.143700
     82 HD2'       -0.1610    2.6120   -0.0650 hx        1 XR2      0.143700
     83 H21        -3.2830   -2.6410    2.7800 hn        1 XR2      0.467800
     84 H'2         0.0970    7.7210   -1.5950 hn        1 XR2      0.467800
@<TRIPOS>BOND
     1    1    2 ar  
     2    1    6 ar  
     3    1   16 1   
     4    2    3 ar  
     5    2   45 1   
     6    3    4 ar  
     7    3   46 1   
     8    4    5 ar  
     9    4   47 1   
    10    5    6 ar  
    11    5    7 ar  
    12    6    8 1   
    13    7    9 ar  
    14    8   10 2   
    15    8   48 1   
    16    9   10 ar  
    17    9   11 ar  
    18   10   14 ar  
    19   11   12 ar  
    20   11   49 1   
    21   12   13 ar  
    22   12   50 1   
    23   13   14 ar  
    24   13   51 1   
    25   14   15 1   
    26   15   52 1   
    27   15   53 1   
    28   15   54 1   
    29   16   17 2   
    30   16   18 1   
    31   18   19 1   
    32   18   55 1   
    33   18   83 1   
    34   19   20 1   
    35   19   56 1   
    36   19   57 1   
    37   20   21 1   
    38   20   58 1   
    39   20   59 1   
    40   21   22 1   
    41   21   60 1   
    42   21   61 1   
    43   22   44 1   
    44   22   62 1   
    45   22   63 1   
    46   23   24 1   
    47   23   41 1   
    48   23   64 1   
    49   23   84 1   
    50   24   25 2   
    51   24   26 1   
    52   26   27 ar  
    53   26   35 ar  
    54   27   28 ar  
    55   27   65 1   
    56   28   29 ar  
    57   28   66 1   
    58   29   30 ar  
    59   29   67 1   
    60   30   31 ar  
    61   30   35 ar  
    62   31   32 ar  
    63   32   33 ar  
    64   32   39 ar  
    65   33   34 2   
    66   33   36 ar  
    67   34   35 1   
    68   34   68 1   
    69   36   37 ar  
    70   36   40 1   
    71   37   38 ar  
    72   37   69 1   
    73   38   39 ar  
    74   38   70 1   
    75   39   71 1   
    76   40   72 1   
    77   40   73 1   
    78   40   74 1   
    79   41   42 1   
    80   41   75 1   
    81   41   76 1   
    82   42   43 1   
    83   42   77 1   
    84   42   78 1   
    85   43   44 1   
    86   43   79 1   
    87   43   80 1   
    88   44   81 1   
    89   44   82 1   
@<TRIPOS>SUBSTRUCTURE
     1 XR2         1 TEMP              0 ****  ****    0 ROOT
