@<TRIPOS>MOLECULE
XR2
   82    87     1     0     0
SMALL
bcc


@<TRIPOS>ATOM
      1 C1          8.3880   -1.6640    6.3550 ca        1 XR2     -0.218600
      2 C2          7.1140   -2.0680    5.9880 ca        1 XR2      0.010000
      3 C3          6.6660   -3.3920    6.1690 ca        1 XR2     -0.154000
      4 C4          7.4830   -4.3400    6.7310 ca        1 XR2     -0.036300
      5 C12         8.8230   -3.9960    7.1190 ca        1 XR2      0.335600
      6 C11         9.2930   -2.6390    6.9030 ca        1 XR2      0.008400
      7 N5          9.6160   -4.9580    7.6700 nb        1 XR2     -0.485000
      8 N10        10.5940   -2.3520    7.2480 na        1 XR2     -0.107100
      9 C13        10.8730   -4.6470    8.0170 ca        1 XR2      0.371600
     10 C14        11.4200   -3.3010    7.8030 ca        1 XR2      0.002400
     11 C6         11.7370   -5.6430    8.6130 ca        1 XR2     -0.098300
     12 C7         13.0200   -5.3220    8.9520 ca        1 XR2     -0.113000
     13 C8         13.5350   -4.0180    8.7310 ca        1 XR2      0.028000
     14 C9         12.7700   -3.0130    8.1690 ca        1 XR2     -0.139300
     15 C9A        13.3380   -1.6610    7.9500 c3        1 XR2     -0.076800
     16 C           8.8150   -0.2540    6.1780 c         1 XR2      0.675700
     17 O           9.9950    0.0840    5.9540 o         1 XR2     -0.608100
     18 N           7.8390    0.7630    6.2210 n         1 XR2     -0.573900
     19 CA          8.2640    2.1040    6.5200 c3        1 XR2      0.056000
     20 CB          8.8350    2.8830    5.3160 c3        1 XR2      0.088800
     21 NG          7.8020    3.2030    4.2680 n4        1 XR2     -0.758000
     22 CD          8.2700    4.2780    3.3470 c3        1 XR2      0.074800
     23 N'          7.7470    8.0220   -0.7640 n         1 XR2     -0.573900
     24 C'          7.5640    7.6990   -2.1240 c         1 XR2      0.675700
     25 O'          6.6710    6.8740   -2.4100 o         1 XR2     -0.608100
     26 C1'         8.4620    8.3140   -3.1330 ca        1 XR2     -0.218600
     27 C2'         9.7520    8.6890   -2.7960 ca        1 XR2      0.010000
     28 C3'        10.6210    9.3030   -3.7210 ca        1 XR2     -0.154000
     29 C4'        10.2120    9.5620   -5.0040 ca        1 XR2     -0.036300
     30 CCX         8.8920    9.1820   -5.4290 ca        1 XR2      0.335600
     31 N5'         8.5130    9.4460   -6.7110 nb        1 XR2     -0.485000
     32 CDX         7.2890    9.0790   -7.1180 ca        1 XR2      0.371600
     33 CEX         6.3560    8.3860   -6.2200 ca        1 XR2      0.002400
     34 NAX         6.7670    8.1370   -4.9320 na        1 XR2     -0.107100
     35 CBX         8.0100    8.5230   -4.4830 ca        1 XR2      0.008400
     36 C9'         5.0680    7.9930   -6.6960 ca        1 XR2     -0.139300
     37 C8'         4.7230    8.2880   -8.0020 ca        1 XR2      0.028000
     38 C7'         5.6100    8.9650   -8.8800 ca        1 XR2     -0.113000
     39 C6'         6.8530    9.3530   -8.4700 ca        1 XR2     -0.098300
     40 C9X         4.1200    7.2850   -5.8040 c3        1 XR2     -0.076800
     41 CA'         6.6440    7.8270    0.1380 c3        1 XR2      0.056000
     42 CB'         6.4690    6.3780    0.6400 c3        1 XR2      0.088800
     43 NG'         7.5830    5.9230    1.5460 n4        1 XR2     -0.758000
     44 CD'         7.1940    4.7120    2.3250 c3        1 XR2      0.074800
     45 H2          6.4060   -1.3580    5.5260 ha        1 XR2      0.150000
     46 H3          5.6390   -3.6600    5.8570 ha        1 XR2      0.194000
     47 H4          7.1300   -5.3790    6.8920 ha        1 XR2      0.212000
     48 H10        10.9700   -1.4310    7.0630 hn        1 XR2      0.347700
     49 H6         11.3300   -6.6590    8.7830 ha        1 XR2      0.207000
     50 H7         13.6830   -6.0830    9.4100 ha        1 XR2      0.202000
     51 H8         14.5840   -3.8100    9.0230 ha        1 XR2      0.192000
     52 H91        13.3160   -1.3900    6.8640 hc        1 XR2      0.069367
     53 H92        12.7690   -0.8920    8.5310 hc        1 XR2      0.069367
     54 H93        14.4050   -1.6190    8.2880 hc        1 XR2      0.069367
     55 HN          6.9610    0.5050    6.6260 hn        1 XR2      0.330500
     56 HA1         9.1200    2.1040    7.2670 h1        1 XR2      0.107200
     57 HA2         7.4040    2.6740    6.9780 h1        1 XR2      0.107200
     58 HB1         9.6600    2.2830    4.8260 hx        1 XR2      0.133700
     59 HB2         9.2560    3.8550    5.7050 hx        1 XR2      0.133700
     60 HG1         7.5960    2.3460    3.7360 hn        1 XR2      0.465800
     61 HG2         6.9350    3.5000    4.7380 hn        1 XR2      0.465800
     62 HD1         9.1870    3.8920    2.8080 hx        1 XR2      0.131200
     63 HD2         8.5810    5.1610    3.9850 hx        1 XR2      0.131200
     64 HN'         8.2930    8.8410   -0.5810 hn        1 XR2      0.330500
     65 H2'        10.1480    8.5060   -1.7810 ha        1 XR2      0.150000
     66 H3'        11.6410    9.5810   -3.3970 ha        1 XR2      0.194000
     67 H4'        10.8850   10.0600   -5.7320 ha        1 XR2      0.212000
     68 H10'        6.1470    7.6290   -4.3150 hn        1 XR2      0.347700
     69 H8'         3.7260    7.9930   -8.3850 ha        1 XR2      0.192000
     70 H7'         5.2730    9.1740   -9.9140 ha        1 XR2      0.202000
     71 H6'         7.5490    9.8800   -9.1510 ha        1 XR2      0.207000
     72 H91'        3.1660    7.0500   -6.3440 hc        1 XR2      0.069367
     73 H92'        4.5540    6.3160   -5.4480 hc        1 XR2      0.069367
     74 H93'        3.8580    7.9170   -4.9180 hc        1 XR2      0.069367
     75 HA1'        5.6540    8.0530   -0.3730 h1        1 XR2      0.107200
     76 HA2'        6.7500    8.5310    1.0130 h1        1 XR2      0.107200
     77 HB1'        6.4180    5.6700   -0.2400 hx        1 XR2      0.133700
     78 HB2'        5.5010    6.3310    1.2180 hx        1 XR2      0.133700
     79 HG1'        8.4130    5.7230    0.9730 hn        1 XR2      0.465800
     80 HG2'        7.8190    6.6900    2.1900 hn        1 XR2      0.465800
     81 HD1'        6.2230    4.9470    2.8570 hx        1 XR2      0.131200
     82 HD2'        7.0000    3.8770    1.5860 hx        1 XR2      0.131200
@<TRIPOS>BOND
     1    1    2 ar  
     2    1    6 ar  
     3    1   16 1   
     4    2    3 ar  
     5    2   45 1   
     6    3    4 ar  
     7    3   46 1   
     8    4    5 ar  
     9    4   47 1   
    10    5    6 ar  
    11    5    7 ar  
    12    6    8 1   
    13    7    9 ar  
    14    8   10 2   
    15    8   48 1   
    16    9   10 ar  
    17    9   11 ar  
    18   10   14 ar  
    19   11   12 ar  
    20   11   49 1   
    21   12   13 ar  
    22   12   50 1   
    23   13   14 ar  
    24   13   51 1   
    25   14   15 1   
    26   15   52 1   
    27   15   53 1   
    28   15   54 1   
    29   16   17 2   
    30   16   18 1   
    31   18   19 1   
    32   18   55 1   
    33   19   20 1   
    34   19   56 1   
    35   19   57 1   
    36   20   21 1   
    37   20   58 1   
    38   20   59 1   
    39   21   22 1   
    40   21   60 1   
    41   21   61 1   
    42   22   44 1   
    43   22   62 1   
    44   22   63 1   
    45   23   24 1   
    46   23   41 1   
    47   23   64 1   
    48   24   25 2   
    49   24   26 1   
    50   26   27 ar  
    51   26   35 ar  
    52   27   28 ar  
    53   27   65 1   
    54   28   29 ar  
    55   28   66 1   
    56   29   30 ar  
    57   29   67 1   
    58   30   31 ar  
    59   30   35 ar  
    60   31   32 ar  
    61   32   33 ar  
    62   32   39 ar  
    63   33   34 2   
    64   33   36 ar  
    65   34   35 1   
    66   34   68 1   
    67   36   37 ar  
    68   36   40 1   
    69   37   38 ar  
    70   37   69 1   
    71   38   39 ar  
    72   38   70 1   
    73   39   71 1   
    74   40   72 1   
    75   40   73 1   
    76   40   74 1   
    77   41   42 1   
    78   41   75 1   
    79   41   76 1   
    80   42   43 1   
    81   42   77 1   
    82   42   78 1   
    83   43   44 1   
    84   43   79 1   
    85   43   80 1   
    86   44   81 1   
    87   44   82 1   
@<TRIPOS>SUBSTRUCTURE
     1 XR2         1 TEMP              0 ****  ****    0 ROOT
