@<TRIPOS>MOLECULE
XR2
   84    89     1     0     0
SMALL
bcc


@<TRIPOS>ATOM
      1 C1         -4.8040   -4.8410    2.4450 ca        1 XR2     -0.272600
      2 C2         -5.3580   -4.4030    3.6680 ca        1 XR2      0.005000
      3 C3         -6.0750   -5.2390    4.5080 ca        1 XR2     -0.153000
      4 C4         -6.2850   -6.5750    4.1740 ca        1 XR2      0.066700
      5 C12        -5.7560   -7.0900    2.9570 ca        1 XR2      0.296600
      6 C11        -5.0020   -6.2250    2.0660 ca        1 XR2      0.062400
      7 N5         -5.9880   -8.4150    2.6690 nb        1 XR2     -0.454000
      8 N10        -4.5180   -6.7810    0.9060 na        1 XR2     -0.144100
      9 C13        -5.5100   -8.9320    1.5410 ca        1 XR2      0.371600
     10 C14        -4.7330   -8.1150    0.5840 ca        1 XR2      0.007400
     11 C6         -5.7410  -10.3280    1.2140 ca        1 XR2     -0.042300
     12 C7         -5.2430  -10.8470    0.0490 ca        1 XR2     -0.125000
     13 C8         -4.5030  -10.0470   -0.8510 ca        1 XR2      0.094000
     14 C9         -4.2410   -8.6950   -0.6040 ca        1 XR2     -0.137300
     15 C9A        -3.4580   -7.9040   -1.5830 c3        1 XR2     -0.084800
     16 C          -4.0610   -3.9620    1.5820 c         1 XR2      0.613700
     17 O          -3.5100   -4.1390    0.5050 o         1 XR2     -0.467100
     18 N          -3.8950   -2.4630    2.0780 n4        1 XR2     -0.698800
     19 CA         -3.1160   -1.6210    1.1350 c3        1 XR2      0.083800
     20 CB         -2.9470   -0.1500    1.6050 c3        1 XR2      0.085800
     21 NG         -2.1500    0.6770    0.6260 n4        1 XR2     -0.759000
     22 CD         -1.9960    2.0970    1.0900 c3        1 XR2      0.083800
     23 N'          0.7260    7.5380   -0.8820 n4        1 XR2     -0.698800
     24 C'          0.8800    9.0410   -0.3930 c         1 XR2      0.613700
     25 O'          0.3140    9.2220    0.6750 o         1 XR2     -0.467100
     26 C1'         1.6320    9.9170   -1.2510 ca        1 XR2     -0.272600
     27 C2'         2.2060    9.4740   -2.4630 ca        1 XR2      0.005000
     28 C3'         2.9310   10.3070   -3.2980 ca        1 XR2     -0.153000
     29 C4'         3.1300   11.6460   -2.9700 ca        1 XR2      0.066700
     30 CCX         2.5820   12.1660   -1.7640 ca        1 XR2      0.296600
     31 N5'         2.8040   13.4950   -1.4820 nb        1 XR2     -0.454000
     32 CDX         2.3080   14.0170   -0.3650 ca        1 XR2      0.371600
     33 CEX         1.5210   13.2030    0.5870 ca        1 XR2      0.007400
     34 NAX         1.3150   11.8660    0.2710 na        1 XR2     -0.144100
     35 CBX         1.8180   11.3040   -0.8780 ca        1 XR2      0.062400
     36 C9'         1.0090   13.7890    1.7630 ca        1 XR2     -0.137300
     37 C8'         1.2620   15.1440    2.0060 ca        1 XR2      0.094000
     38 C7'         2.0120   15.9410    1.1110 ca        1 XR2     -0.125000
     39 C6'         2.5290   15.4160   -0.0440 ca        1 XR2     -0.042300
     40 C9X         0.2160   13.0000    2.7360 c3        1 XR2     -0.084800
     41 CA'        -0.0610    6.6980    0.0570 c3        1 XR2      0.083800
     42 CB'        -0.2220    5.2260   -0.4090 c3        1 XR2      0.085800
     43 NG'        -1.0240    4.4000    0.5660 n4        1 XR2     -0.759000
     44 CD'        -1.1760    2.9790    0.1040 c3        1 XR2      0.083800
     45 H2         -5.2410   -3.3610    4.0100 ha        1 XR2      0.129000
     46 H3         -6.4920   -4.8490    5.4590 ha        1 XR2      0.218000
     47 H4         -6.8630   -7.2440    4.8540 ha        1 XR2      0.239000
     48 H10        -3.9870   -6.2290    0.2510 hn        1 XR2      0.336700
     49 H6         -6.3240  -10.9510    1.9260 ha        1 XR2      0.227000
     50 H7         -5.4190  -11.9150   -0.2030 ha        1 XR2      0.227000
     51 H8         -4.1180  -10.5120   -1.7850 ha        1 XR2      0.213000
     52 H91        -3.1560   -8.5360   -2.4590 hc        1 XR2      0.077033
     53 H92        -4.0640   -7.0500   -1.9810 hc        1 XR2      0.077033
     54 H93        -2.5200   -7.5080   -1.1170 hc        1 XR2      0.077033
     55 HN         -3.4290   -2.4970    2.9920 hn        1 XR2      0.467800
     56 HA1        -3.6470   -1.6560    0.1350 hx        1 XR2      0.143700
     57 HA2        -2.1030   -2.1110    1.0030 hx        1 XR2      0.143700
     58 HB1        -3.9600    0.3400    1.7210 hx        1 XR2      0.137700
     59 HB2        -2.4060   -0.1180    2.5980 hx        1 XR2      0.137700
     60 HG1        -1.2180    0.2480    0.5070 hn        1 XR2      0.480800
     61 HG2        -2.6270    0.6610   -0.2900 hn        1 XR2      0.480800
     62 HD1        -3.0360    2.5270    1.2200 hx        1 XR2      0.143700
     63 HD2        -1.4870    2.0710    2.1010 hx        1 XR2      0.143700
     64 HN'         1.6730    7.1580   -0.9930 hn        1 XR2      0.467800
     65 H2'         2.0970    8.4290   -2.8000 ha        1 XR2      0.129000
     66 H3'         3.3630    9.9120   -4.2410 ha        1 XR2      0.218000
     67 H4'         3.7160   12.3130   -3.6460 ha        1 XR2      0.239000
     68 H10'        0.7780   11.3160    0.9220 hn        1 XR2      0.336700
     69 H8'         0.8620   15.6130    2.9310 ha        1 XR2      0.213000
     70 H7'         2.1790   17.0110    1.3590 ha        1 XR2      0.227000
     71 H6'         3.1190   16.0370   -0.7510 ha        1 XR2      0.227000
     72 H91'        0.8190   12.1520    3.1490 hc        1 XR2      0.077033
     73 H92'       -0.1020   13.6380    3.6040 hc        1 XR2      0.077033
     74 H93'       -0.7140   12.5970    2.2600 hc        1 XR2      0.077033
     75 HA1'        0.4600    6.7390    1.0620 hx        1 XR2      0.143700
     76 HA2'       -1.0760    7.1870    0.1760 hx        1 XR2      0.143700
     77 HB1'        0.7920    4.7370   -0.5160 hx        1 XR2      0.137700
     78 HB2'       -0.7560    5.1890   -1.4060 hx        1 XR2      0.137700
     79 HG1'       -1.9560    4.8290    0.6800 hn        1 XR2      0.480800
     80 HG2'       -0.5520    4.4170    1.4850 hn        1 XR2      0.480800
     81 HD1'       -0.1360    2.5500   -0.0240 hx        1 XR2      0.143700
     82 HD2'       -1.6840    3.0030   -0.9080 hx        1 XR2      0.143700
     83 H21        -4.8390   -2.0790    2.2020 hn        1 XR2      0.467800
     84 H'2         0.2720    7.5650   -1.8020 hn        1 XR2      0.467800
@<TRIPOS>BOND
     1    1    2 ar  
     2    1    6 ar  
     3    1   16 1   
     4    2    3 ar  
     5    2   45 1   
     6    3    4 ar  
     7    3   46 1   
     8    4    5 ar  
     9    4   47 1   
    10    5    6 ar  
    11    5    7 ar  
    12    6    8 1   
    13    7    9 ar  
    14    8   10 2   
    15    8   48 1   
    16    9   10 ar  
    17    9   11 ar  
    18   10   14 ar  
    19   11   12 ar  
    20   11   49 1   
    21   12   13 ar  
    22   12   50 1   
    23   13   14 ar  
    24   13   51 1   
    25   14   15 1   
    26   15   52 1   
    27   15   53 1   
    28   15   54 1   
    29   16   17 2   
    30   16   18 1   
    31   18   19 1   
    32   18   55 1   
    33   18   83 1   
    34   19   20 1   
    35   19   56 1   
    36   19   57 1   
    37   20   21 1   
    38   20   58 1   
    39   20   59 1   
    40   21   22 1   
    41   21   60 1   
    42   21   61 1   
    43   22   44 1   
    44   22   62 1   
    45   22   63 1   
    46   23   24 1   
    47   23   41 1   
    48   23   64 1   
    49   23   84 1   
    50   24   25 2   
    51   24   26 1   
    52   26   27 ar  
    53   26   35 ar  
    54   27   28 ar  
    55   27   65 1   
    56   28   29 ar  
    57   28   66 1   
    58   29   30 ar  
    59   29   67 1   
    60   30   31 ar  
    61   30   35 ar  
    62   31   32 ar  
    63   32   33 ar  
    64   32   39 ar  
    65   33   34 2   
    66   33   36 ar  
    67   34   35 1   
    68   34   68 1   
    69   36   37 ar  
    70   36   40 1   
    71   37   38 ar  
    72   37   69 1   
    73   38   39 ar  
    74   38   70 1   
    75   39   71 1   
    76   40   72 1   
    77   40   73 1   
    78   40   74 1   
    79   41   42 1   
    80   41   75 1   
    81   41   76 1   
    82   42   43 1   
    83   42   77 1   
    84   42   78 1   
    85   43   44 1   
    86   43   79 1   
    87   43   80 1   
    88   44   81 1   
    89   44   82 1   
@<TRIPOS>SUBSTRUCTURE
     1 XR2         1 TEMP              0 ****  ****    0 ROOT
