@<TRIPOS>MOLECULE
XR2
   84    89     1     0     0
SMALL
bcc


@<TRIPOS>ATOM
      1 C1         -4.8440   -4.7800    2.6080 ca        1 XR2     -0.272600
      2 C2         -5.4070   -4.3090    3.8150 ca        1 XR2      0.005000
      3 C3         -6.1320   -5.1210    4.6710 ca        1 XR2     -0.153000
      4 C4         -6.3410   -6.4650    4.3720 ca        1 XR2      0.066700
      5 C12        -5.8040   -7.0130    3.1730 ca        1 XR2      0.296600
      6 C11        -5.0410   -6.1730    2.2650 ca        1 XR2      0.062400
      7 N5         -6.0350   -8.3460    2.9190 nb        1 XR2     -0.454000
      8 N10        -4.5490   -6.7610    1.1240 na        1 XR2     -0.144100
      9 C13        -5.5490   -8.8930    1.8100 ca        1 XR2      0.371600
     10 C14        -4.7630   -8.1030    0.8370 ca        1 XR2      0.007400
     11 C6         -5.7790  -10.2970    1.5190 ca        1 XR2     -0.042300
     12 C7         -5.2730  -10.8480    0.3720 ca        1 XR2     -0.125000
     13 C8         -4.5240  -10.0740   -0.5440 ca        1 XR2      0.094000
     14 C9         -4.2630   -8.7160   -0.3310 ca        1 XR2     -0.137300
     15 C9A        -3.4720   -7.9520   -1.3250 c3        1 XR2     -0.084800
     16 C          -4.0930   -3.9260    1.7270 c         1 XR2      0.613700
     17 O          -3.5360   -4.1310    0.6590 o         1 XR2     -0.467100
     18 N          -3.9280   -2.4140    2.1850 ny        1 XR2     -0.698800
     19 CA         -3.1440   -1.5980    1.2230 c3        1 XR2      0.083800
     20 CB         -2.9720   -0.1170    1.6580 c3        1 XR2      0.085800
     21 NG         -2.1730    0.6850    0.6600 ny        1 XR2     -0.759000
     22 CD         -2.0110    2.1140    1.0930 c3        1 XR2      0.083800
     23 N'          0.7200    7.5010   -1.0120 ny        1 XR2     -0.698800
     24 C'          0.8960    9.0090   -0.5480 c         1 XR2      0.613700
     25 O'          0.3540    9.2100    0.5290 o         1 XR2     -0.467100
     26 C1'         1.6370    9.8670   -1.4340 ca        1 XR2     -0.272600
     27 C2'         2.1810    9.4010   -2.6520 ca        1 XR2      0.005000
     28 C3'         2.8960   10.2160   -3.5130 ca        1 XR2     -0.153000
     29 C4'         3.1140   11.5580   -3.2090 ca        1 XR2      0.066700
     30 CCX         2.5960   12.1000   -1.9990 ca        1 XR2      0.296600
     31 N5'         2.8360   13.4300   -1.7400 nb        1 XR2     -0.454000
     32 CDX         2.3690   13.9720   -0.6200 ca        1 XR2      0.371600
     33 CEX         1.5950   13.1780    0.3590 ca        1 XR2      0.007400
     34 NAX         1.3710   11.8390    0.0670 na        1 XR2     -0.144100
     35 CBX         1.8440   11.2570   -1.0850 ca        1 XR2      0.062400
     36 C9'         1.1130   13.7850    1.5380 ca        1 XR2     -0.137300
     37 C8'         1.3830   15.1410    1.7560 ca        1 XR2      0.094000
     38 C7'         2.1210   15.9190    0.8340 ca        1 XR2     -0.125000
     39 C6'         2.6080   15.3730   -0.3240 ca        1 XR2     -0.042300
     40 C9X         0.3350   13.0180    2.5390 c3        1 XR2     -0.084800
     41 CA'        -0.0560    6.6820   -0.0460 c3        1 XR2      0.083800
     42 CB'        -0.2350    5.2030   -0.4840 c3        1 XR2      0.085800
     43 NG'        -1.0290    4.4000    0.5160 ny        1 XR2     -0.759000
     44 CD'        -1.1930    2.9710    0.0830 c3        1 XR2      0.083800
     45 H2         -5.2910   -3.2580    4.1290 ha        1 XR2      0.129000
     46 H3         -6.5550   -4.7050    5.6080 ha        1 XR2      0.218000
     47 H4         -6.9250   -7.1150    5.0640 ha        1 XR2      0.239000
     48 H10        -4.0130   -6.2270    0.4580 hn        1 XR2      0.336700
     49 H6         -6.3680  -10.9010    2.2420 ha        1 XR2      0.227000
     50 H7         -5.4480  -11.9230    0.1470 ha        1 XR2      0.227000
     51 H8         -4.1330  -10.5640   -1.4620 ha        1 XR2      0.213000
     52 H91        -3.1630   -8.6080   -2.1820 hc        1 XR2      0.077033
     53 H92        -2.5370   -7.5440   -0.8630 hc        1 XR2      0.077033
     54 H93        -4.0730   -7.1090   -1.7510 hc        1 XR2      0.077033
     55 HN         -4.8720   -2.0260    2.2940 hn        1 XR2      0.467800
     56 HA1        -3.6730   -1.6560    0.2230 hx        1 XR2      0.143700
     57 HA2        -2.1330   -2.0950    1.1060 hx        1 XR2      0.143700
     58 HB1        -3.9830    0.3790    1.7630 hx        1 XR2      0.137700
     59 HB2        -2.4300   -0.0630    2.6500 hx        1 XR2      0.137700
     60 HG1        -1.2440    0.2490    0.5480 hn        1 XR2      0.480800
     61 HG2        -2.6510    0.6510   -0.2550 hn        1 XR2      0.480800
     62 HD1        -1.4950    2.1080    2.1010 hx        1 XR2      0.143700
     63 HD2        -3.0480    2.5510    1.2190 hx        1 XR2      0.143700
     64 HN'         1.6620    7.1110   -1.1340 hn        1 XR2      0.467800
     65 H2'         2.0570    8.3530   -2.9710 ha        1 XR2      0.129000
     66 H3'         3.3040    9.8050   -4.4600 ha        1 XR2      0.218000
     67 H4'         3.6900   12.2100   -3.9060 ha        1 XR2      0.239000
     68 H10'        0.8430   11.3030    0.7370 hn        1 XR2      0.336700
     69 H8'         1.0080   15.6270    2.6830 ha        1 XR2      0.213000
     70 H7'         2.3030   16.9910    1.0630 ha        1 XR2      0.227000
     71 H6'         3.1880   15.9790   -1.0520 ha        1 XR2      0.227000
     72 H91'        0.0420   13.6700    3.4050 hc        1 XR2      0.077033
     73 H92'       -0.6080   12.6170    2.0890 hc        1 XR2      0.077033
     74 H93'        0.9390   12.1700    2.9500 hc        1 XR2      0.077033
     75 HA1'        0.4820    6.7360    0.9500 hx        1 XR2      0.143700
     76 HA2'       -1.0650    7.1800    0.0830 hx        1 XR2      0.143700
     77 HB1'       -0.7830    5.1530   -1.4730 hx        1 XR2      0.137700
     78 HB2'        0.7750    4.7050   -0.5970 hx        1 XR2      0.137700
     79 HG1'       -0.5460    4.4320    1.4290 hn        1 XR2      0.480800
     80 HG2'       -1.9580    4.8360    0.6330 hn        1 XR2      0.480800
     81 HD1'       -1.7090    2.9790   -0.9250 hx        1 XR2      0.143700
     82 HD2'       -0.1560    2.5340   -0.0450 hx        1 XR2      0.143700
     83 H21        -3.4670   -2.4250    3.1020 hn        1 XR2      0.467800
     84 H'2         0.2490    7.5180   -1.9230 hn        1 XR2      0.467800
@<TRIPOS>BOND
     1    1    2 ar  
     2    1    6 ar  
     3    1   16 1   
     4    2    3 ar  
     5    2   45 1   
     6    3    4 ar  
     7    3   46 1   
     8    4    5 ar  
     9    4   47 1   
    10    5    6 ar  
    11    5    7 ar  
    12    6    8 1   
    13    7    9 ar  
    14    8   10 2   
    15    8   48 1   
    16    9   10 ar  
    17    9   11 ar  
    18   10   14 ar  
    19   11   12 ar  
    20   11   49 1   
    21   12   13 ar  
    22   12   50 1   
    23   13   14 ar  
    24   13   51 1   
    25   14   15 1   
    26   15   52 1   
    27   15   53 1   
    28   15   54 1   
    29   16   17 2   
    30   16   18 1   
    31   18   19 1   
    32   18   55 1   
    33   18   83 1   
    34   19   20 1   
    35   19   56 1   
    36   19   57 1   
    37   20   21 1   
    38   20   58 1   
    39   20   59 1   
    40   21   22 1   
    41   21   60 1   
    42   21   61 1   
    43   22   44 1   
    44   22   62 1   
    45   22   63 1   
    46   23   24 1   
    47   23   41 1   
    48   23   64 1   
    49   23   84 1   
    50   24   25 2   
    51   24   26 1   
    52   26   27 ar  
    53   26   35 ar  
    54   27   28 ar  
    55   27   65 1   
    56   28   29 ar  
    57   28   66 1   
    58   29   30 ar  
    59   29   67 1   
    60   30   31 ar  
    61   30   35 ar  
    62   31   32 ar  
    63   32   33 ar  
    64   32   39 ar  
    65   33   34 2   
    66   33   36 ar  
    67   34   35 1   
    68   34   68 1   
    69   36   37 ar  
    70   36   40 1   
    71   37   38 ar  
    72   37   69 1   
    73   38   39 ar  
    74   38   70 1   
    75   39   71 1   
    76   40   72 1   
    77   40   73 1   
    78   40   74 1   
    79   41   42 1   
    80   41   75 1   
    81   41   76 1   
    82   42   43 1   
    83   42   77 1   
    84   42   78 1   
    85   43   44 1   
    86   43   79 1   
    87   43   80 1   
    88   44   81 1   
    89   44   82 1   
@<TRIPOS>SUBSTRUCTURE
     1 XR2         1 TEMP              0 ****  ****    0 ROOT
