@<TRIPOS>MOLECULE
XRA
   49    52     1     0     0
SMALL
bcc


@<TRIPOS>ATOM
      1 N1         -0.0180   -0.3340    0.2270 nb        1 XRA     -0.782000
      2 O1          4.1860   -0.5190   -2.1920 os        1 XRA     -0.300900
      3 C2          1.3480   -0.2050    0.2140 ca        1 XRA      0.490600
      4 N2         -0.0160    0.2480    2.6080 nb        1 XRA     -0.814000
      5 O2          5.5330    0.0730   -0.0750 os        1 XRA     -0.301900
      6 C3          2.1020    0.1330    1.3760 ca        1 XRA     -0.319600
      7 N3          1.9840    0.6000    3.7960 nv        1 XRA     -0.937500
      8 O3         -5.9140   -2.3060    2.9860 o         1 XRA     -0.591100
      9 C4          1.3300    0.3480    2.5920 ca        1 XRA      0.715200
     10 N4         -2.0840   -0.0880    1.4220 nh        1 XRA     -0.722300
     11 O4         -6.7720   -1.9270   -0.4300 os        1 XRA     -0.351800
     12 N5         -4.9020   -0.8150    1.5640 n         1 XRA     -0.448800
     13 C6         -0.6570   -0.0890    1.4090 ca        1 XRA      0.900900
     14 C7          2.0470   -0.4300   -1.0180 ca        1 XRA     -0.270300
     15 C8          3.4170   -0.3270   -1.0670 ca        1 XRA      0.154100
     16 C9          4.1670    0.0030    0.1170 ca        1 XRA      0.087100
     17 C10         3.5130    0.2250    1.3070 ca        1 XRA     -0.145000
     18 C12         3.4790   -0.8510   -3.3840 c3        1 XRA      0.107700
     19 C14         6.3150    0.2960    1.0920 c3        1 XRA      0.109700
     20 C17        -2.7240   -0.3120    2.7100 c3        1 XRA      0.171300
     21 C18        -4.2580   -0.1330    2.6660 c3        1 XRA      0.076000
     22 C20        -4.2740   -0.5580    0.2920 c3        1 XRA      0.076000
     23 C21        -2.7380   -0.7420    0.2990 c3        1 XRA      0.171300
     24 C22        -5.7000   -1.9250    1.8160 c         1 XRA      0.593600
     25 C23        -6.3580   -2.6370    0.7060 cc        1 XRA      0.185200
     26 C25        -7.4160   -2.8460   -1.2540 cc        1 XRA      0.258600
     27 C26        -7.4150   -4.0990   -0.6720 cd        1 XRA     -0.274300
     28 C27        -6.7380   -3.9640    0.5980 cd        1 XRA     -0.184300
     29 HN3         2.8560    1.0680    3.7220 hn        1 XRA      0.417800
     30 HN3A        1.4220    0.8690    4.5730 hn        1 XRA      0.417800
     31 H7          1.4610   -0.6860   -1.9140 ha        1 XRA      0.160000
     32 H10         4.0970    0.4620    2.2070 ha        1 XRA      0.135000
     33 H12         4.2940   -0.9560   -4.1440 h1        1 XRA      0.048700
     34 H12A        2.9270   -1.8140   -3.2600 h1        1 XRA      0.048700
     35 H12B        2.7760   -0.0290   -3.6670 h1        1 XRA      0.048700
     36 H14         7.3660    0.2640    0.7070 h1        1 XRA      0.044033
     37 H14A        6.1460   -0.5100    1.8460 h1        1 XRA      0.044033
     38 H14B        6.0880    1.2980    1.5330 h1        1 XRA      0.044033
     39 H17        -2.3380    0.4440    3.4510 h1        1 XRA      0.062200
     40 H17A       -2.4860   -1.3430    3.1020 h1        1 XRA      0.062200
     41 H18        -4.6730   -0.5010    3.6460 h1        1 XRA      0.072200
     42 H18A       -4.4960    0.9640    2.5620 h1        1 XRA      0.072200
     43 H20        -4.6830   -1.2340   -0.5080 h1        1 XRA      0.072200
     44 H20A       -4.5130    0.5080    0.0080 h1        1 XRA      0.072200
     45 H21        -2.3590   -0.2860   -0.6600 h1        1 XRA      0.062200
     46 H21A       -2.5000   -1.8440    0.2820 h1        1 XRA      0.062200
     47 H25        -7.8010   -2.4250   -2.1790 h4        1 XRA      0.057100
     48 H26        -7.8380   -5.0170   -1.0700 ha        1 XRA      0.168000
     49 H27        -6.5700   -4.7530    1.3270 ha        1 XRA      0.177000
@<TRIPOS>BOND
     1    1    3 ar  
     2    1   13 ar  
     3    2   15 1   
     4    2   18 1   
     5    3    6 ar  
     6    3   14 ar  
     7    4    9 ar  
     8    4   13 ar  
     9    5   16 1   
    10    5   19 1   
    11    6    9 ar  
    12    6   17 ar  
    13    7    9 1   
    14    7   29 1   
    15    7   30 1   
    16    8   24 2   
    17   10   13 1   
    18   10   20 1   
    19   10   23 1   
    20   11   25 1   
    21   11   26 1   
    22   12   21 1   
    23   12   22 1   
    24   12   24 1   
    25   14   15 ar  
    26   14   31 1   
    27   15   16 ar  
    28   16   17 ar  
    29   17   32 1   
    30   18   33 1   
    31   18   34 1   
    32   18   35 1   
    33   19   36 1   
    34   19   37 1   
    35   19   38 1   
    36   20   21 1   
    37   20   39 1   
    38   20   40 1   
    39   21   41 1   
    40   21   42 1   
    41   22   23 1   
    42   22   43 1   
    43   22   44 1   
    44   23   45 1   
    45   23   46 1   
    46   24   25 1   
    47   25   28 2   
    48   26   27 2   
    49   26   47 1   
    50   27   28 1   
    51   27   48 1   
    52   28   49 1   
@<TRIPOS>SUBSTRUCTURE
     1 XRA         1 TEMP              0 ****  ****    0 ROOT
