@<TRIPOS>MOLECULE
XRA
   49    52     1     0     0
SMALL
bcc


@<TRIPOS>ATOM
      1 N1         -1.0580   -0.2930    0.2430 nb        1 XRA     -0.783000
      2 O1         -5.3190   -2.5380   -0.3650 os        1 XRA     -0.300900
      3 C2         -2.4120   -0.2280    0.0280 ca        1 XRA      0.490600
      4 N2         -0.9620    2.1540    0.1580 nb        1 XRA     -0.816000
      5 O2         -6.5740   -0.2940   -0.5580 os        1 XRA     -0.301900
      6 C3         -3.1130    1.0060   -0.1080 ca        1 XRA     -0.320600
      7 N3         -2.8970    3.4640   -0.1260 nh        1 XRA     -0.937500
      8 O3          5.3690    1.7160   -0.7140 o         1 XRA     -0.592100
      9 C4         -2.2960    2.2100   -0.0380 ca        1 XRA      0.716200
     10 N4          0.9920    0.8590    0.7130 nh        1 XRA     -0.722300
     11 O4          5.7920   -1.5310    0.6410 os        1 XRA     -0.351800
     12 N5          3.9020    0.7300    0.7510 n         1 XRA     -0.448800
     13 C6         -0.3850    0.8910    0.3410 ca        1 XRA      0.901900
     14 C7         -3.1520   -1.4530   -0.0660 ca        1 XRA     -0.270300
     15 C8         -4.5130   -1.4270   -0.2610 ca        1 XRA      0.154100
     16 C9         -5.2120   -0.1740   -0.3700 ca        1 XRA      0.086100
     17 C10        -4.5160    1.0110   -0.2940 ca        1 XRA     -0.145000
     18 C12        -4.6650   -3.7990   -0.2500 c3        1 XRA      0.107700
     19 C14        -7.3140    0.9210   -0.5510 c3        1 XRA      0.109700
     20 C17         1.7860    2.0350    0.3890 c3        1 XRA      0.171800
     21 C18         3.2140    1.9840    0.9750 c3        1 XRA      0.076000
     22 C20         3.1120   -0.4210    1.1130 c3        1 XRA      0.076000
     23 C21         1.6790   -0.4100    0.5310 c3        1 XRA      0.171800
     24 C22         4.9650    0.6810   -0.1440 c         1 XRA      0.592600
     25 C23         5.6750   -0.5870   -0.3890 cc        1 XRA      0.185200
     26 C25         6.5670   -2.5700    0.1330 cc        1 XRA      0.258600
     27 C26         6.9320   -2.3070   -1.1730 cd        1 XRA     -0.274300
     28 C27         6.3620   -1.0220   -1.5090 cd        1 XRA     -0.184300
     29 HN3        -2.2960    4.2540   -0.2020 hn        1 XRA      0.417800
     30 HN3A       -3.7250    3.5060   -0.6720 hn        1 XRA      0.417800
     31 H7         -2.6070   -2.4040    0.0290 ha        1 XRA      0.160000
     32 H10        -5.0620    1.9630   -0.3600 ha        1 XRA      0.136000
     33 H12        -5.5030   -4.5330   -0.3610 h1        1 XRA      0.048367
     34 H12A       -3.9130   -3.9290   -1.0670 h1        1 XRA      0.048367
     35 H12B       -4.1790   -3.9010    0.7510 h1        1 XRA      0.048367
     36 H14        -7.0210    1.5650   -1.4150 h1        1 XRA      0.044367
     37 H14A       -8.3740    0.5770   -0.6580 h1        1 XRA      0.044367
     38 H14B       -7.1720    1.4690    0.4120 h1        1 XRA      0.044367
     39 H17         1.8520    2.1780   -0.7280 h1        1 XRA      0.061700
     40 H17A        1.2930    2.9460    0.8330 h1        1 XRA      0.061700
     41 H18         3.1590    2.1370    2.0910 h1        1 XRA      0.072700
     42 H18A        3.8000    2.8340    0.5230 h1        1 XRA      0.072700
     43 H20         3.6010   -1.3740    0.7680 h1        1 XRA      0.072700
     44 H20A        3.0490   -0.4450    2.2390 h1        1 XRA      0.072700
     45 H21         1.1090   -1.2160    1.0760 h1        1 XRA      0.061700
     46 H21A        1.7240   -0.6880   -0.5610 h1        1 XRA      0.061700
     47 H25         6.7480   -3.3780    0.8370 h4        1 XRA      0.057100
     48 H26         7.5320   -2.9260   -1.8320 ha        1 XRA      0.168000
     49 H27         6.4640   -0.4990   -2.4570 ha        1 XRA      0.177000
@<TRIPOS>BOND
     1    1    3 ar  
     2    1   13 ar  
     3    2   15 1   
     4    2   18 1   
     5    3    6 ar  
     6    3   14 ar  
     7    4    9 ar  
     8    4   13 ar  
     9    5   16 1   
    10    5   19 1   
    11    6    9 ar  
    12    6   17 ar  
    13    7    9 1   
    14    7   29 1   
    15    7   30 1   
    16    8   24 2   
    17   10   13 1   
    18   10   20 1   
    19   10   23 1   
    20   11   25 1   
    21   11   26 1   
    22   12   21 1   
    23   12   22 1   
    24   12   24 1   
    25   14   15 ar  
    26   14   31 1   
    27   15   16 ar  
    28   16   17 ar  
    29   17   32 1   
    30   18   33 1   
    31   18   34 1   
    32   18   35 1   
    33   19   36 1   
    34   19   37 1   
    35   19   38 1   
    36   20   21 1   
    37   20   39 1   
    38   20   40 1   
    39   21   41 1   
    40   21   42 1   
    41   22   23 1   
    42   22   43 1   
    43   22   44 1   
    44   23   45 1   
    45   23   46 1   
    46   24   25 1   
    47   25   28 2   
    48   26   27 2   
    49   26   47 1   
    50   27   28 1   
    51   27   48 1   
    52   28   49 1   
@<TRIPOS>SUBSTRUCTURE
     1 XRA         1 TEMP              0 ****  ****    0 ROOT
