@<TRIPOS>MOLECULE
XRA
   50    53     1     0     0
SMALL
bcc


@<TRIPOS>ATOM
      1 N1         -0.0090   -0.3710    0.2060 nb        1 XRA     -0.710000
      2 O1          4.2080   -0.4660   -2.1750 os        1 XRA     -0.281900
      3 C2          1.3400   -0.2460    0.2000 ca        1 XRA      0.517600
      4 N2         -0.0270    0.0980    2.6100 nb        1 XRA     -0.750000
      5 O2          5.5220    0.0960   -0.0570 os        1 XRA     -0.274900
      6 C3          2.1000    0.0620    1.3890 ca        1 XRA     -0.277600
      7 N3          1.9780    0.5080    3.8470 n4        1 XRA     -0.829300
      8 O3         -5.6080   -2.4210    2.9350 o         1 XRA     -0.580100
      9 C4          1.3060    0.2110    2.5560 ca        1 XRA      0.536200
     10 N4         -2.0840   -0.1780    1.3980 nh        1 XRA     -0.713300
     11 O4         -6.6970   -2.0180   -0.4670 os        1 XRA     -0.357800
     12 N5         -4.9290   -0.7740    1.4870 n         1 XRA     -0.447800
     13 C6         -0.6840   -0.1750    1.3970 ca        1 XRA      0.914900
     14 C7          2.0590   -0.4330   -1.0330 ca        1 XRA     -0.277300
     15 C8          3.4240   -0.3120   -1.0680 ca        1 XRA      0.182100
     16 C9          4.1730    0.0070    0.1400 ca        1 XRA      0.176100
     17 C10         3.5150    0.1860    1.3310 ca        1 XRA     -0.242000
     18 C12         3.5380   -0.7770   -3.4000 c3        1 XRA      0.100700
     19 C14         6.3230    0.4120    1.0810 c3        1 XRA      0.102700
     20 C17        -2.7740   -0.2730    2.6760 c3        1 XRA      0.170300
     21 C18        -4.3010   -0.0590    2.5750 c3        1 XRA      0.074000
     22 C20        -4.2900   -0.5180    0.2230 c3        1 XRA      0.074000
     23 C21        -2.7570   -0.7340    0.2320 c3        1 XRA      0.170300
     24 C22        -5.5970   -1.9760    1.7700 c         1 XRA      0.594600
     25 C23        -6.3490   -2.6750    0.7230 cc        1 XRA      0.160200
     26 C25        -7.4610   -2.9190   -1.2010 cc        1 XRA      0.277600
     27 C26        -7.5990   -4.1110   -0.5140 cd        1 XRA     -0.274300
     28 C27        -6.8870   -3.9530    0.7310 cd        1 XRA     -0.155300
     29 HN3         2.4750    1.4000    3.7550 hn        1 XRA      0.470467
     30 HN3A        2.6490   -0.2420    4.0430 hn        1 XRA      0.470467
     31 H7          1.4830   -0.6710   -1.9420 ha        1 XRA      0.184000
     32 H10         4.0900    0.4290    2.2350 ha        1 XRA      0.124000
     33 H12         3.0020   -1.7530   -3.3120 h1        1 XRA      0.064700
     34 H12A        2.8340    0.0430   -3.6790 h1        1 XRA      0.064700
     35 H12B        4.3830   -0.8480   -4.1330 h1        1 XRA      0.064700
     36 H14         6.2250   -0.3800    1.8610 h1        1 XRA      0.058367
     37 H14A        6.0470    1.4140    1.4890 h1        1 XRA      0.058367
     38 H14B        7.3620    0.4270    0.6580 h1        1 XRA      0.058367
     39 H17        -2.3860    0.5270    3.3690 h1        1 XRA      0.067700
     40 H17A       -2.5750   -1.2800    3.1440 h1        1 XRA      0.067700
     41 H18        -4.7510   -0.3750    3.5590 h1        1 XRA      0.084700
     42 H18A       -4.5090    1.0380    2.4170 h1        1 XRA      0.084700
     43 H20        -4.7070   -1.1800   -0.5870 h1        1 XRA      0.084700
     44 H20A       -4.5050    0.5550   -0.0540 h1        1 XRA      0.084700
     45 H21        -2.5380   -1.8380    0.1610 h1        1 XRA      0.067700
     46 H21A       -2.3590   -0.2330   -0.6970 h1        1 XRA      0.067700
     47 H25        -7.8130   -2.5340   -2.1560 h4        1 XRA      0.064100
     48 H26        -8.1400   -5.0000   -0.8290 ha        1 XRA      0.177000
     49 H27        -6.7990   -4.6930    1.5260 ha        1 XRA      0.183000
     50 H33         1.2980    0.5710    4.6170 hn        1 XRA      0.470467
@<TRIPOS>BOND
     1    1    3 ar  
     2    1   13 ar  
     3    2   15 1   
     4    2   18 1   
     5    3    6 ar  
     6    3   14 ar  
     7    4    9 ar  
     8    4   13 ar  
     9    5   16 1   
    10    5   19 1   
    11    6    9 ar  
    12    6   17 ar  
    13    7    9 1   
    14    7   29 1   
    15    7   30 1   
    16    7   50 1   
    17    8   24 2   
    18   10   13 1   
    19   10   20 1   
    20   10   23 1   
    21   11   25 1   
    22   11   26 1   
    23   12   21 1   
    24   12   22 1   
    25   12   24 1   
    26   14   15 ar  
    27   14   31 1   
    28   15   16 ar  
    29   16   17 ar  
    30   17   32 1   
    31   18   33 1   
    32   18   34 1   
    33   18   35 1   
    34   19   36 1   
    35   19   37 1   
    36   19   38 1   
    37   20   21 1   
    38   20   39 1   
    39   20   40 1   
    40   21   41 1   
    41   21   42 1   
    42   22   23 1   
    43   22   43 1   
    44   22   44 1   
    45   23   45 1   
    46   23   46 1   
    47   24   25 1   
    48   25   28 2   
    49   26   27 2   
    50   26   47 1   
    51   27   28 1   
    52   27   48 1   
    53   28   49 1   
@<TRIPOS>SUBSTRUCTURE
     1 XRA         1 TEMP              0 ****  ****    0 ROOT
