@<TRIPOS>MOLECULE
XRG
   22    21     1     0     0
SMALL
bcc


@<TRIPOS>ATOM
      1 CAB         0.2620    0.9060   -0.0890 c3        1 XRG      0.080100
      2 NAF         1.1970   -0.2680    0.0670 n4        1 XRG     -0.628800
      3 CAI         2.3580    0.0680    0.9430 c         1 XRG      0.500100
      4 OAD         2.3780    1.0710    1.6380 o         1 XRG     -0.309100
      5 NAG         3.5570   -0.8340    0.9810 n4        1 XRG     -0.736800
      6 CAH         4.3550   -0.7810    2.3760 c2        1 XRG      0.687100
      7 NAC         4.3890   -1.7270    3.1850 n2        1 XRG     -0.576100
      8 NAE         5.0800    0.5110    2.5790 n4        1 XRG     -0.726000
      9 CAA         5.9250    0.5320    3.8300 c3        1 XRG      0.089100
     10 HAB        -0.6040    0.5480   -0.7290 hx        1 XRG      0.163367
     11 HABA       -0.1200    1.2370    0.9190 hx        1 XRG      0.163367
     12 HABB        0.7910    1.7570   -0.6030 hx        1 XRG      0.163367
     13 HNAF        0.6600   -1.0510    0.4950 hn        1 XRG      0.516300
     14 HNAG        4.2000   -0.5690    0.2120 hn        1 XRG      0.504800
     15 HNAC        4.0000   -2.6520    3.2380 hn        1 XRG      0.601400
     16 HNAE        5.7100    0.6810    1.7750 hn        1 XRG      0.503800
     17 HAA         6.4200    1.5510    3.8550 hx        1 XRG      0.160033
     18 HAAA        6.7130   -0.2730    3.7890 hx        1 XRG      0.160033
     19 HAAB        5.2800    0.3990    4.7440 hx        1 XRG      0.160033
     20 HAF2        1.5140   -0.5590   -0.8770 hn        1 XRG      0.516300
     21 HAG2        3.2930   -1.8220    0.8210 hn        1 XRG      0.504800
     22 HAE2        4.3830    1.2780    2.6500 hn        1 XRG      0.503800
@<TRIPOS>BOND
     1    1    2 1   
     2    1   10 1   
     3    1   11 1   
     4    1   12 1   
     5    2    3 1   
     6    2   13 1   
     7    2   20 1   
     8    3    4 2   
     9    3    5 1   
    10    5    6 1   
    11    5   14 1   
    12    5   21 1   
    13    6    7 2   
    14    6    8 1   
    15    7   15 1   
    16    8    9 1   
    17    8   16 1   
    18    8   22 1   
    19    9   17 1   
    20    9   18 1   
    21    9   19 1   
@<TRIPOS>SUBSTRUCTURE
     1 XRG         1 TEMP              0 ****  ****    0 ROOT
