@<TRIPOS>MOLECULE
XRG
   22    21     1     0     0
SMALL
bcc


@<TRIPOS>ATOM
      1 CAB         0.2710    0.9610   -0.0740 c3        1 XRG      0.080100
      2 NAF         1.2120   -0.2130    0.0380 n4        1 XRG     -0.628800
      3 CAI         2.3670    0.0920    0.9330 c         1 XRG      0.500100
      4 OAD         2.3860    1.0770    1.6540 o         1 XRG     -0.309100
      5 NAG         3.5610   -0.8180    0.9590 n4        1 XRG     -0.736800
      6 CAH         4.3460   -0.8050    2.3610 c2        1 XRG      0.687100
      7 NAC         4.3670   -1.7720    3.1460 n2        1 XRG     -0.576100
      8 NAE         5.0770    0.4760    2.6040 n4        1 XRG     -0.726000
      9 CAA         5.9110    0.4600    3.8630 c3        1 XRG      0.089100
     10 HAB        -0.1200    1.2450    0.9440 hx        1 XRG      0.163033
     11 HABA       -0.5870    0.6260   -0.7360 hx        1 XRG      0.163033
     12 HABB        0.7990    1.8360   -0.5460 hx        1 XRG      0.163033
     13 HNAF        0.6780   -1.0170    0.4280 hn        1 XRG      0.516300
     14 HNAG        4.2120   -0.5370    0.2020 hn        1 XRG      0.504800
     15 HNAC        3.9710   -2.6950    3.1720 hn        1 XRG      0.601400
     16 HNAE        4.3840    1.2460    2.6880 hn        1 XRG      0.503800
     17 HAA         5.2560    0.3090    4.7670 hx        1 XRG      0.160033
     18 HAAA        6.4120    1.4760    3.9180 hx        1 XRG      0.160033
     19 HAAB        6.6930   -0.3480    3.8080 hx        1 XRG      0.160033
     20 HAF2        1.5370   -0.4620   -0.9160 hn        1 XRG      0.516300
     21 HAG2        3.2920   -1.7990    0.7710 hn        1 XRG      0.504800
     22 HAE2        5.7160    0.6620    1.8100 hn        1 XRG      0.503800
@<TRIPOS>BOND
     1    1    2 1   
     2    1   10 1   
     3    1   11 1   
     4    1   12 1   
     5    2    3 1   
     6    2   13 1   
     7    2   20 1   
     8    3    4 2   
     9    3    5 1   
    10    5    6 1   
    11    5   14 1   
    12    5   21 1   
    13    6    7 2   
    14    6    8 1   
    15    7   15 1   
    16    8    9 1   
    17    8   16 1   
    18    8   22 1   
    19    9   17 1   
    20    9   18 1   
    21    9   19 1   
@<TRIPOS>SUBSTRUCTURE
     1 XRG         1 TEMP              0 ****  ****    0 ROOT
