@<TRIPOS>MOLECULE
XRG
   19    18     1     0     0
SMALL
bcc


@<TRIPOS>ATOM
      1 CAB         3.3100    0.1180   -0.7470 c3        1 XRG      0.073300
      2 NAF         2.3500    0.3460    0.2920 n         1 XRG     -0.548900
      3 CAI         0.9830    0.2380   -0.0100 c         1 XRG      0.752100
      4 OAD         0.6100   -0.3010   -1.0800 o         1 XRG     -0.642100
      5 NAG         0.0510    0.7560    0.9220 n         1 XRG     -0.476400
      6 CAH        -1.3260    0.3190    0.8810 c2        1 XRG      0.648800
      7 NAC        -1.8480   -0.0790    2.0140 n2        1 XRG     -0.879100
      8 NAE        -2.0050    0.5000   -0.3630 nh        1 XRG     -0.827200
      9 CAA        -3.1830   -0.2910   -0.5820 c3        1 XRG      0.168100
     10 HAB         2.9450   -0.6940   -1.4330 h1        1 XRG      0.049033
     11 HABA        3.4960    1.0440   -1.3560 h1        1 XRG      0.049033
     12 HABB        4.2730   -0.2040   -0.2690 h1        1 XRG      0.049033
     13 HNAF        2.6260    0.9850    1.0030 hn        1 XRG      0.301500
     14 HNAG        0.3840    0.9330    1.8490 hn        1 XRG      0.323500
     15 HNAC       -2.8180   -0.3010    1.9930 hn        1 XRG      0.404400
     16 HNAE       -1.4010    0.5410   -1.1620 hn        1 XRG      0.430800
     17 HAA        -3.0210   -1.3900   -0.4070 h1        1 XRG      0.041033
     18 HAAA       -4.0050    0.0600    0.0990 h1        1 XRG      0.041033
     19 HAAB       -3.5160   -0.1430   -1.6430 h1        1 XRG      0.041033
@<TRIPOS>BOND
     1    1    2 1   
     2    1   10 1   
     3    1   11 1   
     4    1   12 1   
     5    2    3 1   
     6    2   13 1   
     7    3    4 2   
     8    3    5 1   
     9    5    6 1   
    10    5   14 1   
    11    6    7 2   
    12    6    8 1   
    13    7   15 1   
    14    8    9 1   
    15    8   16 1   
    16    9   17 1   
    17    9   18 1   
    18    9   19 1   
@<TRIPOS>SUBSTRUCTURE
     1 XRG         1 TEMP              0 ****  ****    0 ROOT
