@<TRIPOS>MOLECULE
XRG
   22    21     1     0     0
SMALL
bcc


@<TRIPOS>ATOM
      1 CAB         0.3090    0.9590   -0.1400 c3        1 XRG      0.080100
      2 NAF         1.2520   -0.2130   -0.0110 ny        1 XRG     -0.628800
      3 CAI         2.3820    0.0920    0.9150 c         1 XRG      0.500100
      4 OAD         2.3740    1.0670    1.6490 o         1 XRG     -0.309100
      5 NAG         3.5830   -0.8070    0.9570 ny        1 XRG     -0.736800
      6 CAH         4.3350   -0.8050    2.3780 c2        1 XRG      0.687100
      7 NAC         4.3470   -1.7820    3.1510 n2        1 XRG     -0.576100
      8 NAE         5.0470    0.4800    2.6550 ny        1 XRG     -0.726000
      9 CAA         5.8510    0.4550    3.9340 c3        1 XRG      0.089100
     10 HAB        -0.5320    0.6240   -0.8250 hx        1 XRG      0.163367
     11 HABA       -0.1080    1.2360    0.8690 hx        1 XRG      0.163367
     12 HABB        0.8450    1.8380   -0.5950 hx        1 XRG      0.163367
     13 HNAF        0.7100   -1.0200    0.3620 hn        1 XRG      0.516300
     14 HNAG        4.2490   -0.5090    0.2210 hn        1 XRG      0.504800
     15 HNAC        3.9600   -2.7100    3.1550 hn        1 XRG      0.601400
     16 HNAE        5.7030    0.6830    1.8790 hn        1 XRG      0.503800
     17 HAA         6.3410    1.4740    4.0140 hx        1 XRG      0.160033
     18 HAAA        6.6430   -0.3450    3.8870 hx        1 XRG      0.160033
     19 HAAB        5.1770    0.2850    4.8200 hx        1 XRG      0.160033
     20 HAF2        1.6010   -0.4550   -0.9580 hn        1 XRG      0.516300
     21 HAG2        3.3290   -1.7880    0.7500 hn        1 XRG      0.504800
     22 HAE2        4.3450    1.2420    2.7330 hn        1 XRG      0.503800
@<TRIPOS>BOND
     1    1    2 1   
     2    1   10 1   
     3    1   11 1   
     4    1   12 1   
     5    2    3 1   
     6    2   13 1   
     7    2   20 1   
     8    3    4 2   
     9    3    5 1   
    10    5    6 1   
    11    5   14 1   
    12    5   21 1   
    13    6    7 2   
    14    6    8 1   
    15    7   15 1   
    16    8    9 1   
    17    8   16 1   
    18    8   22 1   
    19    9   17 1   
    20    9   18 1   
    21    9   19 1   
@<TRIPOS>SUBSTRUCTURE
     1 XRG         1 TEMP              0 ****  ****    0 ROOT
