@<TRIPOS>MOLECULE
XRG
   19    17     1     0     0
SMALL
bcc


@<TRIPOS>ATOM
      1 CAB        -3.0600   -0.0600   -1.7330 c3        1 XRG      0.069300
      2 NAF        -1.7900   -0.6780   -1.5320 n         1 XRG     -0.545900
      3 CAI        -0.8450   -0.0870   -0.6550 c         1 XRG      0.750100
      4 OAD        -1.2200    0.6630    0.2290 o         1 XRG     -0.637100
      5 NAG         0.5290   -0.4340   -0.7560 n         1 XRG     -0.531100
      6 CAH         1.3630   -0.3710    0.3910 c2        1 XRG      0.281600
      7 NAC         2.3360   -1.2330    0.5410 n1        1 XRG     -0.302000
      8 NAE         1.1400    0.6310    1.3800 nh        1 XRG     -0.730000
      9 CAA         2.1920    1.0060    2.2640 c3        1 XRG      0.177100
     10 HAB        -3.5040   -0.4670   -2.5060 h1        1 XRG      0.049033
     11 HABA       -3.6160   -0.1850   -0.9330 h1        1 XRG      0.049033
     12 HABB       -2.9350    0.8990   -1.8960 h1        1 XRG      0.049033
     13 HNAF       -1.5850   -1.4500   -1.9700 hn        1 XRG      0.296500
     14 HNAG        0.8790   -0.6800   -1.5610 hn        1 XRG      0.309500
     15 HNAC        2.4790   -1.8760   -0.0940 DU        1 XRG      0.159000
     16 HNAE        0.3310    1.0490    1.4310 hn        1 XRG      0.422800
     17 HAA         2.3610    0.2770    2.8990 h1        1 XRG      0.044033
     18 HAAA        1.9340    1.8150    2.7550 h1        1 XRG      0.044033
     19 HAAB        3.0090    1.1840    1.7440 h1        1 XRG      0.044033
@<TRIPOS>BOND
     1    1    2 1   
     2    1   10 1   
     3    1   11 1   
     4    1   12 1   
     5    2    3 1   
     6    2   13 1   
     7    3    4 2   
     8    3    5 1   
     9    5    6 1   
    10    5   14 1   
    11    6    7 2   
    12    6    8 1   
    13    8    9 1   
    14    8   16 1   
    15    9   17 1   
    16    9   18 1   
    17    9   19 1   
@<TRIPOS>SUBSTRUCTURE
     1 XRG         1 TEMP              0 ****  ****    0 ROOT
