@<TRIPOS>MOLECULE
XRJ
   46    46     1     0     0
SMALL
bcc


@<TRIPOS>ATOM
      1 O13         2.3370    0.4700    1.1370 o         1 XRJ     -0.415100
      2 C12         1.7570    0.0510    0.1460 c         1 XRJ      0.547100
      3 N14         0.4030   -0.5870    0.3920 ny        1 XRJ     -0.673800
      4 C15        -0.1230   -0.3450    1.7520 c3        1 XRJ      0.080100
      5 C11         2.2660    0.0970   -1.2610 c3        1 XRJ     -0.156400
      6 C3          1.2690   -0.1920   -2.3680 c3        1 XRJ      0.150500
      7 C4          1.9240    0.0350   -3.7660 c3        1 XRJ      0.093100
      8 O21         3.2660   -0.3960   -3.6820 oh        1 XRJ     -0.605800
      9 C5          1.0680   -0.8430   -4.7130 c3        1 XRJ      0.087100
     10 O20         0.2810   -0.0310   -5.5580 oh        1 XRJ     -0.585800
     11 C6          0.0770   -1.6060   -3.7760 c3        1 XRJ      0.167500
     12 C18        -0.2350   -2.9980   -4.3280 c3        1 XRJ      0.130400
     13 O19         0.9770   -3.6730   -4.6180 oh        1 XRJ     -0.615800
     14 N2          0.5760   -1.4960   -2.3890 n3        1 XRJ     -0.744600
     15 C1          1.3500   -2.6400   -1.9140 c3        1 XRJ      0.124800
     16 C7          0.4800   -3.6990   -1.2250 c3        1 XRJ     -0.095400
     17 C8          1.2410   -4.3650   -0.0980 c3        1 XRJ     -0.083400
     18 C9          0.4240   -5.4700    0.5390 c3        1 XRJ     -0.081400
     19 C10         1.1660   -6.1150    1.6800 c3        1 XRJ     -0.097100
     20 H14         0.4980   -1.6050    0.2350 hn        1 XRJ      0.476300
     21 H111        2.6690    1.1410   -1.4270 hc        1 XRJ      0.143200
     22 H112        3.1620   -0.5890   -1.3310 hc        1 XRJ      0.143200
     23 H151       -0.2450    0.7590    1.9170 hx        1 XRJ      0.110033
     24 H152        0.6010   -0.7450    2.5140 hx        1 XRJ      0.110033
     25 H153       -1.1150   -0.8610    1.8590 hx        1 XRJ      0.110033
     26 H3          0.4340    0.5740   -2.2980 h1        1 XRJ      0.066700
     27 H4          1.8780    1.1170   -4.0590 h1        1 XRJ      0.075700
     28 H21         3.6350   -0.3740   -4.5750 ho        1 XRJ      0.429000
     29 H5          1.7090   -1.5610   -5.2900 h1        1 XRJ      0.089700
     30 H20         0.7900    0.1310   -6.3620 ho        1 XRJ      0.420000
     31 H6         -0.9060   -1.0410   -3.7830 h1        1 XRJ      0.092700
     32 H181       -0.8340   -2.8590   -5.2700 h1        1 XRJ      0.050200
     33 H182       -0.8370   -3.5920   -3.5900 h1        1 XRJ      0.050200
     34 H19         0.7450   -4.4650   -5.1190 ho        1 XRJ      0.423000
     35 H11C        1.9260   -3.1360   -2.7500 h1        1 XRJ      0.059200
     36 H12C        2.1270   -2.2960   -1.1720 h1        1 XRJ      0.059200
     37 H71C        0.1900   -4.4760   -1.9830 hc        1 XRJ      0.051700
     38 H72C       -0.4760   -3.2640   -0.8300 hc        1 XRJ      0.051700
     39 H81C        1.5140   -3.6060    0.6830 hc        1 XRJ      0.035200
     40 H82C        2.2020   -4.7900   -0.4910 hc        1 XRJ      0.035200
     41 H91C        0.1790   -6.2440   -0.2360 hc        1 XRJ      0.044700
     42 H92C       -0.5500   -5.0540    0.9080 hc        1 XRJ      0.044700
     43 H101        0.5480   -6.9300    2.1300 hc        1 XRJ      0.042033
     44 H102        1.3980   -5.3690    2.4770 hc        1 XRJ      0.042033
     45 H103        2.1280   -6.5590    1.3250 hc        1 XRJ      0.042033
     46 H142       -0.2620   -0.2280   -0.3050 hn        1 XRJ      0.476300
@<TRIPOS>BOND
     1    1    2 2   
     2    2    3 1   
     3    2    5 1   
     4    3    4 1   
     5    3   20 1   
     6    3   46 1   
     7    4   23 1   
     8    4   24 1   
     9    4   25 1   
    10    5    6 1   
    11    5   21 1   
    12    5   22 1   
    13    6    7 1   
    14    6   14 1   
    15    6   26 1   
    16    7    8 1   
    17    7    9 1   
    18    7   27 1   
    19    8   28 1   
    20    9   10 1   
    21    9   11 1   
    22    9   29 1   
    23   10   30 1   
    24   11   12 1   
    25   11   14 1   
    26   11   31 1   
    27   12   13 1   
    28   12   32 1   
    29   12   33 1   
    30   13   34 1   
    31   14   15 1   
    32   15   16 1   
    33   15   35 1   
    34   15   36 1   
    35   16   17 1   
    36   16   37 1   
    37   16   38 1   
    38   17   18 1   
    39   17   39 1   
    40   17   40 1   
    41   18   19 1   
    42   18   41 1   
    43   18   42 1   
    44   19   43 1   
    45   19   44 1   
    46   19   45 1   
@<TRIPOS>SUBSTRUCTURE
     1 XRJ         1 TEMP              0 ****  ****    0 ROOT
