@<TRIPOS>MOLECULE
XRJ
   46    46     1     0     0
SMALL
bcc


@<TRIPOS>ATOM
      1 O13         2.1910    0.4540    1.2330 o         1 XRJ     -0.414100
      2 C12         1.6440    0.0460    0.2190 c         1 XRJ      0.547100
      3 N14         0.3080   -0.6440    0.4190 n4        1 XRJ     -0.673800
      4 C15        -0.2540   -0.4560    1.7730 c3        1 XRJ      0.080100
      5 C11         2.1770    0.1530   -1.1760 c3        1 XRJ     -0.157400
      6 C3          1.2160   -0.1440   -2.3110 c3        1 XRJ      0.147500
      7 C4          1.8890    0.1570   -3.6870 c3        1 XRJ      0.127100
      8 O21         3.2570   -0.1730   -3.5800 oh        1 XRJ     -0.608800
      9 C5          1.1400   -0.7700   -4.6740 c3        1 XRJ      0.086100
     10 O20         0.4540    0.0610   -5.5850 oh        1 XRJ     -0.587800
     11 C6          0.1290   -1.5690   -3.7900 c3        1 XRJ      0.135500
     12 C18        -0.1410   -2.9590   -4.3680 c3        1 XRJ      0.129400
     13 O19         1.0900   -3.6000   -4.6460 oh        1 XRJ     -0.611800
     14 N2          0.5770   -1.4750   -2.3830 n3        1 XRJ     -0.741600
     15 C1          1.3850   -2.5990   -1.9170 c3        1 XRJ      0.123800
     16 C7          0.5430   -3.7090   -1.2760 c3        1 XRJ     -0.095400
     17 C8          1.3060   -4.3770   -0.1510 c3        1 XRJ     -0.083400
     18 C9          0.5200   -5.5290    0.4380 c3        1 XRJ     -0.081400
     19 C10         1.2630   -6.1770    1.5770 c3        1 XRJ     -0.097100
     20 H14        -0.3540   -0.2880   -0.2830 hn        1 XRJ      0.475800
     21 H111        3.1030   -0.4930   -1.2460 hc        1 XRJ      0.144200
     22 H112        2.5410    1.2170   -1.3060 hc        1 XRJ      0.144200
     23 H151       -0.4170    0.6380    1.9640 hx        1 XRJ      0.110033
     24 H152       -1.2290   -1.0080    1.8450 hx        1 XRJ      0.110033
     25 H153        0.4680   -0.8520    2.5390 hx        1 XRJ      0.110033
     26 H3          0.3460    0.5820   -2.2360 h1        1 XRJ      0.066700
     27 H4          1.7630    1.2360   -3.9690 h1        1 XRJ      0.086700
     28 H21         3.6550   -0.0300   -4.4490 ho        1 XRJ      0.435000
     29 H5          1.8490   -1.4650   -5.1970 h1        1 XRJ      0.091700
     30 H20         0.1670   -0.4960   -6.3200 ho        1 XRJ      0.422000
     31 H6         -0.8620   -1.0210   -3.8200 h1        1 XRJ      0.083700
     32 H181       -0.7230   -2.8210   -5.3220 h1        1 XRJ      0.044700
     33 H182       -0.7490   -3.5770   -3.6540 h1        1 XRJ      0.044700
     34 H19         0.8810   -4.4350   -5.0840 ho        1 XRJ      0.423000
     35 H11C        1.9990   -3.0510   -2.7510 h1        1 XRJ      0.059200
     36 H12C        2.1310   -2.2440   -1.1490 h1        1 XRJ      0.059200
     37 H71C        0.2990   -4.4740   -2.0610 hc        1 XRJ      0.050700
     38 H72C       -0.4360   -3.3220   -0.8890 hc        1 XRJ      0.050700
     39 H81C        1.5330   -3.6290    0.6550 hc        1 XRJ      0.035700
     40 H82C        2.2910   -4.7530   -0.5350 hc        1 XRJ      0.035700
     41 H91C        0.3210   -6.2910   -0.3630 hc        1 XRJ      0.044700
     42 H92C       -0.4770   -5.1610    0.7960 hc        1 XRJ      0.044700
     43 H101        2.2490   -6.5740    1.2320 hc        1 XRJ      0.042700
     44 H102        1.4490   -5.4440    2.3990 hc        1 XRJ      0.042700
     45 H103        0.6680   -7.0270    1.9910 hc        1 XRJ      0.042700
     46 H142        0.4420   -1.6530    0.2360 hn        1 XRJ      0.475800
@<TRIPOS>BOND
     1    1    2 2   
     2    2    3 1   
     3    2    5 1   
     4    3    4 1   
     5    3   20 1   
     6    3   46 1   
     7    4   23 1   
     8    4   24 1   
     9    4   25 1   
    10    5    6 1   
    11    5   21 1   
    12    5   22 1   
    13    6    7 1   
    14    6   14 1   
    15    6   26 1   
    16    7    8 1   
    17    7    9 1   
    18    7   27 1   
    19    8   28 1   
    20    9   10 1   
    21    9   11 1   
    22    9   29 1   
    23   10   30 1   
    24   11   12 1   
    25   11   14 1   
    26   11   31 1   
    27   12   13 1   
    28   12   32 1   
    29   12   33 1   
    30   13   34 1   
    31   14   15 1   
    32   15   16 1   
    33   15   35 1   
    34   15   36 1   
    35   16   17 1   
    36   16   37 1   
    37   16   38 1   
    38   17   18 1   
    39   17   39 1   
    40   17   40 1   
    41   18   19 1   
    42   18   41 1   
    43   18   42 1   
    44   19   43 1   
    45   19   44 1   
    46   19   45 1   
@<TRIPOS>SUBSTRUCTURE
     1 XRJ         1 TEMP              0 ****  ****    0 ROOT
