@<TRIPOS>MOLECULE
XRO
   34    35     1     0     0
SMALL
bcc


@<TRIPOS>ATOM
      1 OAB         0.0720   -0.1060    0.2030 o         1 XRO     -0.794300
      2 CAP         1.2830   -0.4450    0.2030 c         1 XRO      0.921800
      3 OAE         1.9260   -0.9240    1.1670 o         1 XRO     -0.794300
      4 CAS         2.0380   -0.2710   -1.1510 cc        1 XRO      0.044400
      5 NAN         1.2760   -0.5120   -2.2840 n         1 XRO     -0.436100
      6 CAU         1.7870   -0.3370   -3.5760 c         1 XRO      0.791500
      7 OAC         1.0740   -0.5250   -4.5930 o         1 XRO     -0.694500
      8 NAO         3.1320    0.0370   -3.7050 n         1 XRO     -0.592500
      9 CAV         3.9590    0.2840   -2.5900 c         1 XRO      0.716700
     10 OAD         5.1330    0.6360   -2.8220 o         1 XRO     -0.667500
     11 CAT         3.3540    0.1070   -1.2650 cd        1 XRO     -0.293400
     12 CAM         4.2220    0.3630   -0.0890 c3        1 XRO      0.009800
     13 CAL         4.9410   -0.9040    0.3550 c3        1 XRO     -0.042100
     14 CAR         5.5520   -0.7410    1.7020 ca        1 XRO     -0.047300
     15 CAI         6.9380   -0.6740    1.8730 ca        1 XRO     -0.127000
     16 CAG         7.4870   -0.5450    3.1480 ca        1 XRO     -0.129500
     17 CAQ         6.6560   -0.4780    4.2690 ca        1 XRO     -0.119300
     18 CAK         7.2200   -0.3910    5.6450 c3        1 XRO      0.030000
     19 CAF         8.3900    0.4570    5.7370 c1        1 XRO      0.229700
     20 NAA         9.3290    1.1370    5.8300 n1        1 XRO     -0.403800
     21 CAH         5.2660   -0.5370    4.0990 ca        1 XRO     -0.129500
     22 CAJ         4.7170   -0.6700    2.8280 ca        1 XRO     -0.127000
     23 H2          3.4920    0.1500   -4.6250 hn        1 XRO      0.331500
     24 H4          4.9770    1.1530   -0.3450 hc        1 XRO      0.058700
     25 H5          3.5880    0.7350    0.7620 hc        1 XRO      0.058700
     26 H6          4.1830   -1.7360    0.4060 hc        1 XRO      0.060700
     27 H7          5.7200   -1.1790   -0.4020 hc        1 XRO      0.060700
     28 H8          7.6000   -0.7200    0.9950 ha        1 XRO      0.163000
     29 H9          8.5790   -0.4920    3.2710 ha        1 XRO      0.122500
     30 H10         6.4410    0.0030    6.3580 hc        1 XRO      0.072200
     31 H11         7.5040   -1.4260    5.9920 hc        1 XRO      0.072200
     32 H12         4.6030   -0.4780    4.9750 ha        1 XRO      0.122500
     33 H13         3.6200   -0.7230    2.6810 ha        1 XRO      0.163000
     34 H14         0.2940   -0.6660   -2.1740 hn        1 XRO      0.366500
@<TRIPOS>BOND
     1    1    2 1   
     2    2    3 1   
     3    2    4 1   
     4    4    5 1   
     5    4   11 2   
     6    5    6 1   
     7    5   34 1   
     8    6    7 2   
     9    6    8 1   
    10    8    9 1   
    11    8   23 1   
    12    9   10 2   
    13    9   11 1   
    14   11   12 1   
    15   12   13 1   
    16   12   24 1   
    17   12   25 1   
    18   13   14 1   
    19   13   26 1   
    20   13   27 1   
    21   14   15 ar  
    22   14   22 ar  
    23   15   16 ar  
    24   15   28 1   
    25   16   17 ar  
    26   16   29 1   
    27   17   18 1   
    28   17   21 ar  
    29   18   19 1   
    30   18   30 1   
    31   18   31 1   
    32   19   20 3   
    33   21   22 ar  
    34   21   32 1   
    35   22   33 1   
@<TRIPOS>SUBSTRUCTURE
     1 XRO         1 TEMP              0 ****  ****    0 ROOT
