@<TRIPOS>MOLECULE
XRO
   34    35     1     0     0
SMALL
bcc


@<TRIPOS>ATOM
      1 OAB        -2.6590   -3.1730    0.0400 o         1 XRO     -0.794300
      2 CAP        -1.9790   -2.1690   -0.2950 c         1 XRO      0.921800
      3 OAE        -0.8310   -2.1780   -0.7990 o         1 XRO     -0.794300
      4 CAS        -2.6600   -0.7830   -0.0780 cc        1 XRO      0.044400
      5 NAN        -4.0310   -0.7630   -0.2880 n         1 XRO     -0.436100
      6 CAU        -4.8000    0.3880   -0.0730 c         1 XRO      0.791500
      7 OAC        -6.0460    0.3830   -0.2340 o         1 XRO     -0.694500
      8 NAO        -4.1340    1.5610    0.3090 n         1 XRO     -0.592500
      9 CAV        -2.7410    1.6030    0.5270 c         1 XRO      0.716700
     10 OAD        -2.2570    2.6950    0.8900 o         1 XRO     -0.667500
     11 CAT        -1.9990    0.3570    0.3090 cd        1 XRO     -0.293400
     12 CAM        -0.5330    0.3990    0.5330 c3        1 XRO      0.009800
     13 CAL         0.2140    0.7640   -0.7440 c3        1 XRO     -0.042100
     14 CAR         1.6720    0.4990   -0.6180 ca        1 XRO     -0.047300
     15 CAI         2.6010    1.5420   -0.5500 ca        1 XRO     -0.127000
     16 CAG         3.9650    1.2680   -0.4570 ca        1 XRO     -0.129500
     17 CAQ         4.4170   -0.0540   -0.4260 ca        1 XRO     -0.119300
     18 CAK         5.8720   -0.3720   -0.3770 c3        1 XRO      0.030000
     19 CAF         6.6300    0.5220    0.4720 c1        1 XRO      0.229700
     20 NAA         7.2550    1.2290    1.1530 n1        1 XRO     -0.403800
     21 CAH         3.4870   -1.1000   -0.4850 ca        1 XRO     -0.129500
     22 CAJ         2.1270   -0.8280   -0.5830 ca        1 XRO     -0.127000
     23 H2         -4.6840    2.3770    0.4500 hn        1 XRO      0.331500
     24 H4         -0.2980    1.1500    1.3330 hc        1 XRO      0.058700
     25 H5         -0.1840   -0.6130    0.8780 hc        1 XRO      0.058700
     26 H6         -0.1930    0.1280   -1.5790 hc        1 XRO      0.060700
     27 H7          0.0270    1.8410   -0.9930 hc        1 XRO      0.060700
     28 H8          2.2540    2.5860   -0.5680 ha        1 XRO      0.163000
     29 H9          4.6870    2.0960   -0.4030 ha        1 XRO      0.122500
     30 H10         6.0250   -1.4260   -0.0070 hc        1 XRO      0.072200
     31 H11         6.2950   -0.3160   -1.4210 hc        1 XRO      0.072200
     32 H12         3.8320   -2.1440   -0.4550 ha        1 XRO      0.122500
     33 H13         1.3810   -1.6470   -0.6360 ha        1 XRO      0.163000
     34 H14        -4.5010   -1.6300   -0.4500 hn        1 XRO      0.366500
@<TRIPOS>BOND
     1    1    2 1   
     2    2    3 1   
     3    2    4 1   
     4    4    5 1   
     5    4   11 2   
     6    5    6 1   
     7    5   34 1   
     8    6    7 2   
     9    6    8 1   
    10    8    9 1   
    11    8   23 1   
    12    9   10 2   
    13    9   11 1   
    14   11   12 1   
    15   12   13 1   
    16   12   24 1   
    17   12   25 1   
    18   13   14 1   
    19   13   26 1   
    20   13   27 1   
    21   14   15 ar  
    22   14   22 ar  
    23   15   16 ar  
    24   15   28 1   
    25   16   17 ar  
    26   16   29 1   
    27   17   18 1   
    28   17   21 ar  
    29   18   19 1   
    30   18   30 1   
    31   18   31 1   
    32   19   20 3   
    33   21   22 ar  
    34   21   32 1   
    35   22   33 1   
@<TRIPOS>SUBSTRUCTURE
     1 XRO         1 TEMP              0 ****  ****    0 ROOT
