@<TRIPOS>MOLECULE
XRO
   34    35     1     0     0
SMALL
bcc


@<TRIPOS>ATOM
      1 OAB         0.0950   -0.1710    0.1900 o         1 XRO     -0.794300
      2 CAP         1.3110   -0.4900    0.1930 c         1 XRO      0.921800
      3 OAE         1.9570   -0.9640    1.1580 o         1 XRO     -0.794300
      4 CAS         2.0710   -0.2950   -1.1550 cc        1 XRO      0.044400
      5 NAN         1.3180   -0.5410   -2.2940 n         1 XRO     -0.436100
      6 CAU         1.8330   -0.3490   -3.5820 c         1 XRO      0.791500
      7 OAC         1.1290   -0.5430   -4.6040 o         1 XRO     -0.694500
      8 NAO         3.1730    0.0470   -3.7010 n         1 XRO     -0.592500
      9 CAV         3.9900    0.3010   -2.5800 c         1 XRO      0.716700
     10 OAD         5.1600    0.6730   -2.8040 o         1 XRO     -0.667500
     11 CAT         3.3810    0.1060   -1.2600 cd        1 XRO     -0.293400
     12 CAM         4.2380    0.3680   -0.0780 c3        1 XRO      0.009800
     13 CAL         4.9760   -0.8890    0.3630 c3        1 XRO     -0.042100
     14 CAR         5.5770   -0.7240    1.7140 ca        1 XRO     -0.047300
     15 CAI         6.9610   -0.6340    1.8920 ca        1 XRO     -0.127000
     16 CAG         7.5010   -0.5050    3.1710 ca        1 XRO     -0.129500
     17 CAQ         6.6630   -0.4590    4.2870 ca        1 XRO     -0.119300
     18 CAK         7.2190   -0.3710    5.6670 c3        1 XRO      0.030000
     19 CAF         8.3690    0.5030    5.7710 c1        1 XRO      0.229700
     20 NAA         9.2920    1.2040    5.8740 n1        1 XRO     -0.403800
     21 CAH         5.2760   -0.5400    4.1100 ca        1 XRO     -0.129500
     22 CAJ         4.7360   -0.6750    2.8360 ca        1 XRO     -0.127000
     23 H2          3.5360    0.1710   -4.6190 hn        1 XRO      0.331500
     24 H4          4.9810    1.1730   -0.3250 hc        1 XRO      0.058700
     25 H5          3.5930    0.7250    0.7720 hc        1 XRO      0.058700
     26 H6          4.2320   -1.7330    0.4040 hc        1 XRO      0.060700
     27 H7          5.7640   -1.1460   -0.3930 hc        1 XRO      0.060700
     28 H8          7.6280   -0.6640    1.0180 ha        1 XRO      0.163000
     29 H9          8.5910   -0.4340    3.3000 ha        1 XRO      0.122500
     30 H10         6.4280   -0.0010    6.3800 hc        1 XRO      0.072200
     31 H11         7.5250   -1.4030    6.0070 hc        1 XRO      0.072200
     32 H12         4.6070   -0.4990    4.9830 ha        1 XRO      0.122500
     33 H13         3.6400   -0.7450    2.6830 ha        1 XRO      0.163000
     34 H14         0.3390   -0.7130   -2.1900 hn        1 XRO      0.366500
@<TRIPOS>BOND
     1    1    2 1   
     2    2    3 1   
     3    2    4 1   
     4    4    5 1   
     5    4   11 2   
     6    5    6 1   
     7    5   34 1   
     8    6    7 2   
     9    6    8 1   
    10    8    9 1   
    11    8   23 1   
    12    9   10 2   
    13    9   11 1   
    14   11   12 1   
    15   12   13 1   
    16   12   24 1   
    17   12   25 1   
    18   13   14 1   
    19   13   26 1   
    20   13   27 1   
    21   14   15 ar  
    22   14   22 ar  
    23   15   16 ar  
    24   15   28 1   
    25   16   17 ar  
    26   16   29 1   
    27   17   18 1   
    28   17   21 ar  
    29   18   19 1   
    30   18   30 1   
    31   18   31 1   
    32   19   20 3   
    33   21   22 ar  
    34   21   32 1   
    35   22   33 1   
@<TRIPOS>SUBSTRUCTURE
     1 XRO         1 TEMP              0 ****  ****    0 ROOT
