@<TRIPOS>MOLECULE
XRO
   34    35     1     0     0
SMALL
bcc


@<TRIPOS>ATOM
      1 OAB         0.0730   -0.1300    0.1960 o         1 XRO     -0.794300
      2 CAP         1.2850   -0.4640    0.1970 c         1 XRO      0.921800
      3 OAE         1.9290   -0.9370    1.1640 o         1 XRO     -0.794300
      4 CAS         2.0410   -0.2880   -1.1550 cc        1 XRO      0.044400
      5 NAN         1.2820   -0.5340   -2.2890 ns        1 XRO     -0.436100
      6 CAU         1.7940   -0.3590   -3.5810 c         1 XRO      0.791500
      7 OAC         1.0850   -0.5520   -4.5990 o         1 XRO     -0.694500
      8 NAO         3.1380    0.0220   -3.7080 ns        1 XRO     -0.592500
      9 CAV         3.9620    0.2750   -2.5920 c         1 XRO      0.716700
     10 OAD         5.1350    0.6320   -2.8230 o         1 XRO     -0.667500
     11 CAT         3.3550    0.0970   -1.2680 cd        1 XRO     -0.293400
     12 CAM         4.2200    0.3590   -0.0910 c3        1 XRO      0.009800
     13 CAL         4.9450   -0.9030    0.3570 c3        1 XRO     -0.042100
     14 CAR         5.5530   -0.7350    1.7040 ca        1 XRO     -0.047300
     15 CAI         6.9380   -0.6600    1.8770 ca        1 XRO     -0.127000
     16 CAG         7.4850   -0.5270    3.1530 ca        1 XRO     -0.129500
     17 CAQ         6.6510   -0.4620    4.2720 ca        1 XRO     -0.119300
     18 CAK         7.2130   -0.3690    5.6490 c3        1 XRO      0.030000
     19 CAF         8.3780    0.4860    5.7420 c1        1 XRO      0.229700
     20 NAA         9.3120    1.1720    5.8350 n1        1 XRO     -0.403800
     21 CAH         5.2620   -0.5280    4.1010 ca        1 XRO     -0.129500
     22 CAJ         4.7160   -0.6660    2.8290 ca        1 XRO     -0.127000
     23 H2          3.4990    0.1340   -4.6280 hn        1 XRO      0.331500
     24 H4          4.9710    1.1530   -0.3470 hc        1 XRO      0.058700
     25 H5          3.5830    0.7300    0.7590 hc        1 XRO      0.058700
     26 H6          4.1910   -1.7390    0.4080 hc        1 XRO      0.060700
     27 H7          5.7270   -1.1760   -0.3990 hc        1 XRO      0.060700
     28 H8          7.6020   -0.7050    1.0010 ha        1 XRO      0.163000
     29 H9          8.5760   -0.4680    3.2770 ha        1 XRO      0.122500
     30 H10         6.4310    0.0210    6.3610 hc        1 XRO      0.072200
     31 H11         7.5020   -1.4030    5.9980 hc        1 XRO      0.072200
     32 H12         4.5970   -0.4720    4.9750 ha        1 XRO      0.122500
     33 H13         3.6190   -0.7250    2.6800 ha        1 XRO      0.163000
     34 H14         0.3010   -0.6940   -2.1800 hn        1 XRO      0.366500
@<TRIPOS>BOND
     1    1    2 1   
     2    2    3 1   
     3    2    4 1   
     4    4    5 1   
     5    4   11 2   
     6    5    6 1   
     7    5   34 1   
     8    6    7 2   
     9    6    8 1   
    10    8    9 1   
    11    8   23 1   
    12    9   10 2   
    13    9   11 1   
    14   11   12 1   
    15   12   13 1   
    16   12   24 1   
    17   12   25 1   
    18   13   14 1   
    19   13   26 1   
    20   13   27 1   
    21   14   15 ar  
    22   14   22 ar  
    23   15   16 ar  
    24   15   28 1   
    25   16   17 ar  
    26   16   29 1   
    27   17   18 1   
    28   17   21 ar  
    29   18   19 1   
    30   18   30 1   
    31   18   31 1   
    32   19   20 3   
    33   21   22 ar  
    34   21   32 1   
    35   22   33 1   
@<TRIPOS>SUBSTRUCTURE
     1 XRO         1 TEMP              0 ****  ****    0 ROOT
