@<TRIPOS>MOLECULE
XRS
   33    29     1     0     0
SMALL
bcc


@<TRIPOS>ATOM
      1 C10         1.1370   -0.6120    2.3870 c1        1 XRS      0.079000
      2 N13         1.6580   -1.7830    2.0160 n2        1 XRS     -0.166500
      3 C9          1.9320   -2.4870    3.1250 c1        1 XRS     -0.169000
      4 C8          1.5760   -1.7440    4.1900 c1        1 XRS     -0.169000
      5 N12         1.0850   -0.5880    3.7390 n2        1 XRS     -0.166500
      6 O14         0.8190    0.4670    1.5240 o         1 XRS     -0.195000
      7 C6         -0.1030    0.1440    0.5270 c3        1 XRS     -0.012000
      8 C5          0.4260    0.6500   -0.8490 c3        1 XRS     -0.192000
      9 C4         -0.7450    0.7770   -1.8320 c3        1 XRS     -0.003000
     10 N11        -0.4550    0.0910   -2.9870 n3        1 XRS     -0.269000
     11 C3         -0.9750    2.2570   -2.1630 c3        1 XRS     -0.219000
     12 C2         -1.3560    0.5290   -4.0530 c3        1 XRS     -0.116500
     13 C1         -0.6260   -1.3180   -2.7620 c3        1 XRS     -0.116500
     14 C7          0.6360    0.4870    4.5310 c2        1 XRS     -0.072000
     15 H9          2.3280   -3.3970    3.1550 DU        1 XRS      0.178000
     16 H8          1.6640   -2.0150    5.1530 DU        1 XRS      0.178000
     17 H71C        0.6160    0.2120    5.4730 ha        1 XRS      0.095333
     18 H72C        1.2360    1.2390    4.4260 ha        1 XRS      0.095333
     19 H73C       -0.2790    0.7510    4.2440 ha        1 XRS      0.095333
     20 H61C       -0.9870    0.5860    0.7320 h1        1 XRS      0.106000
     21 H62C       -0.2250   -0.8450    0.4940 h1        1 XRS      0.106000
     22 H51C        0.8430    1.5060   -0.7360 hc        1 XRS      0.103000
     23 H52C        1.0910    0.0030   -1.2070 hc        1 XRS      0.103000
     24 H4         -1.5510    0.4050   -1.4270 h1        1 XRS      0.065000
     25 H31C       -1.8860    2.3720   -2.5730 hc        1 XRS      0.079000
     26 H32C       -0.9150    2.7850   -1.3480 hc        1 XRS      0.079000
     27 H33C       -0.2810    2.5630   -2.8080 hc        1 XRS      0.079000
     28 H21C       -2.2730    0.6330   -3.6890 h1        1 XRS      0.070667
     29 H22C       -1.3650   -0.1200   -4.7510 h1        1 XRS      0.070667
     30 H23C       -1.0440    1.3920   -4.4110 h1        1 XRS      0.070667
     31 H11C       -1.5940   -1.5240   -2.6760 h1        1 XRS      0.070667
     32 H12C       -0.1450   -1.5850   -1.9090 h1        1 XRS      0.070667
     33 H13C       -0.2440   -1.8300   -3.5350 h1        1 XRS      0.070667
@<TRIPOS>BOND
     1    1    2 1   
     2    1    5 1   
     3    2    3 1   
     4    3    4 1   
     5    4    5 1   
     6    6    7 1   
     7    7    8 1   
     8    7   20 1   
     9    7   21 1   
    10    8    9 1   
    11    8   22 1   
    12    8   23 1   
    13    9   10 1   
    14    9   11 1   
    15    9   24 1   
    16   10   12 1   
    17   10   13 1   
    18   11   25 1   
    19   11   26 1   
    20   11   27 1   
    21   12   28 1   
    22   12   29 1   
    23   12   30 1   
    24   13   31 1   
    25   13   32 1   
    26   13   33 1   
    27   14   17 1   
    28   14   18 1   
    29   14   19 1   
@<TRIPOS>SUBSTRUCTURE
     1 XRS         1 TEMP              0 ****  ****    0 ROOT
