@<TRIPOS>MOLECULE
XRS
   34    34     1     0     0
SMALL
bcc


@<TRIPOS>ATOM
      1 C10         0.1390    0.2600   -0.2320 cc        1 XRS      0.572800
      2 N13         1.4760    0.5210   -0.3010 nd        1 XRS     -0.720000
      3 C9          1.9210    0.4170    1.0160 cd        1 XRS      0.314200
      4 C8          0.8560    0.0920    1.8750 cc        1 XRS     -0.241600
      5 N12        -0.2900   -0.0260    1.0760 na        1 XRS     -0.184900
      6 O14        -0.7930    0.2400   -1.2620 os        1 XRS     -0.429100
      7 C6         -0.1790    0.3160   -2.5590 c3        1 XRS      0.137400
      8 C5         -1.3290    0.2660   -3.5500 c3        1 XRS     -0.121400
      9 C4         -0.8840   -0.1220   -4.9580 c3        1 XRS      0.137500
     10 N11         0.0140    0.8970   -5.6480 n4        1 XRS     -0.682400
     11 C3         -2.1190   -0.4010   -5.8120 c3        1 XRS     -0.136100
     12 C2          1.4520    0.6670   -5.3530 c3        1 XRS      0.077600
     13 C1         -0.3680    2.3010   -5.3620 c3        1 XRS      0.077600
     14 C7         -1.6250   -0.2650    1.5150 c3        1 XRS      0.022600
     15 H9          2.9680    0.5790    1.2720 h4        1 XRS      0.054100
     16 H8          0.8210   -0.0650    2.9520 h4        1 XRS      0.194000
     17 H71C       -2.0780    0.6820    1.9190 h1        1 XRS      0.064033
     18 H72C       -1.6180   -1.0420    2.3260 h1        1 XRS      0.064033
     19 H73C       -2.2430   -0.6270    0.6510 h1        1 XRS      0.064033
     20 H61C        0.5190   -0.5520   -2.6910 h1        1 XRS      0.055200
     21 H62C        0.3890    1.2810   -2.6350 h1        1 XRS      0.055200
     22 H51C       -1.8860    1.2380   -3.5480 hc        1 XRS      0.097200
     23 H52C       -2.0590   -0.5220   -3.2080 hc        1 XRS      0.097200
     24 H4         -0.2670   -1.0710   -4.8920 hx        1 XRS      0.106700
     25 H31C       -1.8450   -0.7250   -6.8460 hc        1 XRS      0.078700
     26 H32C       -2.7860    0.4930   -5.8700 hc        1 XRS      0.078700
     27 H33C       -2.6930   -1.2360   -5.3350 hc        1 XRS      0.078700
     28 H21C        1.6460    0.7830   -4.2530 hx        1 XRS      0.107367
     29 H22C        1.7390   -0.3700   -5.6750 hx        1 XRS      0.107367
     30 H23C        2.0670    1.4180   -5.9180 hx        1 XRS      0.107367
     31 H11C        0.2140    2.9860   -6.0360 hx        1 XRS      0.107367
     32 H12C       -0.1370    2.5530   -4.2920 hx        1 XRS      0.107367
     33 H13C       -1.4680    2.4320   -5.5500 hx        1 XRS      0.107367
     34 H111       -0.1160    0.7470   -6.6610 hn        1 XRS      0.446800
@<TRIPOS>BOND
     1    1    2 2   
     2    1    5 1   
     3    1    6 1   
     4    2    3 1   
     5    3    4 2   
     6    3   15 1   
     7    4    5 1   
     8    4   16 1   
     9    5   14 1   
    10    6    7 1   
    11    7    8 1   
    12    7   20 1   
    13    7   21 1   
    14    8    9 1   
    15    8   22 1   
    16    8   23 1   
    17    9   10 1   
    18    9   11 1   
    19    9   24 1   
    20   10   12 1   
    21   10   13 1   
    22   10   34 1   
    23   11   25 1   
    24   11   26 1   
    25   11   27 1   
    26   12   28 1   
    27   12   29 1   
    28   12   30 1   
    29   13   31 1   
    30   13   32 1   
    31   13   33 1   
    32   14   17 1   
    33   14   18 1   
    34   14   19 1   
@<TRIPOS>SUBSTRUCTURE
     1 XRS         1 TEMP              0 ****  ****    0 ROOT
