@<TRIPOS>MOLECULE
XRS
   33    33     1     0     0
SMALL
bcc


@<TRIPOS>ATOM
      1 C10         2.0790   -0.1520    0.2640 cc        1 XRS      0.612800
      2 N13         2.2170   -1.4710    0.5820 nd        1 XRS     -0.708000
      3 C9          3.5670   -1.7480    0.3590 cd        1 XRS      0.309200
      4 C8          4.2440   -0.6050   -0.0910 cc        1 XRS     -0.271600
      5 N12         3.2900    0.4200   -0.1790 na        1 XRS     -0.208900
      6 O14         0.9640    0.6530    0.3250 os        1 XRS     -0.451100
      7 C6         -0.2850   -0.0790    0.3440 c3        1 XRS      0.151400
      8 C5         -1.3610    0.9900    0.2940 c3        1 XRS     -0.084400
      9 C4         -2.7490    0.3900    0.5650 c3        1 XRS      0.184500
     10 N11        -3.1130   -0.6400   -0.4100 n3        1 XRS     -0.739600
     11 C3         -3.7440    1.5440    0.7020 c3        1 XRS     -0.125100
     12 C2         -4.0890   -1.5790    0.0970 c3        1 XRS      0.157600
     13 C1         -3.4610   -0.1290   -1.7160 c3        1 XRS      0.157600
     14 C7          3.5310    1.7890   -0.4810 c3        1 XRS      0.029600
     15 H9          3.9680   -2.7460    0.5330 h4        1 XRS      0.041100
     16 H8          5.2850   -0.4400   -0.3560 h4        1 XRS      0.176000
     17 H71C        4.0530    2.2970    0.3740 h1        1 XRS      0.054367
     18 H72C        4.1770    1.8640   -1.3970 h1        1 XRS      0.054367
     19 H73C        2.5510    2.3050   -0.6690 h1        1 XRS      0.054367
     20 H61C       -0.3300   -0.7620   -0.5410 h1        1 XRS      0.064700
     21 H62C       -0.3410   -0.6750    1.2910 h1        1 XRS      0.064700
     22 H51C       -1.1550    1.7620    1.0810 hc        1 XRS      0.053700
     23 H52C       -1.3350    1.5090   -0.6980 hc        1 XRS      0.053700
     24 H4         -2.6910   -0.1290    1.5720 h1        1 XRS      0.056700
     25 H31C       -4.7750    1.1570    0.8880 hc        1 XRS      0.040033
     26 H32C       -3.4480    2.1920    1.5610 hc        1 XRS      0.040033
     27 H33C       -3.7590    2.1670   -0.2240 hc        1 XRS      0.040033
     28 H21C       -5.0840   -1.1070    0.3290 h1        1 XRS      0.031700
     29 H22C       -4.2470   -2.3820   -0.6700 h1        1 XRS      0.031700
     30 H23C       -3.6920   -2.0520    1.0330 h1        1 XRS      0.031700
     31 H11C       -2.6530    0.5610   -2.0730 h1        1 XRS      0.031700
     32 H12C       -3.5370   -0.9920   -2.4280 h1        1 XRS      0.031700
     33 H13C       -4.4380    0.4300   -1.7290 h1        1 XRS      0.031700
@<TRIPOS>BOND
     1    1    2 2   
     2    1    5 1   
     3    1    6 1   
     4    2    3 1   
     5    3    4 2   
     6    3   15 1   
     7    4    5 1   
     8    4   16 1   
     9    5   14 1   
    10    6    7 1   
    11    7    8 1   
    12    7   20 1   
    13    7   21 1   
    14    8    9 1   
    15    8   22 1   
    16    8   23 1   
    17    9   10 1   
    18    9   11 1   
    19    9   24 1   
    20   10   12 1   
    21   10   13 1   
    22   11   25 1   
    23   11   26 1   
    24   11   27 1   
    25   12   28 1   
    26   12   29 1   
    27   12   30 1   
    28   13   31 1   
    29   13   32 1   
    30   13   33 1   
    31   14   17 1   
    32   14   18 1   
    33   14   19 1   
@<TRIPOS>SUBSTRUCTURE
     1 XRS         1 TEMP              0 ****  ****    0 ROOT
