@<TRIPOS>MOLECULE
XRS
   34    34     1     0     0
SMALL
bcc


@<TRIPOS>ATOM
      1 C10         0.0910   -0.0020    0.0160 cc        1 XRS      0.571800
      2 N13         1.4410    0.2000    0.0260 nd        1 XRS     -0.720000
      3 C9          1.7970    0.1050    1.3710 cd        1 XRS      0.314200
      4 C8          0.6660   -0.1520    2.1670 cc        1 XRS     -0.241600
      5 N12        -0.4360   -0.2090    1.3020 na        1 XRS     -0.184900
      6 O14        -0.7730   -0.0140   -1.0730 os        1 XRS     -0.426100
      7 C6         -0.1150    0.3290   -2.3010 c3        1 XRS      0.131400
      8 C5         -1.2070    0.3210   -3.3600 c3        1 XRS     -0.129400
      9 C4         -0.6450    0.0750   -4.7610 c3        1 XRS      0.137500
     10 N11         0.3640    1.1430   -5.1580 n4        1 XRS     -0.686400
     11 C3         -1.7910   -0.0570   -5.7540 c3        1 XRS     -0.126100
     12 C2          1.2730    0.6480   -6.2240 c3        1 XRS      0.081600
     13 C1         -0.2820    2.4140   -5.5690 c3        1 XRS      0.081600
     14 C7         -1.7860   -0.5090    1.6450 c3        1 XRS      0.022600
     15 H9          2.8330    0.2240    1.6890 h4        1 XRS      0.055100
     16 H8          0.5570   -0.2880    3.2410 h4        1 XRS      0.194000
     17 H71C       -2.4680   -0.1540    0.8270 h1        1 XRS      0.064033
     18 H72C       -2.0510    0.0070    2.6060 h1        1 XRS      0.064033
     19 H73C       -1.9170   -1.6180    1.7770 h1        1 XRS      0.064033
     20 H61C        0.6760   -0.4380   -2.5200 h1        1 XRS      0.055700
     21 H62C        0.3540    1.3430   -2.1980 h1        1 XRS      0.055700
     22 H51C       -1.7940    1.2740   -3.3170 hc        1 XRS      0.099200
     23 H52C       -1.9280   -0.5150   -3.1370 hc        1 XRS      0.099200
     24 H4         -0.0590   -0.8960   -4.7470 hx        1 XRS      0.106700
     25 H31C       -2.3820   -0.9680   -5.4810 hc        1 XRS      0.077367
     26 H32C       -1.4230   -0.1850   -6.8010 hc        1 XRS      0.077367
     27 H33C       -2.4740    0.8260   -5.7100 hc        1 XRS      0.077367
     28 H21C        2.0030    1.4590   -6.4930 hx        1 XRS      0.105033
     29 H22C        0.6750    0.3680   -7.1320 hx        1 XRS      0.105033
     30 H23C        1.8340   -0.2510   -5.8520 hx        1 XRS      0.105033
     31 H11C       -1.0060    2.7380   -4.7740 hx        1 XRS      0.105033
     32 H12C        0.5060    3.2020   -5.7050 hx        1 XRS      0.105033
     33 H13C       -0.8310    2.2650   -6.5370 hx        1 XRS      0.105033
     34 H111        0.9360    1.3350   -4.3210 hn        1 XRS      0.454800
@<TRIPOS>BOND
     1    1    2 2   
     2    1    5 1   
     3    1    6 1   
     4    2    3 1   
     5    3    4 2   
     6    3   15 1   
     7    4    5 1   
     8    4   16 1   
     9    5   14 1   
    10    6    7 1   
    11    7    8 1   
    12    7   20 1   
    13    7   21 1   
    14    8    9 1   
    15    8   22 1   
    16    8   23 1   
    17    9   10 1   
    18    9   11 1   
    19    9   24 1   
    20   10   12 1   
    21   10   13 1   
    22   10   34 1   
    23   11   25 1   
    24   11   26 1   
    25   11   27 1   
    26   12   28 1   
    27   12   29 1   
    28   12   30 1   
    29   13   31 1   
    30   13   32 1   
    31   13   33 1   
    32   14   17 1   
    33   14   18 1   
    34   14   19 1   
@<TRIPOS>SUBSTRUCTURE
     1 XRS         1 TEMP              0 ****  ****    0 ROOT
