@<TRIPOS>MOLECULE
XRS
   34    34     1     0     0
SMALL
bcc


@<TRIPOS>ATOM
      1 C10         0.0950   -0.0220    0.0120 cc        1 XRS      0.571800
      2 N13         1.4490    0.1500    0.0170 nd        1 XRS     -0.720000
      3 C9          1.8100    0.0420    1.3590 cd        1 XRS      0.314200
      4 C8          0.6780   -0.1940    2.1590 cc        1 XRS     -0.241600
      5 N12        -0.4290   -0.2240    1.3000 na        1 XRS     -0.184900
      6 O14        -0.7740   -0.0110   -1.0720 os        1 XRS     -0.426100
      7 C6         -0.1150    0.3230   -2.3020 c3        1 XRS      0.131400
      8 C5         -1.2120    0.3440   -3.3560 c3        1 XRS     -0.129400
      9 C4         -0.6620    0.0930   -4.7610 c3        1 XRS      0.137500
     10 N11         0.3670    1.1410   -5.1570 nx        1 XRS     -0.686400
     11 C3         -1.8150   -0.0110   -5.7480 c3        1 XRS     -0.126100
     12 C2          1.2610    0.6330   -6.2310 c3        1 XRS      0.081600
     13 C1         -0.2540    2.4270   -5.5590 c3        1 XRS      0.081600
     14 C7         -1.7840   -0.4970    1.6490 c3        1 XRS      0.022600
     15 H9          2.8500    0.1370    1.6720 h4        1 XRS      0.055100
     16 H8          0.5710   -0.3330    3.2340 h4        1 XRS      0.194000
     17 H71C       -1.9380   -1.6030    1.7750 h1        1 XRS      0.064033
     18 H72C       -2.4620   -0.1230    0.8360 h1        1 XRS      0.064033
     19 H73C       -2.0330    0.0200    2.6140 h1        1 XRS      0.064033
     20 H61C        0.6590   -0.4590   -2.5290 h1        1 XRS      0.055700
     21 H62C        0.3760    1.3270   -2.1970 h1        1 XRS      0.055700
     22 H51C       -1.9490   -0.4790   -3.1330 hc        1 XRS      0.099200
     23 H52C       -1.7790    1.3090   -3.3060 hc        1 XRS      0.099200
     24 H4         -0.0960   -0.8910   -4.7540 hx        1 XRS      0.106700
     25 H31C       -2.4240   -0.9110   -5.4770 hc        1 XRS      0.077367
     26 H32C       -2.4790    0.8860   -5.6980 hc        1 XRS      0.077367
     27 H33C       -1.4550   -0.1420   -6.7980 hc        1 XRS      0.077367
     28 H21C        0.6530    0.3690   -7.1370 hx        1 XRS      0.105033
     29 H22C        1.8050   -0.2800   -5.8650 hx        1 XRS      0.105033
     30 H23C        2.0060    1.4290   -6.5000 hx        1 XRS      0.105033
     31 H11C       -0.8100    2.2940   -6.5260 hx        1 XRS      0.105033
     32 H12C        0.5500    3.2000   -5.6960 hx        1 XRS      0.105033
     33 H13C       -0.9680    2.7620   -4.7600 hx        1 XRS      0.105033
     34 H111        0.9470    1.3180   -4.3220 hn        1 XRS      0.454800
@<TRIPOS>BOND
     1    1    2 2   
     2    1    5 1   
     3    1    6 1   
     4    2    3 1   
     5    3    4 2   
     6    3   15 1   
     7    4    5 1   
     8    4   16 1   
     9    5   14 1   
    10    6    7 1   
    11    7    8 1   
    12    7   20 1   
    13    7   21 1   
    14    8    9 1   
    15    8   22 1   
    16    8   23 1   
    17    9   10 1   
    18    9   11 1   
    19    9   24 1   
    20   10   12 1   
    21   10   13 1   
    22   10   34 1   
    23   11   25 1   
    24   11   26 1   
    25   11   27 1   
    26   12   28 1   
    27   12   29 1   
    28   12   30 1   
    29   13   31 1   
    30   13   32 1   
    31   13   33 1   
    32   14   17 1   
    33   14   18 1   
    34   14   19 1   
@<TRIPOS>SUBSTRUCTURE
     1 XRS         1 TEMP              0 ****  ****    0 ROOT
