@<TRIPOS>MOLECULE
XRX
   33    32     1     0     0
SMALL
bcc


@<TRIPOS>ATOM
      1 N1         -2.9960   -0.6360   -0.3900 n3        1 XRX     -0.739600
      2 C2         -0.1050   -0.2190    0.2210 c3        1 XRX      0.157400
      3 O3          1.1890    0.4010    0.0550 os        1 XRX     -0.449900
      4 C4         -3.3580   -0.2100   -1.7220 c3        1 XRX      0.158100
      5 N5          3.5060    0.1800    0.1800 n         1 XRX     -0.434800
      6 O6          2.0430   -1.6530    0.4200 o         1 XRX     -0.585000
      7 C7         -2.5200    0.4410    0.4810 c3        1 XRX      0.183500
      8 C8         -1.1060    0.9140    0.1110 c3        1 XRX     -0.080400
      9 C9          2.2640   -0.4480    0.2110 c         1 XRX      0.730100
     10 C10        -4.0160   -1.4540    0.2290 c3        1 XRX      0.158100
     11 C11        -3.4260    1.6720    0.5550 c3        1 XRX     -0.125100
     12 C12         4.6690   -0.6530    0.0140 c3        1 XRX      0.073800
     13 C13         3.6080    1.5360   -0.2880 c3        1 XRX      0.073800
     14 H41C       -2.5170    0.3840   -2.1640 h1        1 XRX      0.031700
     15 H42C       -3.5250   -1.1220   -2.3540 h1        1 XRX      0.031700
     16 H43C       -4.2920    0.4170   -1.7500 h1        1 XRX      0.031700
     17 H7         -2.4560    0.0030    1.5250 h1        1 XRX      0.055700
     18 H101       -4.2610   -2.3040   -0.4600 h1        1 XRX      0.031700
     19 H102       -3.6170   -1.8750    1.1890 h1        1 XRX      0.031700
     20 H103       -4.9640   -0.8920    0.4520 h1        1 XRX      0.031700
     21 H21C       -0.2380   -0.9880   -0.5820 h1        1 XRX      0.062700
     22 H22C       -0.1440   -0.7190    1.2240 h1        1 XRX      0.062700
     23 H81C       -0.8170    1.7360    0.8170 hc        1 XRX      0.053200
     24 H82C       -1.0830    1.3400   -0.9240 hc        1 XRX      0.053200
     25 H121        4.9690   -0.7280   -1.0670 h1        1 XRX      0.047200
     26 H122        5.5150   -0.1980    0.5940 h1        1 XRX      0.047200
     27 H123        4.4610   -1.6840    0.4070 h1        1 XRX      0.047200
     28 H131        2.7370    2.1340    0.0890 h1        1 XRX      0.047200
     29 H132        4.5600    1.9790    0.1090 h1        1 XRX      0.047200
     30 H133        3.6260    1.5880   -1.4100 h1        1 XRX      0.047200
     31 H111       -4.4720    1.3780    0.8090 hc        1 XRX      0.039700
     32 H112       -3.0500    2.3650    1.3450 hc        1 XRX      0.039700
     33 H113       -3.4350    2.2170   -0.4190 hc        1 XRX      0.039700
@<TRIPOS>BOND
     1    1    4 1   
     2    1    7 1   
     3    1   10 1   
     4    2    3 1   
     5    2    8 1   
     6    2   21 1   
     7    2   22 1   
     8    3    9 1   
     9    4   14 1   
    10    4   15 1   
    11    4   16 1   
    12    5    9 1   
    13    5   12 1   
    14    5   13 1   
    15    6    9 2   
    16    7    8 1   
    17    7   11 1   
    18    7   17 1   
    19    8   23 1   
    20    8   24 1   
    21   10   18 1   
    22   10   19 1   
    23   10   20 1   
    24   11   31 1   
    25   11   32 1   
    26   11   33 1   
    27   12   25 1   
    28   12   26 1   
    29   12   27 1   
    30   13   28 1   
    31   13   29 1   
    32   13   30 1   
@<TRIPOS>SUBSTRUCTURE
     1 XRX         1 TEMP              0 ****  ****    0 ROOT
