@<TRIPOS>MOLECULE
XRX
   35    34     1     0     0
SMALL
bcc


@<TRIPOS>ATOM
      1 N1         -0.0380   -0.8090   -0.6210 n4        1 XRX     -0.682400
      2 C2          1.8970    1.2250    2.0100 c3        1 XRX      0.151400
      3 O3          1.6390    1.3150    3.4440 os        1 XRX     -0.413900
      4 C4         -0.2830   -2.0870    0.0950 c3        1 XRX      0.077600
      5 N5          2.1260    2.2440    5.5670 n4        1 XRX     -0.540200
      6 O6          3.2710    2.9000    3.5550 o         1 XRX     -0.396000
      7 C7          1.0940    0.0000   -0.0100 c3        1 XRX      0.136500
      8 C8          0.9880    0.1110    1.5170 c3        1 XRX     -0.112400
      9 C9          2.4250    2.2100    4.1020 c         1 XRX      0.607100
     10 C10        -1.2890   -0.0130   -0.7240 c3        1 XRX      0.077600
     11 C11         2.4470   -0.5760   -0.4150 c3        1 XRX     -0.142100
     12 C12         1.6670    3.6120    5.9530 c3        1 XRX      0.085100
     13 C13         3.3440    1.8500    6.3360 c3        1 XRX      0.085100
     14 H41C       -0.7150   -1.8800    1.1100 hx        1 XRX      0.110367
     15 H42C        0.6840   -2.6490    0.2000 hx        1 XRX      0.110367
     16 H43C       -1.0120   -2.7070   -0.4960 hx        1 XRX      0.110367
     17 H7          0.9950    1.0380   -0.4580 hx        1 XRX      0.108700
     18 H101       -1.6320    0.2960    0.2980 hx        1 XRX      0.110367
     19 H102       -2.0860   -0.6420   -1.2080 hx        1 XRX      0.110367
     20 H103       -1.1050    0.8990   -1.3550 hx        1 XRX      0.110367
     21 H21C        2.9840    0.9900    1.8640 h1        1 XRX      0.092200
     22 H22C        1.6490    2.2190    1.5530 h1        1 XRX      0.092200
     23 H81C       -0.0660    0.3370    1.8350 hc        1 XRX      0.087700
     24 H82C        1.2890   -0.8590    1.9980 hc        1 XRX      0.087700
     25 H121        1.4810    3.6300    7.0620 hx        1 XRX      0.123033
     26 H122        2.4640    4.3610    5.6890 hx        1 XRX      0.123033
     27 H123        0.7180    3.8540    5.4040 hx        1 XRX      0.123033
     28 H131        3.1130    1.9140    7.4350 hx        1 XRX      0.123033
     29 H132        3.6280    0.7970    6.0670 hx        1 XRX      0.123033
     30 H133        4.1880    2.5510    6.0840 hx        1 XRX      0.123033
     31 H111        3.2490    0.1390   -0.0990 hc        1 XRX      0.085700
     32 H112        2.5310   -0.6980   -1.5250 hc        1 XRX      0.085700
     33 H113        2.6410   -1.5620    0.0730 hc        1 XRX      0.085700
     34 H11         0.2650   -1.0440   -1.5810 hn        1 XRX      0.464800
     35 H51         1.3710    1.5680    5.7630 hn        1 XRX      0.476800
@<TRIPOS>BOND
     1    1    4 1   
     2    1    7 1   
     3    1   10 1   
     4    1   34 1   
     5    2    3 1   
     6    2    8 1   
     7    2   21 1   
     8    2   22 1   
     9    3    9 1   
    10    4   14 1   
    11    4   15 1   
    12    4   16 1   
    13    5    9 1   
    14    5   12 1   
    15    5   13 1   
    16    5   35 1   
    17    6    9 2   
    18    7    8 1   
    19    7   11 1   
    20    7   17 1   
    21    8   23 1   
    22    8   24 1   
    23   10   18 1   
    24   10   19 1   
    25   10   20 1   
    26   11   31 1   
    27   11   32 1   
    28   11   33 1   
    29   12   25 1   
    30   12   26 1   
    31   12   27 1   
    32   13   28 1   
    33   13   29 1   
    34   13   30 1   
@<TRIPOS>SUBSTRUCTURE
     1 XRX         1 TEMP              0 ****  ****    0 ROOT
