@<TRIPOS>MOLECULE
XRX
   35    34     1     0     0
SMALL
bcc


@<TRIPOS>ATOM
      1 N1         -0.0970   -0.0110   -0.2930 nx        1 XRX     -0.685400
      2 C2          1.4080    1.2240    2.2760 c3        1 XRX      0.139400
      3 O3          1.8160    1.1540    3.6740 os        1 XRX     -0.407900
      4 C4         -1.1070   -1.0970   -0.1780 c3        1 XRX      0.079100
      5 N5          2.4930    2.2080    5.6820 nx        1 XRX     -0.539200
      6 O6          1.8850    3.4290    3.6960 o         1 XRX     -0.401000
      7 C7          1.2390   -0.3850    0.3270 c3        1 XRX      0.138500
      8 C8          1.2350   -0.2230    1.8520 c3        1 XRX     -0.130400
      9 C9          2.0410    2.3590    4.2660 c         1 XRX      0.607100
     10 C10         0.0710    0.3880   -1.7180 c3        1 XRX      0.079100
     11 C11         1.6740   -1.8020   -0.0280 c3        1 XRX     -0.129100
     12 C12         1.5240    2.8860    6.5940 c3        1 XRX      0.085100
     13 C13         3.8650    2.7800    5.8330 c3        1 XRX      0.085100
     14 H41C       -2.1080   -0.7050   -0.5090 hx        1 XRX      0.112533
     15 H42C       -1.1710   -1.4430    0.8870 hx        1 XRX      0.112533
     16 H43C       -0.8140   -1.9600   -0.8350 hx        1 XRX      0.112533
     17 H7          1.9910    0.3400   -0.1160 hx        1 XRX      0.107700
     18 H101        0.5210   -0.4620   -2.2990 hx        1 XRX      0.112533
     19 H102       -0.9350    0.6400   -2.1520 hx        1 XRX      0.112533
     20 H103        0.7430    1.2850   -1.7830 hx        1 XRX      0.112533
     21 H21C        0.4570    1.8150    2.2240 h1        1 XRX      0.081700
     22 H22C        2.2200    1.7490    1.7050 h1        1 XRX      0.081700
     23 H81C        2.0980   -0.8250    2.2580 hc        1 XRX      0.106200
     24 H82C        0.3060   -0.6520    2.3140 hc        1 XRX      0.106200
     25 H121        1.4450    3.9730    6.3140 hx        1 XRX      0.123200
     26 H122        0.5200    2.3920    6.5030 hx        1 XRX      0.123200
     27 H123        1.9000    2.7930    7.6510 hx        1 XRX      0.123200
     28 H131        4.5790    2.2100    5.1800 hx        1 XRX      0.123200
     29 H132        4.1760    2.6860    6.9100 hx        1 XRX      0.123200
     30 H133        3.8520    3.8640    5.5350 hx        1 XRX      0.123200
     31 H111        1.6160   -1.9900   -1.1290 hc        1 XRX      0.086367
     32 H112        1.0580   -2.5660    0.5060 hc        1 XRX      0.086367
     33 H113        2.7430   -1.9320    0.2820 hc        1 XRX      0.086367
     34 H11        -0.4530    0.8050    0.2230 hn        1 XRX      0.440800
     35 H51         2.5220    1.2010    5.9100 hn        1 XRX      0.478800
@<TRIPOS>BOND
     1    1    4 1   
     2    1    7 1   
     3    1   10 1   
     4    1   34 1   
     5    2    3 1   
     6    2    8 1   
     7    2   21 1   
     8    2   22 1   
     9    3    9 1   
    10    4   14 1   
    11    4   15 1   
    12    4   16 1   
    13    5    9 1   
    14    5   12 1   
    15    5   13 1   
    16    5   35 1   
    17    6    9 2   
    18    7    8 1   
    19    7   11 1   
    20    7   17 1   
    21    8   23 1   
    22    8   24 1   
    23   10   18 1   
    24   10   19 1   
    25   10   20 1   
    26   11   31 1   
    27   11   32 1   
    28   11   33 1   
    29   12   25 1   
    30   12   26 1   
    31   12   27 1   
    32   13   28 1   
    33   13   29 1   
    34   13   30 1   
@<TRIPOS>SUBSTRUCTURE
     1 XRX         1 TEMP              0 ****  ****    0 ROOT
