@<TRIPOS>MOLECULE
XRX
   35    34     1     0     0
SMALL
bcc


@<TRIPOS>ATOM
      1 N1         -0.1170   -0.0060   -0.2830 n4        1 XRX     -0.685400
      2 C2          1.4010    1.2250    2.2800 c3        1 XRX      0.139400
      3 O3          1.8300    1.1470    3.6710 os        1 XRX     -0.407900
      4 C4         -1.1080   -1.1090   -0.1670 c3        1 XRX      0.079100
      5 N5          2.5160    2.1910    5.6810 n4        1 XRX     -0.539200
      6 O6          1.8540    3.4220    3.7190 o         1 XRX     -0.401000
      7 C7          1.2330   -0.3660    0.3160 c3        1 XRX      0.138500
      8 C8          1.2460   -0.2210    1.8420 c3        1 XRX     -0.130400
      9 C9          2.0400    2.3490    4.2730 c         1 XRX      0.607100
     10 C10         0.0270    0.4100   -1.7060 c3        1 XRX      0.079100
     11 C11         1.6860   -1.7720   -0.0600 c3        1 XRX     -0.129100
     12 C12         1.5460    2.8360    6.6160 c3        1 XRX      0.085100
     13 C13         3.8770    2.7900    5.8200 c3        1 XRX      0.085100
     14 H41C       -2.1190   -0.7300   -0.4820 hx        1 XRX      0.112533
     15 H42C       -0.8100   -1.9610   -0.8370 hx        1 XRX      0.112533
     16 H43C       -1.1530   -1.4670    0.8950 hx        1 XRX      0.112533
     17 H7          1.9680    0.3750   -0.1290 hx        1 XRX      0.107700
     18 H101        0.4830   -0.4270   -2.3010 hx        1 XRX      0.112533
     19 H102        0.6840    1.3180   -1.7700 hx        1 XRX      0.112533
     20 H103       -0.9890    0.6510   -2.1240 hx        1 XRX      0.112533
     21 H21C        0.4380    1.7990    2.2480 h1        1 XRX      0.081700
     22 H22C        2.1950    1.7700    1.7030 h1        1 XRX      0.081700
     23 H81C        2.1240   -0.8120    2.2310 hc        1 XRX      0.106200
     24 H82C        0.3310   -0.6700    2.3110 hc        1 XRX      0.106200
     25 H121        0.5510    2.3220    6.5330 hx        1 XRX      0.123200
     26 H122        1.9400    2.7380    7.6650 hx        1 XRX      0.123200
     27 H123        1.4400    3.9240    6.3500 hx        1 XRX      0.123200
     28 H131        3.8370    3.8780    5.5350 hx        1 XRX      0.123200
     29 H132        4.2060    2.6900    6.8910 hx        1 XRX      0.123200
     30 H133        4.5940    2.2440    5.1490 hx        1 XRX      0.123200
     31 H111        2.7600   -1.8890    0.2350 hc        1 XRX      0.086367
     32 H112        1.0880   -2.5510    0.4730 hc        1 XRX      0.086367
     33 H113        1.6160   -1.9490   -1.1620 hc        1 XRX      0.086367
     34 H11        -0.4780    0.7980    0.2460 hn        1 XRX      0.440800
     35 H51         2.5700    1.1820    5.8960 hn        1 XRX      0.478800
@<TRIPOS>BOND
     1    1    4 1   
     2    1    7 1   
     3    1   10 1   
     4    1   34 1   
     5    2    3 1   
     6    2    8 1   
     7    2   21 1   
     8    2   22 1   
     9    3    9 1   
    10    4   14 1   
    11    4   15 1   
    12    4   16 1   
    13    5    9 1   
    14    5   12 1   
    15    5   13 1   
    16    5   35 1   
    17    6    9 2   
    18    7    8 1   
    19    7   11 1   
    20    7   17 1   
    21    8   23 1   
    22    8   24 1   
    23   10   18 1   
    24   10   19 1   
    25   10   20 1   
    26   11   31 1   
    27   11   32 1   
    28   11   33 1   
    29   12   25 1   
    30   12   26 1   
    31   12   27 1   
    32   13   28 1   
    33   13   29 1   
    34   13   30 1   
@<TRIPOS>SUBSTRUCTURE
     1 XRX         1 TEMP              0 ****  ****    0 ROOT
