@<TRIPOS>MOLECULE
XS6
   38    37     1     0     0
SMALL
bcc


@<TRIPOS>ATOM
      1 C2         -0.0030    0.3070    0.0580 c3        1 XS6      0.104800
      2 C3          1.4820   -0.0440   -0.0580 c3        1 XS6     -0.138400
      3 C4          2.1380    0.1670    1.3090 c3        1 XS6      0.106800
      4 C6          4.2120    0.0710    2.6710 c3        1 XS6      0.106800
      5 C7          5.7050   -0.2460    2.6890 c3        1 XS6     -0.110400
      6 C8          6.2630   -0.0030    4.0830 c3        1 XS6     -0.076400
      7 C9          7.7480   -0.3100    4.1110 c3        1 XS6     -0.087400
      8 C10         8.3280   -0.0630    5.4950 c3        1 XS6     -0.135400
      9 C11         9.7990   -0.3300    5.4890 c         1 XS6      0.582100
     10 N1         -0.7550    0.1410   -1.2180 n4        1 XS6     -0.837600
     11 N5          3.5980   -0.1470    1.3150 n4        1 XS6     -0.765000
     12 N13        10.5410   -0.1190    6.8460 n4        1 XS6     -0.471300
     13 O12        10.5450   -0.6860    4.6010 o         1 XS6     -0.370100
     14 O14         9.8770    0.8280    7.5430 oh        1 XS6     -0.369300
     15 H1         -0.1210    1.3840    0.3840 hx        1 XS6      0.130700
     16 H2         -0.4960   -0.3560    0.8320 hx        1 XS6      0.130700
     17 H3          1.6020   -1.1130   -0.3850 hc        1 XS6      0.095700
     18 H4          1.9740    0.6110   -0.8290 hc        1 XS6      0.095700
     19 H5          1.6410   -0.4940    2.0800 hx        1 XS6      0.124700
     20 H6          2.0170    1.2440    1.6320 hx        1 XS6      0.124700
     21 H7          3.6660   -0.5900    3.4050 hx        1 XS6      0.116700
     22 H8          4.0420    1.1500    2.9550 hx        1 XS6      0.116700
     23 H9          6.2520    0.4020    1.9530 hc        1 XS6      0.080700
     24 H10         5.8810   -1.3180    2.4020 hc        1 XS6      0.080700
     25 H11         5.7270   -0.6520    4.8250 hc        1 XS6      0.069200
     26 H12         6.0920    1.0660    4.3790 hc        1 XS6      0.069200
     27 H13         8.2850    0.3310    3.3610 hc        1 XS6      0.080200
     28 H14         7.9220   -1.3810    3.8180 hc        1 XS6      0.080200
     29 H15         8.1580    1.0060    5.8150 hc        1 XS6      0.122200
     30 H16         7.8320   -0.7240    6.2590 hc        1 XS6      0.122200
     31 H17        -0.3720    0.7500   -1.9520 hn        1 XS6      0.482467
     32 H18        -1.7440    0.3930   -1.0660 hn        1 XS6      0.482467
     33 H20         4.0830    0.4480    0.6300 hn        1 XS6      0.461800
     34 H22        10.5500   -1.0160    7.3670 hn        1 XS6      0.478300
     35 H23        10.3990    1.0710    8.3450 ho        1 XS6      0.493000
     36 H131       -0.7140   -0.8330   -1.5450 hn        1 XS6      0.482467
     37 H52         3.7430   -1.1270    1.0370 hn        1 XS6      0.461800
     38 H132       11.5230    0.1650    6.6500 hn        1 XS6      0.478300
@<TRIPOS>BOND
     1    1    2 1   
     2    1   10 1   
     3    1   15 1   
     4    1   16 1   
     5    2    3 1   
     6    2   17 1   
     7    2   18 1   
     8    3   11 1   
     9    3   19 1   
    10    3   20 1   
    11    4    5 1   
    12    4   11 1   
    13    4   21 1   
    14    4   22 1   
    15    5    6 1   
    16    5   23 1   
    17    5   24 1   
    18    6    7 1   
    19    6   25 1   
    20    6   26 1   
    21    7    8 1   
    22    7   27 1   
    23    7   28 1   
    24    8    9 1   
    25    8   29 1   
    26    8   30 1   
    27    9   12 1   
    28    9   13 2   
    29   10   31 1   
    30   10   32 1   
    31   10   36 1   
    32   11   33 1   
    33   11   37 1   
    34   12   14 1   
    35   12   34 1   
    36   12   38 1   
    37   14   35 1   
@<TRIPOS>SUBSTRUCTURE
     1 XS6         1 TEMP              0 ****  ****    0 ROOT
