@<TRIPOS>MOLECULE
XS6
   38    37     1     0     0
SMALL
bcc


@<TRIPOS>ATOM
      1 C2         -0.0050   -0.3030    0.0600 c3        1 XS6      0.104800
      2 C3          1.4830    0.0310   -0.0600 c3        1 XS6     -0.138400
      3 C4          2.1360   -0.1640    1.3100 c3        1 XS6      0.106800
      4 C6          4.2110   -0.0670    2.6710 c3        1 XS6      0.106800
      5 C7          5.7070    0.2370    2.6860 c3        1 XS6     -0.110400
      6 C8          6.2610    0.0090    4.0830 c3        1 XS6     -0.076400
      7 C9          7.7500    0.3040    4.1080 c3        1 XS6     -0.087400
      8 C10         8.3260    0.0720    5.4960 c3        1 XS6     -0.135400
      9 C11         9.8000    0.3260    5.4870 c         1 XS6      0.582100
     10 N1         -0.7540   -0.1500   -1.2180 nz        1 XS6     -0.837600
     11 N5          3.6000    0.1360    1.3120 ny        1 XS6     -0.765000
     12 N13        10.5390    0.1280    6.8470 ny        1 XS6     -0.471300
     13 O12        10.5500    0.6630    4.5950 o         1 XS6     -0.370100
     14 O14         9.8670   -0.8030    7.5570 oh        1 XS6     -0.369300
     15 H1         -0.1340   -1.3730    0.4030 hx        1 XS6      0.130700
     16 H2         -0.4920    0.3770    0.8230 hx        1 XS6      0.130700
     17 H3          1.9690   -0.6400   -0.8210 hc        1 XS6      0.095700
     18 H4          1.6140    1.0940   -0.4050 hc        1 XS6      0.095700
     19 H5          2.0050   -1.2340    1.6510 hx        1 XS6      0.124700
     20 H6          1.6460    0.5140    2.0700 hx        1 XS6      0.124700
     21 H7          4.0300   -1.1390    2.9730 hx        1 XS6      0.116700
     22 H8          3.6710    0.6110    3.3950 hx        1 XS6      0.116700
     23 H9          6.2480   -0.4280    1.9600 hc        1 XS6      0.080700
     24 H10         5.8940    1.3020    2.3820 hc        1 XS6      0.080700
     25 H11         6.0800   -1.0530    4.3960 hc        1 XS6      0.069200
     26 H12         5.7310    0.6750    4.8160 hc        1 XS6      0.069200
     27 H13         7.9340    1.3680    3.7990 hc        1 XS6      0.080200
     28 H14         8.2810   -0.3540    3.3680 hc        1 XS6      0.080200
     29 H15         7.8360    0.7490    6.2500 hc        1 XS6      0.122200
     30 H16         8.1470   -0.9900    5.8320 hc        1 XS6      0.122200
     31 H17        -1.7460   -0.3900   -1.0640 hn        1 XS6      0.482467
     32 H18        -0.3780   -0.7750   -1.9430 hn        1 XS6      0.482467
     33 H20         3.7540    1.1100    1.0180 hn        1 XS6      0.461800
     34 H22        10.5550    1.0320    7.3560 hn        1 XS6      0.478300
     35 H23        10.3870   -1.0400    8.3630 ho        1 XS6      0.493000
     36 H131       -0.7040    0.8180   -1.5610 hn        1 XS6      0.482467
     37 H52         4.0790   -0.4750    0.6360 hn        1 XS6      0.461800
     38 H132       11.5180   -0.1670    6.6570 hn        1 XS6      0.478300
@<TRIPOS>BOND
     1    1    2 1   
     2    1   10 1   
     3    1   15 1   
     4    1   16 1   
     5    2    3 1   
     6    2   17 1   
     7    2   18 1   
     8    3   11 1   
     9    3   19 1   
    10    3   20 1   
    11    4    5 1   
    12    4   11 1   
    13    4   21 1   
    14    4   22 1   
    15    5    6 1   
    16    5   23 1   
    17    5   24 1   
    18    6    7 1   
    19    6   25 1   
    20    6   26 1   
    21    7    8 1   
    22    7   27 1   
    23    7   28 1   
    24    8    9 1   
    25    8   29 1   
    26    8   30 1   
    27    9   12 1   
    28    9   13 2   
    29   10   31 1   
    30   10   32 1   
    31   10   36 1   
    32   11   33 1   
    33   11   37 1   
    34   12   14 1   
    35   12   34 1   
    36   12   38 1   
    37   14   35 1   
@<TRIPOS>SUBSTRUCTURE
     1 XS6         1 TEMP              0 ****  ****    0 ROOT
