@<TRIPOS>MOLECULE
XSN
   16    15     1     0     0
SMALL
bcc


@<TRIPOS>ATOM
      1 C           1.7120   -0.2570    0.1880 c         1 XSN      0.619100
      2 N           0.8420    1.9410   -0.6140 n3        1 XSN     -0.886800
      3 O           2.7450   -0.1010   -0.5130 o         1 XSN     -0.703100
      4 CA          0.5040    0.7040    0.0690 c3        1 XSN      0.102500
      5 CB         -0.6530   -0.0500   -0.5930 c3        1 XSN     -0.198400
      6 CG         -1.3710   -1.0240    0.3550 c         1 XSN      0.905600
      7 OD1        -2.1380   -1.8770   -0.1700 o         1 XSN     -0.846300
      8 OD2        -1.1810   -0.9340    1.6070 o         1 XSN     -0.846300
      9 N1          1.6500   -1.2530    1.1200 n         1 XSN     -0.652000
     10 HN          1.7280    2.2720   -0.2790 hn        1 XSN      0.336300
     11 HNA         0.9370    1.7670   -1.5970 hn        1 XSN      0.336300
     12 HA          0.1740    0.9810    1.1180 h1        1 XSN      0.103700
     13 HB         -1.4260    0.6810   -0.9450 hc        1 XSN      0.043200
     14 HBA        -0.2860   -0.6160   -1.4840 hc        1 XSN      0.043200
     15 HN1         2.3380   -1.9620    1.1070 hn        1 XSN      0.321000
     16 HN1A        0.7750   -1.4380    1.5720 hn        1 XSN      0.321000
@<TRIPOS>BOND
     1    1    3 2   
     2    1    4 1   
     3    1    9 1   
     4    2    4 1   
     5    2   10 1   
     6    2   11 1   
     7    4    5 1   
     8    4   12 1   
     9    5    6 1   
    10    5   13 1   
    11    5   14 1   
    12    6    7 1   
    13    6    8 1   
    14    9   15 1   
    15    9   16 1   
@<TRIPOS>SUBSTRUCTURE
     1 XSN         1 TEMP              0 ****  ****    0 ROOT
