@<TRIPOS>MOLECULE
XSN
   16    14     1     0     0
SMALL
bcc


@<TRIPOS>ATOM
      1 C          -1.4270    0.1140   -0.2500 c1        1 XSN      0.530500
      2 N           0.5590    1.2750   -0.9200 nh        1 XSN     -0.492100
      3 O          -2.0340    0.9390    0.4020 o         1 XSN     -0.637500
      4 CA          0.0840    0.1140   -0.2500 c2        1 XSN      0.239200
      5 CB          0.5880    0.1140    1.1750 c3        1 XSN     -0.315700
      6 CG          1.9640   -0.5150    1.2240 c         1 XSN      0.910600
      7 OD1         2.9890    0.2150    1.2250 o         1 XSN     -0.842800
      8 OD2         2.0820   -1.7680    1.2650 o         1 XSN     -0.842800
      9 N1         -2.1360   -0.8520   -1.0100 n3        1 XSN     -0.536400
     10 HN          1.1760    1.0340   -1.5470 hn        1 XSN      0.213700
     11 HNA        -0.1400    1.6970   -1.3280 hn        1 XSN      0.213700
     12 HA          0.4100   -0.6840   -0.7100 h4        1 XSN     -0.022200
     13 HB         -0.0240   -0.3990    1.7370 hc        1 XSN      0.034200
     14 HBA         0.6380    1.0320    1.5030 hc        1 XSN      0.034200
     15 HN1        -1.6830   -1.4250   -1.5560 hn        1 XSN      0.256700
     16 HN1A       -3.0460   -0.8910   -0.9620 hn        1 XSN      0.256700
@<TRIPOS>BOND
     1    1    3 2   
     2    1    9 2   
     3    2    4 2   
     4    2   10 1   
     5    2   11 1   
     6    4    5 1   
     7    4   12 1   
     8    5    6 1   
     9    5   13 1   
    10    5   14 1   
    11    6    7 1   
    12    6    8 1   
    13    9   15 1   
    14    9   16 1   
@<TRIPOS>SUBSTRUCTURE
     1 XSN         1 TEMP              0 ****  ****    0 ROOT
