@<TRIPOS>MOLECULE
XSP
   13    10     1     0     0
SMALL
bcc


@<TRIPOS>ATOM
      1 C1         -1.7370    0.1510   -0.4380 c1        1 XSP      0.316000
      2 C2         -0.2260    0.1480   -0.4820 c2        1 XSP      0.054000
      3 C3          0.2580    1.3360   -1.2830 c2        1 XSP      0.239000
      4 P           1.1100   -0.9940    1.3910 p3        1 XSP      2.513000
      5 O1         -2.3400    0.8200    0.4420 o         1 XSP     -0.635500
      6 O2         -2.3930   -0.5160   -1.2810 o         1 XSP     -0.635500
      7 O3          0.3020    2.4380   -0.7710 o         1 XSP     -0.418000
      8 O1P         0.2810    0.2280    0.8280 os        1 XSP     -0.701000
      9 O2P         0.2970   -2.2590    1.2540 o         1 XSP     -1.263500
     10 O3P         1.4310   -0.7570    2.8470 o         1 XSP     -1.263500
     11 O4P         2.3950   -1.1340    0.6090 os        1 XSP     -1.277000
     12 H1          0.0870   -0.6780   -0.9020 h4        1 XSP      0.071000
     13 H2          0.5350    1.2180   -2.2140 h4        1 XSP      0.001000
@<TRIPOS>BOND
     1    1    5 1   
     2    1    6 1   
     3    2    3 1   
     4    2    8 1   
     5    2   12 1   
     6    3    7 1   
     7    3   13 1   
     8    4    8 1   
     9    4    9 1   
    10    4   10 1   
@<TRIPOS>SUBSTRUCTURE
     1 XSP         1 TEMP              0 ****  ****    0 ROOT
