@<TRIPOS>MOLECULE
XSP
   13    12     1     0     0
SMALL
bcc


@<TRIPOS>ATOM
      1 C1         -2.2130    0.6800   -0.0900 c         1 XSP      0.896600
      2 C2         -0.9000   -0.1160    0.1840 c3        1 XSP      0.065100
      3 C3         -1.3330   -1.5750    0.1100 c         1 XSP      0.620900
      4 O1         -2.4100    1.4000   -1.1100 o         1 XSP     -0.900800
      5 O2         -3.1400    0.5510    0.7870 o         1 XSP     -0.900800
      6 O3         -1.4320   -2.3180   -0.8750 o         1 XSP     -0.657100
      7 O1P         0.1780    0.1800   -0.6110 os        1 XSP     -0.539200
      8 O2P         1.7790    1.4410    0.9880 o         1 XSP     -0.948500
      9 O3P         1.6130   -1.0850    1.0440 o         1 XSP     -0.948500
     10 O4P         2.7040    0.0810   -0.9470 o         1 XSP     -0.948500
     11 H1         -0.6290    0.0760    1.2690 h1        1 XSP      0.031700
     12 H2         -1.6400   -1.9880    1.1090 h4        1 XSP     -0.091800
     13 P           1.7160    0.1610    0.1930 p5        1 XSP      1.320900
@<TRIPOS>BOND
     1    1    2 1   
     2    1    4 1   
     3    1    5 1   
     4    2    3 1   
     5    2    7 1   
     6    2   11 1   
     7    3    6 2   
     8    3   12 1   
     9    7   13 1   
    10    8   13 1   
    11    9   13 1   
    12   10   13 1   
@<TRIPOS>SUBSTRUCTURE
     1 XSP         1 TEMP              0 ****  ****    0 ROOT
