@<TRIPOS>MOLECULE
XSP
   13    11     1     0     0
SMALL
bcc


@<TRIPOS>ATOM
      1 C1         -0.0560    0.0430   -0.2960 c2        1 XSP      0.334000
      2 C2          1.4620    0.2660   -0.2040 c3        1 XSP     -0.082000
      3 C3          1.8220    1.7390   -0.4850 c1        1 XSP     -0.192000
      4 O1         -0.8230    0.3140    0.6810 o         1 XSP     -0.646000
      5 O2         -0.5470   -0.4110   -1.3850 o         1 XSP     -0.646000
      6 O3          2.2020    2.4460    0.4700 o         1 XSP     -0.538000
      7 O1P         1.9870   -0.2920    1.0390 oh        1 XSP     -0.483000
      8 O2P         2.6860   -2.9740    1.9140 o         1 XSP     -1.186333
      9 O3P         4.6080   -1.4860    1.2590 o         1 XSP     -1.186333
     10 O4P         3.1380   -0.8560    3.2490 o         1 XSP     -1.186333
     11 H1          1.7910    0.3590    1.7240 ho        1 XSP      0.243000
     12 H2          1.9680   -0.3580   -0.9910 h1        1 XSP      0.064000
     13 P           3.3300   -1.6380    2.0010 p3        1 XSP      2.504000
@<TRIPOS>BOND
     1    1    2 1   
     2    1    4 1   
     3    1    5 1   
     4    2    3 1   
     5    2    7 1   
     6    2   12 1   
     7    3    6 1   
     8    7   11 1   
     9    8   13 1   
    10    9   13 1   
    11   10   13 1   
@<TRIPOS>SUBSTRUCTURE
     1 XSP         1 TEMP              0 ****  ****    0 ROOT
