@<TRIPOS>MOLECULE
XSP
   13    11     1     0     0
SMALL
bcc


@<TRIPOS>ATOM
      1 C1         -0.0550    0.0200   -0.3040 c2        1 XSP      0.334000
      2 C2          1.4620    0.2520   -0.2120 c3        1 XSP     -0.082000
      3 C3          1.8150    1.7220   -0.5130 c1        1 XSP     -0.192000
      4 O1         -0.8250    0.2990    0.6680 o         1 XSP     -0.646000
      5 O2         -0.5410   -0.4520   -1.3880 o         1 XSP     -0.646000
      6 O3          2.1880    2.4450    0.4330 o         1 XSP     -0.538000
      7 O1P         1.9870   -0.2870    1.0400 oh        1 XSP     -0.483000
      8 O2P         2.6980   -2.9510    1.9540 o         1 XSP     -1.186333
      9 O3P         4.6130   -1.4620    1.2850 o         1 XSP     -1.186333
     10 O4P         3.1350   -0.8130    3.2610 o         1 XSP     -1.186333
     11 H1          1.7850    0.3740    1.7150 ho        1 XSP      0.243000
     12 H2          1.9730   -0.3820   -0.9880 h1        1 XSP      0.064000
     13 P           3.3340   -1.6110    2.0250 p3        1 XSP      2.504000
@<TRIPOS>BOND
     1    1    2 1   
     2    1    4 1   
     3    1    5 1   
     4    2    3 1   
     5    2    7 1   
     6    2   12 1   
     7    3    6 1   
     8    7   11 1   
     9    8   13 1   
    10    9   13 1   
    11   10   13 1   
@<TRIPOS>SUBSTRUCTURE
     1 XSP         1 TEMP              0 ****  ****    0 ROOT
