@<TRIPOS>MOLECULE
XTC
   56    59     1     0     0
SMALL
bcc


@<TRIPOS>ATOM
      1 O92        -0.0920    0.0840   -0.2060 o         1 XTC     -0.188000
      2 N9          1.0970    0.2040   -0.1340 no        1 XTC      0.327200
      3 O91         1.6700    0.3670    0.9130 o         1 XTC     -0.188000
      4 C9          1.8970    0.1460   -1.3830 ca        1 XTC     -0.283200
      5 C8          1.2140   -0.0560   -2.5940 ca        1 XTC      0.021000
      6 C7          1.9140   -0.1340   -3.7930 ca        1 XTC     -0.189000
      7 C10         3.3080    0.2900   -1.3770 ca        1 XTC      0.289100
      8 O10         4.0960    0.4570   -0.2930 oh        1 XTC     -0.461100
      9 C1A         4.0080    0.2260   -2.6160 ca        1 XTC     -0.236600
     10 C61         3.3020   -0.0010   -3.8050 ca        1 XTC      0.025700
     11 C6          4.0510   -0.0820   -5.0880 c3        1 XTC     -0.041100
     12 C11         5.4600    0.4400   -2.6370 c         1 XTC      0.610900
     13 O11         6.0670    1.0240   -1.7270 o         1 XTC     -0.516100
     14 C1B         6.2040   -0.0550   -3.8270 ce        1 XTC     -0.251400
     15 C51         5.4050   -0.7520   -4.8760 c3        1 XTC     -0.009500
     16 C5          6.1410   -0.8450   -6.2060 c3        1 XTC     -0.083400
     17 C12         7.5500    0.0600   -3.9200 c2        1 XTC      0.104900
     18 O12         8.4130    0.5780   -3.0010 oh        1 XTC     -0.513100
     19 C1C         8.3670   -0.3900   -5.1240 c3        1 XTC      0.136000
     20 O1C         9.5370   -1.0920   -4.7210 oh        1 XTC     -0.638800
     21 C1          8.8500    0.8540   -5.8910 c         1 XTC      0.561300
     22 O1          9.3760    1.7940   -5.2900 o         1 XTC     -0.484100
     23 C41         7.5540   -1.3650   -5.9870 c3        1 XTC     -0.080700
     24 C4          8.2390   -1.6250   -7.3430 c3        1 XTC      0.123700
     25 N4          9.5440   -2.3810   -7.2180 nx        1 XTC     -0.679400
     26 C43         9.3440   -3.6960   -6.5390 c3        1 XTC      0.072100
     27 C42        10.1840   -2.5800   -8.5450 c3        1 XTC      0.072100
     28 C3          8.4370   -0.2910   -8.0470 c2        1 XTC      0.224900
     29 O3          8.3130   -0.2240   -9.3890 oh        1 XTC     -0.420100
     30 C2          8.7180    0.8660   -7.3610 ce        1 XTC     -0.339400
     31 C21         8.9240    2.0950   -8.1400 c         1 XTC      0.563300
     32 O21         9.0650    2.1770   -9.3530 o         1 XTC     -0.380100
     33 N21         8.9800    3.4080   -7.4070 nz        1 XTC     -0.743400
     34 H8          0.1100   -0.1580   -2.5910 ha        1 XTC      0.194000
     35 H7          1.3630   -0.3010   -4.7320 ha        1 XTC      0.162000
     36 H10         3.5860    0.5680    0.5330 ho        1 XTC      0.490000
     37 H61C        3.4630   -0.6680   -5.8450 hc        1 XTC      0.071700
     38 H62C        4.1890    0.9560   -5.4960 hc        1 XTC      0.071700
     39 H51         5.2150   -1.8030   -4.5010 hc        1 XTC      0.090700
     40 H51C        5.5780   -1.5420   -6.8830 hc        1 XTC      0.064200
     41 H52C        6.1700    0.1630   -6.6980 hc        1 XTC      0.064200
     42 H41         7.4770   -2.3370   -5.4160 hc        1 XTC      0.123700
     43 H12         7.9550    0.8060   -2.1650 ho        1 XTC      0.505000
     44 H1C         9.8850   -0.6900   -3.9050 ho        1 XTC      0.493000
     45 H4          7.5460   -2.2760   -7.9660 hx        1 XTC      0.132700
     46 H431       10.2740   -4.3170   -6.6690 hx        1 XTC      0.118533
     47 H432        9.1770   -3.5210   -5.4390 hx        1 XTC      0.118533
     48 H433        8.4690   -4.2350   -6.9890 hx        1 XTC      0.118533
     49 H421       11.1750   -3.0990   -8.4000 hx        1 XTC      0.118533
     50 H422       10.3660   -1.5880   -9.0400 hx        1 XTC      0.118533
     51 H423        9.5290   -3.2230   -9.1920 hx        1 XTC      0.118533
     52 H3          8.0330   -1.0810   -9.7640 ho        1 XTC      0.474000
     53 H211        9.7270    3.3800   -6.6920 hn        1 XTC      0.487133
     54 H212        8.0910    3.5850   -6.9280 hn        1 XTC      0.487133
     55 H411       10.1770   -1.8200   -6.6170 hn        1 XTC      0.483800
     56 H213        9.1680    4.1710   -8.0740 hn        1 XTC      0.487133
@<TRIPOS>BOND
     1    1    2 1   
     2    2    3 1   
     3    2    4 1   
     4    4    5 ar  
     5    4    7 ar  
     6    5    6 ar  
     7    5   34 1   
     8    6   10 ar  
     9    6   35 1   
    10    7    8 1   
    11    7    9 ar  
    12    8   36 1   
    13    9   10 ar  
    14    9   12 1   
    15   10   11 1   
    16   11   15 1   
    17   11   37 1   
    18   11   38 1   
    19   12   13 2   
    20   12   14 1   
    21   14   15 1   
    22   14   17 2   
    23   15   16 1   
    24   15   39 1   
    25   16   23 1   
    26   16   40 1   
    27   16   41 1   
    28   17   18 1   
    29   17   19 1   
    30   18   43 1   
    31   19   20 1   
    32   19   21 1   
    33   19   23 1   
    34   20   44 1   
    35   21   22 2   
    36   21   30 1   
    37   23   24 1   
    38   23   42 1   
    39   24   25 1   
    40   24   28 1   
    41   24   45 1   
    42   25   26 1   
    43   25   27 1   
    44   25   55 1   
    45   26   46 1   
    46   26   47 1   
    47   26   48 1   
    48   27   49 1   
    49   27   50 1   
    50   27   51 1   
    51   28   29 1   
    52   28   30 2   
    53   29   52 1   
    54   30   31 1   
    55   31   32 2   
    56   31   33 1   
    57   33   53 1   
    58   33   54 1   
    59   33   56 1   
@<TRIPOS>SUBSTRUCTURE
     1 XTC         1 TEMP              0 ****  ****    0 ROOT
