@<TRIPOS>MOLECULE
XTC
   56    59     1     0     0
SMALL
bcc


@<TRIPOS>ATOM
      1 O92        -0.1000    0.0990   -0.2180 o         1 XTC     -0.188000
      2 N9          1.0880    0.2200   -0.1440 no        1 XTC      0.327200
      3 O91         1.6600    0.3880    0.9030 o         1 XTC     -0.188000
      4 C9          1.8900    0.1580   -1.3920 ca        1 XTC     -0.283200
      5 C8          1.2090   -0.0500   -2.6030 ca        1 XTC      0.021000
      6 C7          1.9110   -0.1330   -3.8010 ca        1 XTC     -0.189000
      7 C10         3.3020    0.3020   -1.3850 ca        1 XTC      0.289100
      8 O10         4.0880    0.4750   -0.3000 oh        1 XTC     -0.461100
      9 C1A         4.0030    0.2350   -2.6230 ca        1 XTC     -0.236600
     10 C61         3.3000    0.0020   -3.8110 ca        1 XTC      0.025700
     11 C6          4.0500   -0.0840   -5.0930 c3        1 XTC     -0.041100
     12 C11         5.4550    0.4500   -2.6430 c         1 XTC      0.610900
     13 O11         6.0590    1.0380   -1.7340 o         1 XTC     -0.516100
     14 C1B         6.2010   -0.0500   -3.8290 ce        1 XTC     -0.251400
     15 C51         5.4040   -0.7510   -4.8770 c3        1 XTC     -0.009500
     16 C5          6.1420   -0.8490   -6.2050 c3        1 XTC     -0.083400
     17 C12         7.5470    0.0660   -3.9200 c2        1 XTC      0.104900
     18 O12         8.4080    0.5880   -3.0020 oh        1 XTC     -0.513100
     19 C1C         8.3660   -0.3880   -5.1210 c3        1 XTC      0.136000
     20 O1C         9.5360   -1.0890   -4.7130 oh        1 XTC     -0.638800
     21 C1          8.8510    0.8520   -5.8920 c         1 XTC      0.561300
     22 O1          9.3750    1.7950   -5.2940 o         1 XTC     -0.484100
     23 C41         7.5560   -1.3670   -5.9820 c3        1 XTC     -0.080700
     24 C4          8.2430   -1.6320   -7.3360 c3        1 XTC      0.123700
     25 N4          9.5480   -2.3860   -7.2050 n4        1 XTC     -0.679400
     26 C43         9.3480   -3.6990   -6.5210 c3        1 XTC      0.072100
     27 C42        10.1910   -2.5900   -8.5300 c3        1 XTC      0.072100
     28 C3          8.4410   -0.3010   -8.0440 c2        1 XTC      0.224900
     29 O3          8.3190   -0.2390   -9.3860 oh        1 XTC     -0.420100
     30 C2          8.7200    0.8590   -7.3620 ce        1 XTC     -0.339400
     31 C21         8.9270    2.0860   -8.1460 c         1 XTC      0.563300
     32 O21         9.0680    2.1630   -9.3590 o         1 XTC     -0.380100
     33 N21         8.9810    3.4010   -7.4180 n4        1 XTC     -0.743400
     34 H8          0.1050   -0.1530   -2.6020 ha        1 XTC      0.194000
     35 H7          1.3610   -0.3050   -4.7400 ha        1 XTC      0.162000
     36 H10         3.5760    0.5890    0.5240 ho        1 XTC      0.490000
     37 H61C        3.4640   -0.6730   -5.8490 hc        1 XTC      0.071700
     38 H62C        4.1880    0.9520   -5.5050 hc        1 XTC      0.071700
     39 H51         5.2140   -1.8020   -4.4970 hc        1 XTC      0.090700
     40 H51C        5.5810   -1.5490   -6.8800 hc        1 XTC      0.064200
     41 H52C        6.1720    0.1560   -6.7010 hc        1 XTC      0.064200
     42 H41         7.4780   -2.3370   -5.4070 hc        1 XTC      0.123700
     43 H12         7.9490    0.8190   -2.1680 ho        1 XTC      0.505000
     44 H1C         9.8830   -0.6820   -3.8980 ho        1 XTC      0.493000
     45 H4          7.5520   -2.2860   -7.9570 hx        1 XTC      0.132700
     46 H431        9.1800   -3.5200   -5.4230 hx        1 XTC      0.118533
     47 H432       10.2790   -4.3200   -6.6480 hx        1 XTC      0.118533
     48 H433        8.4750   -4.2410   -6.9710 hx        1 XTC      0.118533
     49 H421        9.5380   -3.2370   -9.1750 hx        1 XTC      0.118533
     50 H422       10.3730   -1.6000   -9.0290 hx        1 XTC      0.118533
     51 H423       11.1820   -3.1070   -8.3820 hx        1 XTC      0.118533
     52 H3          8.0400   -1.0980   -9.7590 ho        1 XTC      0.474000
     53 H211        9.1690    4.1620   -8.0870 hn        1 XTC      0.487133
     54 H212        9.7270    3.3760   -6.7020 hn        1 XTC      0.487133
     55 H411       10.1800   -1.8220   -6.6050 hn        1 XTC      0.483800
     56 H213        8.0910    3.5790   -6.9400 hn        1 XTC      0.487133
@<TRIPOS>BOND
     1    1    2 1   
     2    2    3 1   
     3    2    4 1   
     4    4    5 ar  
     5    4    7 ar  
     6    5    6 ar  
     7    5   34 1   
     8    6   10 ar  
     9    6   35 1   
    10    7    8 1   
    11    7    9 ar  
    12    8   36 1   
    13    9   10 ar  
    14    9   12 1   
    15   10   11 1   
    16   11   15 1   
    17   11   37 1   
    18   11   38 1   
    19   12   13 2   
    20   12   14 1   
    21   14   15 1   
    22   14   17 2   
    23   15   16 1   
    24   15   39 1   
    25   16   23 1   
    26   16   40 1   
    27   16   41 1   
    28   17   18 1   
    29   17   19 1   
    30   18   43 1   
    31   19   20 1   
    32   19   21 1   
    33   19   23 1   
    34   20   44 1   
    35   21   22 2   
    36   21   30 1   
    37   23   24 1   
    38   23   42 1   
    39   24   25 1   
    40   24   28 1   
    41   24   45 1   
    42   25   26 1   
    43   25   27 1   
    44   25   55 1   
    45   26   46 1   
    46   26   47 1   
    47   26   48 1   
    48   27   49 1   
    49   27   50 1   
    50   27   51 1   
    51   28   29 1   
    52   28   30 2   
    53   29   52 1   
    54   30   31 1   
    55   31   32 2   
    56   31   33 1   
    57   33   53 1   
    58   33   54 1   
    59   33   56 1   
@<TRIPOS>SUBSTRUCTURE
     1 XTC         1 TEMP              0 ****  ****    0 ROOT
