@<TRIPOS>MOLECULE
XTC
   54    57     1     0     0
SMALL
bcc


@<TRIPOS>ATOM
      1 O92        -0.0940   -0.1420   -0.1850 o         1 XTC     -0.217500
      2 N9          1.0760    0.1290   -0.1710 no        1 XTC      0.328200
      3 O91         1.6250    0.4930    0.8410 o         1 XTC     -0.217500
      4 C9          1.8570    0.0130   -1.4170 ca        1 XTC     -0.297200
      5 C8          1.1810   -0.4150   -2.5800 ca        1 XTC     -0.006000
      6 C7          1.8630   -0.5600   -3.7740 ca        1 XTC     -0.195000
      7 C10         3.2410    0.3140   -1.4750 ca        1 XTC      0.276100
      8 O10         4.0230    0.6880   -0.4340 oh        1 XTC     -0.459100
      9 C1A         3.9210    0.1840   -2.7180 ca        1 XTC     -0.212600
     10 C61         3.2340   -0.2710   -3.8450 ca        1 XTC      0.047700
     11 C6          3.9740   -0.4320   -5.1230 c3        1 XTC     -0.051100
     12 C11         5.3480    0.5600   -2.8270 c         1 XTC      0.614900
     13 O11         5.8510    1.3940   -2.0550 o         1 XTC     -0.552100
     14 C1B         6.1250   -0.0820   -3.8970 ce        1 XTC     -0.318400
     15 C51         5.3890   -0.9400   -4.8720 c3        1 XTC      0.007500
     16 C5          6.1310   -1.0180   -6.1950 c3        1 XTC     -0.085400
     17 C12         7.4760    0.0420   -3.9960 c2        1 XTC      0.170900
     18 O12         8.2820    0.7480   -3.1590 oh        1 XTC     -0.497100
     19 C1C         8.3560   -0.6650   -5.0290 c3        1 XTC      0.122000
     20 O1C         9.1970   -1.5620   -4.3090 oh        1 XTC     -0.581800
     21 C1          9.2370    0.3960   -5.7230 c         1 XTC      0.602300
     22 O1         10.2290    0.8210   -5.1220 o         1 XTC     -0.526100
     23 C41         7.5500   -1.5310   -6.0100 c3        1 XTC     -0.050700
     24 C4          8.2140   -1.6050   -7.4060 c3        1 XTC      0.207700
     25 N4          9.5170   -2.2760   -7.4440 n3        1 XTC     -0.723600
     26 C43         9.5470   -3.5330   -6.7280 c3        1 XTC      0.144100
     27 C42        10.0140   -2.4080   -8.8000 c3        1 XTC      0.144100
     28 C3          8.3540   -0.1660   -7.9000 c2        1 XTC      0.246900
     29 O3          7.9450   -0.0340   -9.1770 oh        1 XTC     -0.492100
     30 C2          8.8430    0.8050   -7.0730 ce        1 XTC     -0.388400
     31 C21         9.0010    2.2040   -7.5270 c         1 XTC      0.697300
     32 O21         8.5010    2.5790   -8.6220 o         1 XTC     -0.682100
     33 N21         9.6710    3.1080   -6.7550 n         1 XTC     -0.646000
     34 H8          0.1000   -0.6390   -2.5280 ha        1 XTC      0.174000
     35 H7          1.3300   -0.9050   -4.6730 ha        1 XTC      0.154000
     36 H10         3.5030    0.8830    0.3650 ho        1 XTC      0.470000
     37 H61C        3.4370   -1.1510   -5.7980 hc        1 XTC      0.071200
     38 H62C        4.0110    0.5610   -5.6490 hc        1 XTC      0.071200
     39 H51         5.3190   -1.9790   -4.4340 hc        1 XTC      0.065700
     40 H51C        6.1490   -0.0040   -6.6770 hc        1 XTC      0.058700
     41 H52C        5.5780   -1.7100   -6.8850 hc        1 XTC      0.058700
     42 H41         7.4970   -2.5700   -5.5740 hc        1 XTC      0.095700
     43 H12         7.7730    1.1690   -2.4430 ho        1 XTC      0.472000
     44 H1C         9.8380   -1.0240   -3.8180 ho        1 XTC      0.441000
     45 H4          7.4790   -2.1330   -8.0950 h1        1 XTC      0.059700
     46 H431       10.5210   -4.0490   -6.9410 h1        1 XTC      0.043033
     47 H432        9.4960   -3.3260   -5.6260 h1        1 XTC      0.043033
     48 H433        8.7090   -4.2260   -7.0140 h1        1 XTC      0.043033
     49 H421       11.0800   -2.7530   -8.7500 h1        1 XTC      0.043033
     50 H422        9.9850   -1.4100   -9.3120 h1        1 XTC      0.043033
     51 H423        9.4250   -3.1400   -9.4180 h1        1 XTC      0.043033
     52 H3          8.0220    0.8950   -9.4820 ho        1 XTC      0.485000
     53 H211        9.7870    4.0310   -7.0960 hn        1 XTC      0.328000
     54 H212       10.1560    2.8320   -5.9370 hn        1 XTC      0.328000
@<TRIPOS>BOND
     1    1    2 1   
     2    2    3 1   
     3    2    4 1   
     4    4    5 ar  
     5    4    7 ar  
     6    5    6 ar  
     7    5   34 1   
     8    6   10 ar  
     9    6   35 1   
    10    7    8 1   
    11    7    9 ar  
    12    8   36 1   
    13    9   10 ar  
    14    9   12 1   
    15   10   11 1   
    16   11   15 1   
    17   11   37 1   
    18   11   38 1   
    19   12   13 2   
    20   12   14 1   
    21   14   15 1   
    22   14   17 2   
    23   15   16 1   
    24   15   39 1   
    25   16   23 1   
    26   16   40 1   
    27   16   41 1   
    28   17   18 1   
    29   17   19 1   
    30   18   43 1   
    31   19   20 1   
    32   19   21 1   
    33   19   23 1   
    34   20   44 1   
    35   21   22 2   
    36   21   30 1   
    37   23   24 1   
    38   23   42 1   
    39   24   25 1   
    40   24   28 1   
    41   24   45 1   
    42   25   26 1   
    43   25   27 1   
    44   26   46 1   
    45   26   47 1   
    46   26   48 1   
    47   27   49 1   
    48   27   50 1   
    49   27   51 1   
    50   28   29 1   
    51   28   30 2   
    52   29   52 1   
    53   30   31 1   
    54   31   32 2   
    55   31   33 1   
    56   33   53 1   
    57   33   54 1   
@<TRIPOS>SUBSTRUCTURE
     1 XTC         1 TEMP              0 ****  ****    0 ROOT
