@<TRIPOS>MOLECULE
XTC
   54    57     1     0     0
SMALL
bcc


@<TRIPOS>ATOM
      1 O92         7.6410   -0.0060    1.3050 o         1 XTC     -0.201500
      2 N9          6.8120    0.2360    0.4630 no        1 XTC      0.327200
      3 O91         7.1120    0.5860   -0.6430 o         1 XTC     -0.201500
      4 C9          5.3830    0.0860    0.8280 ca        1 XTC     -0.249200
      5 C8          5.0610   -0.3810    2.1110 ca        1 XTC      0.001000
      6 C7          3.7320   -0.5390    2.4810 ca        1 XTC     -0.202000
      7 C10         4.3480    0.4110   -0.0950 ca        1 XTC      0.272100
      8 O10         4.7600    0.8670   -1.3020 oh        1 XTC     -0.455100
      9 C1A         2.9950    0.2320    0.2890 ca        1 XTC     -0.267600
     10 C61         2.7070   -0.2420    1.5800 ca        1 XTC      0.052700
     11 C6          1.2910   -0.4060    1.9990 c3        1 XTC     -0.053100
     12 C11         1.8820    0.5510   -0.6250 c         1 XTC      0.626900
     13 O11         2.0710    1.2960   -1.6130 o         1 XTC     -0.623100
     14 C1B         0.5670   -0.0330   -0.3560 ce        1 XTC     -0.320400
     15 C51         0.4270   -0.9030    0.8480 c3        1 XTC      0.007500
     16 C5         -1.0170   -0.9760    1.3140 c3        1 XTC     -0.086400
     17 C12        -0.4980    0.1390   -1.1890 c2        1 XTC      0.185900
     18 O12        -0.5200    0.8680   -2.3340 oh        1 XTC     -0.493100
     19 C1C        -1.8630   -0.5420   -1.0340 c3        1 XTC      0.121000
     20 O1C        -2.0200   -1.3960   -2.1620 oh        1 XTC     -0.579800
     21 C1         -2.9570    0.5460   -1.0740 c         1 XTC      0.602300
     22 O1         -3.2650    1.0270   -2.1690 o         1 XTC     -0.526100
     23 C41        -1.9410   -1.4480    0.2030 c3        1 XTC     -0.050700
     24 C4         -3.3750   -1.5280    0.7780 c3        1 XTC      0.207700
     25 N4         -4.3670   -2.1540   -0.1020 n3        1 XTC     -0.723600
     26 C43        -3.9210   -3.4030   -0.6830 c3        1 XTC      0.143600
     27 C42        -5.6570   -2.2840    0.5480 c3        1 XTC      0.143600
     28 C3         -3.7950   -0.0940    1.1010 c2        1 XTC      0.249900
     29 O3         -4.3600   -0.0020    2.3200 oh        1 XTC     -0.491100
     30 C2         -3.5790    0.9110    0.2010 ce        1 XTC     -0.390400
     31 C21        -3.9850    2.3050    0.4850 c         1 XTC      0.696300
     32 O21        -4.3440    2.6400    1.6460 o         1 XTC     -0.680100
     33 N21        -3.9540    3.2480   -0.5010 n         1 XTC     -0.646000
     34 H8          5.8710   -0.6210    2.8250 ha        1 XTC      0.178000
     35 H7          3.4870   -0.9030    3.4900 ha        1 XTC      0.153000
     36 H10         4.0040    1.1100   -1.8660 ho        1 XTC      0.469000
     37 H61C        1.2170   -1.1300    2.8540 hc        1 XTC      0.071700
     38 H62C        0.9080    0.5870    2.3650 hc        1 XTC      0.071700
     39 H51         0.7700   -1.9420    0.5670 hc        1 XTC      0.066700
     40 H51C       -1.0860   -1.6900    2.1770 hc        1 XTC      0.059700
     41 H52C       -1.3450    0.0330    1.6820 hc        1 XTC      0.059700
     42 H41        -1.6160   -2.4810   -0.1150 hc        1 XTC      0.096700
     43 H12         0.3360    1.2980   -2.5080 ho        1 XTC      0.473000
     44 H1C        -2.1690   -0.8290   -2.9370 ho        1 XTC      0.441000
     45 H4         -3.3080   -2.0940    1.7620 h1        1 XTC      0.060700
     46 H431       -3.5140   -4.1240    0.0770 h1        1 XTC      0.043533
     47 H432       -4.7870   -3.8890   -1.2040 h1        1 XTC      0.043533
     48 H433       -3.1290   -3.1860   -1.4490 h1        1 XTC      0.043533
     49 H421       -5.9700   -1.2920    0.9680 h1        1 XTC      0.043533
     50 H422       -6.4070   -2.5980   -0.2250 h1        1 XTC      0.043533
     51 H423       -5.6580   -3.0380    1.3810 h1        1 XTC      0.043533
     52 H3         -4.6110    0.9220    2.5300 ho        1 XTC      0.486000
     53 H211       -3.7750    3.0050   -1.4450 hn        1 XTC      0.328000
     54 H212       -4.2630    4.1660   -0.2900 hn        1 XTC      0.328000
@<TRIPOS>BOND
     1    1    2 1   
     2    2    3 1   
     3    2    4 1   
     4    4    5 ar  
     5    4    7 ar  
     6    5    6 ar  
     7    5   34 1   
     8    6   10 ar  
     9    6   35 1   
    10    7    8 1   
    11    7    9 ar  
    12    8   36 1   
    13    9   10 ar  
    14    9   12 1   
    15   10   11 1   
    16   11   15 1   
    17   11   37 1   
    18   11   38 1   
    19   12   13 2   
    20   12   14 1   
    21   14   15 1   
    22   14   17 2   
    23   15   16 1   
    24   15   39 1   
    25   16   23 1   
    26   16   40 1   
    27   16   41 1   
    28   17   18 1   
    29   17   19 1   
    30   18   43 1   
    31   19   20 1   
    32   19   21 1   
    33   19   23 1   
    34   20   44 1   
    35   21   22 2   
    36   21   30 1   
    37   23   24 1   
    38   23   42 1   
    39   24   25 1   
    40   24   28 1   
    41   24   45 1   
    42   25   26 1   
    43   25   27 1   
    44   26   46 1   
    45   26   47 1   
    46   26   48 1   
    47   27   49 1   
    48   27   50 1   
    49   27   51 1   
    50   28   29 1   
    51   28   30 2   
    52   29   52 1   
    53   30   31 1   
    54   31   32 2   
    55   31   33 1   
    56   33   53 1   
    57   33   54 1   
@<TRIPOS>SUBSTRUCTURE
     1 XTC         1 TEMP              0 ****  ****    0 ROOT
