@<TRIPOS>MOLECULE
XTF
   37    38     1     0     0
SMALL
bcc


@<TRIPOS>ATOM
      1 F          -1.1800   -3.2630   -1.0050 f         1 XTF     -0.260300
      2 C2'        -1.0590   -1.8820   -0.9170 c3        1 XTF      0.157600
      3 C1'        -1.6430   -1.4230    0.4650 c3        1 XTF      0.131900
      4 N1         -2.3680   -0.1530    0.3710 n         1 XTF     -0.349000
      5 C6         -1.7010    1.0520    0.1880 cc        1 XTF      0.060600
      6 C5         -2.3660    2.2520    0.1540 cd        1 XTF     -0.294400
      7 C5M        -1.6240    3.5090   -0.0720 c3        1 XTF     -0.043900
      8 C2         -3.7670   -0.1620    0.5510 c         1 XTF      0.788500
      9 O2         -4.4290   -1.2160    0.7420 o         1 XTF     -0.713500
     10 N3         -4.4560    1.0610    0.5160 n         1 XTF     -0.597500
     11 C4         -3.8130    2.3030    0.3240 c         1 XTF      0.715700
     12 O4         -4.5430    3.3180    0.3220 o         1 XTF     -0.689500
     13 C7'        -0.6070   -1.4060    1.5460 c2        1 XTF     -0.264200
     14 C6'         0.6960   -1.6260    1.3440 c2        1 XTF     -0.041200
     15 C3'         0.3920   -1.4000   -1.1070 c3        1 XTF      0.121100
     16 O3'         0.8380   -1.8930   -2.3570 oh        1 XTF     -0.660800
     17 C4'         1.3150   -1.8690    0.0210 c3        1 XTF     -0.118500
     18 C5'         2.6860   -1.1430   -0.0800 c3        1 XTF      0.234400
     19 O5'         2.6450    0.1720    0.2900 os        1 XTF     -0.574200
     20 P           2.4350    1.3580   -0.9530 p5        1 XTF      1.349900
     21 OP1         1.0370    1.8180   -0.5900 o         1 XTF     -0.925167
     22 OP2         3.5710    2.3070   -0.7610 o         1 XTF     -0.925167
     23 H1         -1.6760   -1.4460   -1.7570 h1        1 XTF      0.053700
     24 H2         -2.4120   -2.2110    0.7540 h1        1 XTF      0.080700
     25 H3         -0.5650    1.0310    0.0480 h4        1 XTF      0.315000
     26 H4         -2.0690    4.0700   -0.9300 hc        1 XTF      0.058700
     27 H5         -1.6850    4.1610    0.8350 hc        1 XTF      0.058700
     28 H6         -0.5400    3.2780   -0.2950 hc        1 XTF      0.058700
     29 H7         -5.4420    1.0250    0.6320 hn        1 XTF      0.319500
     30 H8         -0.9980   -1.1980    2.5530 ha        1 XTF      0.105000
     31 H9          1.4040   -1.6030    2.1900 ha        1 XTF      0.118000
     32 H10         0.4160   -0.2590   -1.1210 h1        1 XTF      0.136700
     33 H11         1.4860   -1.2300   -2.6810 ho        1 XTF      0.482000
     34 H12         1.5000   -2.9720   -0.0990 hc        1 XTF      0.039700
     35 H13         3.3850   -1.6920    0.6220 h1        1 XTF     -0.000800
     36 H14         3.0560   -1.2600   -1.1380 h1        1 XTF     -0.000800
     37 OP3         2.4260    0.4890   -2.1890 o         1 XTF     -0.925167
@<TRIPOS>BOND
     1    1    2 1   
     2    2    3 1   
     3    2   15 1   
     4    2   23 1   
     5    3    4 1   
     6    3   13 1   
     7    3   24 1   
     8    4    5 1   
     9    4    8 1   
    10    5    6 2   
    11    5   25 1   
    12    6    7 1   
    13    6   11 1   
    14    7   26 1   
    15    7   27 1   
    16    7   28 1   
    17    8    9 2   
    18    8   10 1   
    19   10   11 1   
    20   10   29 1   
    21   11   12 2   
    22   13   14 2   
    23   13   30 1   
    24   14   17 1   
    25   14   31 1   
    26   15   16 1   
    27   15   17 1   
    28   15   32 1   
    29   16   33 1   
    30   17   18 1   
    31   17   34 1   
    32   18   19 1   
    33   18   35 1   
    34   18   36 1   
    35   19   20 1   
    36   20   21 1   
    37   20   22 1   
    38   20   37 1   
@<TRIPOS>SUBSTRUCTURE
     1 XTF         1 TEMP              0 ****  ****    0 ROOT
