@<TRIPOS>MOLECULE
XTG
   53    55     1     0     0
SMALL
bcc


@<TRIPOS>ATOM
      1 C14        -0.3980   -1.0690    0.1010 ca        1 XTG     -0.179000
      2 C13         0.9050   -1.2240   -0.3490 ca        1 XTG     -0.044000
      3 C12         1.9500   -1.3520    0.5840 ca        1 XTG     -0.209200
      4 N1          3.3440   -1.5030    0.1000 no        1 XTG      0.316200
      5 O10         3.5550   -1.4920   -1.0840 o         1 XTG     -0.211500
      6 O11         4.2290   -1.6360    0.9030 o         1 XTG     -0.211500
      7 C17         1.6900   -1.3440    1.9640 ca        1 XTG     -0.044000
      8 C16         0.3810   -1.2030    2.4170 ca        1 XTG     -0.179000
      9 C15        -0.6540   -1.0510    1.4860 ca        1 XTG      0.162100
     10 O1         -1.9870   -0.9130    1.8250 os        1 XTG     -0.326900
     11 C1         -2.2740   -0.3480    3.0980 c3        1 XTG      0.303900
     12 O5         -2.1910   -1.4700    3.9610 os        1 XTG     -0.428600
     13 C2         -3.7170    0.1910    2.9940 c3        1 XTG      0.084100
     14 O2         -3.7390    1.4060    2.2690 oh        1 XTG     -0.598800
     15 C3         -4.2400    0.5080    4.4010 c3        1 XTG      0.109100
     16 O3         -5.6250    0.8000    4.3690 oh        1 XTG     -0.602800
     17 C4         -4.0750   -0.7310    5.2980 c3        1 XTG      0.117100
     18 O4         -4.4300   -0.4240    6.6330 oh        1 XTG     -0.591800
     19 C5         -2.5960   -1.1680    5.3050 c3        1 XTG      0.158100
     20 C6         -2.3960   -2.4370    6.1150 c3        1 XTG     -0.030300
     21 S6         -0.9430   -2.3570    7.1140 ss        1 XTG     -0.208200
     22 C7          0.1110   -3.6030    6.4090 c3        1 XTG      0.206200
     23 O9          0.7650   -3.0350    5.2800 os        1 XTG     -0.399600
     24 C11         1.5870   -3.9710    4.5890 c3        1 XTG      0.085400
     25 C10         2.6860   -4.5290    5.4930 c3        1 XTG      0.091100
     26 O8          3.6460   -3.5460    5.8190 oh        1 XTG     -0.591800
     27 C9          2.0800   -5.1190    6.7810 c3        1 XTG      0.070100
     28 O7          1.3200   -6.2850    6.5100 oh        1 XTG     -0.594800
     29 C8          1.1170   -4.1120    7.4480 c3        1 XTG      0.130100
     30 O6          1.8650   -3.0110    7.9410 oh        1 XTG     -0.582800
     31 H14        -1.2320   -0.9690   -0.6090 ha        1 XTG      0.173000
     32 H13         1.1210   -1.2410   -1.4320 ha        1 XTG      0.174500
     33 H17         2.5180   -1.4500    2.6880 ha        1 XTG      0.174500
     34 H16         0.1640   -1.2490    3.4990 ha        1 XTG      0.173000
     35 H1         -1.5400    0.4510    3.3890 h2        1 XTG      0.073700
     36 H2         -4.3730   -0.5770    2.4960 h1        1 XTG      0.080700
     37 HO2        -3.4750    1.1940    1.3640 ho        1 XTG      0.422000
     38 H3         -3.6780    1.3830    4.8320 h1        1 XTG      0.067700
     39 HO3        -5.7350    1.5530    3.7730 ho        1 XTG      0.428000
     40 H4         -4.7250   -1.5640    4.9100 h1        1 XTG      0.064700
     41 HO4        -5.3250   -0.0570    6.6000 ho        1 XTG      0.427000
     42 H5         -1.9580   -0.3330    5.7120 h1        1 XTG      0.079700
     43 H61        -2.3870   -3.3250    5.4370 h1        1 XTG      0.097700
     44 H62        -3.2530   -2.5400    6.8310 h1        1 XTG      0.097700
     45 H7         -0.4990   -4.4890    6.0760 h2        1 XTG      0.076700
     46 H111        2.0270   -3.3720    3.7480 h1        1 XTG      0.066200
     47 H112        0.9610   -4.8130    4.1940 h1        1 XTG      0.066200
     48 H10         3.2640   -5.3230    4.9420 h1        1 XTG      0.078700
     49 HO8         3.1670   -2.7920    6.1970 ho        1 XTG      0.429000
     50 H9          2.9150   -5.3590    7.4970 h1        1 XTG      0.053700
     51 HO7         1.9300   -6.9310    6.1330 ho        1 XTG      0.411000
     52 H8          0.5620   -4.6190    8.2850 h1        1 XTG      0.073700
     53 HO6         2.4260   -3.3500    8.6500 ho        1 XTG      0.411000
@<TRIPOS>BOND
     1    1    2 ar  
     2    1    9 ar  
     3    1   31 1   
     4    2    3 ar  
     5    2   32 1   
     6    3    4 1   
     7    3    7 ar  
     8    4    5 1   
     9    4    6 1   
    10    7    8 ar  
    11    7   33 1   
    12    8    9 ar  
    13    8   34 1   
    14    9   10 1   
    15   10   11 1   
    16   11   12 1   
    17   11   13 1   
    18   11   35 1   
    19   12   19 1   
    20   13   14 1   
    21   13   15 1   
    22   13   36 1   
    23   14   37 1   
    24   15   16 1   
    25   15   17 1   
    26   15   38 1   
    27   16   39 1   
    28   17   18 1   
    29   17   19 1   
    30   17   40 1   
    31   18   41 1   
    32   19   20 1   
    33   19   42 1   
    34   20   21 1   
    35   20   43 1   
    36   20   44 1   
    37   21   22 1   
    38   22   23 1   
    39   22   29 1   
    40   22   45 1   
    41   23   24 1   
    42   24   25 1   
    43   24   46 1   
    44   24   47 1   
    45   25   26 1   
    46   25   27 1   
    47   25   48 1   
    48   26   49 1   
    49   27   28 1   
    50   27   29 1   
    51   27   50 1   
    52   28   51 1   
    53   29   30 1   
    54   29   52 1   
    55   30   53 1   
@<TRIPOS>SUBSTRUCTURE
     1 XTG         1 TEMP              0 ****  ****    0 ROOT
