@<TRIPOS>MOLECULE
XTG
   53    55     1     0     0
SMALL
bcc


@<TRIPOS>ATOM
      1 C14        -0.3640   -1.0050    0.1180 ca        1 XTG     -0.179000
      2 C13         0.9450   -1.1430   -0.3220 ca        1 XTG     -0.044000
      3 C12         1.9810   -1.2770    0.6200 ca        1 XTG     -0.209200
      4 N1          3.3810   -1.4100    0.1490 no        1 XTG      0.316200
      5 O10         3.6040   -1.3790   -1.0330 o         1 XTG     -0.211500
      6 O11         4.2590   -1.5480    0.9590 o         1 XTG     -0.211500
      7 C17         1.7070   -1.2920    1.9980 ca        1 XTG     -0.044000
      8 C16         0.3930   -1.1680    2.4390 ca        1 XTG     -0.179000
      9 C15        -0.6350   -1.0100    1.5000 ca        1 XTG      0.162100
     10 O1         -1.9710   -0.8870    1.8270 os        1 XTG     -0.326900
     11 C1         -2.2760   -0.3450    3.1070 c3        1 XTG      0.303900
     12 O5         -2.1930   -1.4800    3.9520 os        1 XTG     -0.428600
     13 C2         -3.7220    0.1840    2.9950 c3        1 XTG      0.084100
     14 O2         -3.7450    1.4110    2.2900 oh        1 XTG     -0.598800
     15 C3         -4.2610    0.4750    4.4020 c3        1 XTG      0.109100
     16 O3         -5.6480    0.7580    4.3610 oh        1 XTG     -0.602800
     17 C4         -4.0970   -0.7770    5.2810 c3        1 XTG      0.117100
     18 O4         -4.4680   -0.4940    6.6170 oh        1 XTG     -0.591800
     19 C5         -2.6150   -1.2030    5.2960 c3        1 XTG      0.158100
     20 C6         -2.4140   -2.4840    6.0870 c3        1 XTG     -0.030300
     21 S6         -0.9730   -2.4090    7.1040 ss        1 XTG     -0.208200
     22 C7          0.0990   -3.6350    6.3900 c3        1 XTG      0.206200
     23 O9          0.7610   -3.0420    5.2790 os        1 XTG     -0.399600
     24 C11         1.5990   -3.9590    4.5810 c3        1 XTG      0.085400
     25 C10         2.6920   -4.5250    5.4880 c3        1 XTG      0.091100
     26 O8          3.6400   -3.5410    5.8420 oh        1 XTG     -0.591800
     27 C9          2.0750   -5.1420    6.7580 c3        1 XTG      0.070100
     28 O7          1.3280   -6.3090    6.4570 oh        1 XTG     -0.594800
     29 C8          1.0970   -4.1540    7.4310 c3        1 XTG      0.130100
     30 O6          1.8310   -3.0570    7.9520 oh        1 XTG     -0.582800
     31 H14        -1.1910   -0.9010   -0.6000 ha        1 XTG      0.173000
     32 H13         1.1720   -1.1420   -1.4020 ha        1 XTG      0.174500
     33 H17         2.5280   -1.4030    2.7280 ha        1 XTG      0.174500
     34 H16         0.1650   -1.2320    3.5180 ha        1 XTG      0.173000
     35 H1         -1.5500    0.4550    3.4180 h2        1 XTG      0.073700
     36 H2         -4.3670   -0.5800    2.4790 h1        1 XTG      0.080700
     37 HO2        -3.4710    1.2160    1.3850 ho        1 XTG      0.422000
     38 H3         -3.7100    1.3470    4.8530 h1        1 XTG      0.067700
     39 HO3        -5.7580    1.5200    3.7760 ho        1 XTG      0.428000
     40 H4         -4.7370   -1.6080    4.8730 h1        1 XTG      0.064700
     41 HO4        -5.3650   -0.1330    6.5800 ho        1 XTG      0.427000
     42 H5         -1.9870   -0.3710    5.7230 h1        1 XTG      0.079700
     43 H61        -2.3910   -3.3610    5.3960 h1        1 XTG      0.097700
     44 H62        -3.2780   -2.6050    6.7930 h1        1 XTG      0.097700
     45 H7         -0.5000   -4.5200    6.0340 h2        1 XTG      0.076700
     46 H111        2.0440   -3.3430    3.7550 h1        1 XTG      0.066200
     47 H112        0.9840   -4.7990    4.1630 h1        1 XTG      0.066200
     48 H10         3.2830   -5.3040    4.9300 h1        1 XTG      0.078700
     49 HO8         3.1500   -2.7970    6.2280 ho        1 XTG      0.429000
     50 H9          2.9040   -5.3880    7.4800 h1        1 XTG      0.053700
     51 HO7         1.9470   -6.9440    6.0770 ho        1 XTG      0.411000
     52 H8          0.5360   -4.6800    8.2530 h1        1 XTG      0.073700
     53 HO6         2.3860   -3.4040    8.6620 ho        1 XTG      0.411000
@<TRIPOS>BOND
     1    1    2 ar  
     2    1    9 ar  
     3    1   31 1   
     4    2    3 ar  
     5    2   32 1   
     6    3    4 1   
     7    3    7 ar  
     8    4    5 1   
     9    4    6 1   
    10    7    8 ar  
    11    7   33 1   
    12    8    9 ar  
    13    8   34 1   
    14    9   10 1   
    15   10   11 1   
    16   11   12 1   
    17   11   13 1   
    18   11   35 1   
    19   12   19 1   
    20   13   14 1   
    21   13   15 1   
    22   13   36 1   
    23   14   37 1   
    24   15   16 1   
    25   15   17 1   
    26   15   38 1   
    27   16   39 1   
    28   17   18 1   
    29   17   19 1   
    30   17   40 1   
    31   18   41 1   
    32   19   20 1   
    33   19   42 1   
    34   20   21 1   
    35   20   43 1   
    36   20   44 1   
    37   21   22 1   
    38   22   23 1   
    39   22   29 1   
    40   22   45 1   
    41   23   24 1   
    42   24   25 1   
    43   24   46 1   
    44   24   47 1   
    45   25   26 1   
    46   25   27 1   
    47   25   48 1   
    48   26   49 1   
    49   27   28 1   
    50   27   29 1   
    51   27   50 1   
    52   28   51 1   
    53   29   30 1   
    54   29   52 1   
    55   30   53 1   
@<TRIPOS>SUBSTRUCTURE
     1 XTG         1 TEMP              0 ****  ****    0 ROOT
