@<TRIPOS>MOLECULE
XTG
   53    55     1     0     0
SMALL
bcc


@<TRIPOS>ATOM
      1 C14        -4.1960    2.9950   -0.3340 ca        1 XTG     -0.182000
      2 C13        -3.9460    4.3390   -0.0990 ca        1 XTG     -0.036500
      3 C12        -2.6920    4.7350    0.4020 ca        1 XTG     -0.211200
      4 N1         -2.4310    6.1720    0.6620 no        1 XTG      0.318200
      5 O10        -3.2970    6.9730    0.4320 o         1 XTG     -0.211500
      6 O11        -1.3590    6.5000    1.0990 o         1 XTG     -0.211500
      7 C17        -1.6850    3.7890    0.6540 ca        1 XTG     -0.036500
      8 C16        -1.9340    2.4420    0.4150 ca        1 XTG     -0.182000
      9 C15        -3.1880    2.0470   -0.0700 ca        1 XTG      0.171100
     10 O1         -3.5430    0.7430   -0.3520 os        1 XTG     -0.324900
     11 C1         -2.7200   -0.2910    0.1720 c3        1 XTG      0.303900
     12 O5         -1.5880   -0.2510   -0.6800 os        1 XTG     -0.430600
     13 C2         -3.5240   -1.5960   -0.0070 c3        1 XTG      0.087100
     14 O2         -4.5440   -1.6850    0.9690 oh        1 XTG     -0.597800
     15 C3         -2.5910   -2.7930    0.2220 c3        1 XTG      0.109100
     16 O3         -3.2300   -4.0050   -0.1370 oh        1 XTG     -0.601800
     17 C4         -1.3550   -2.6680   -0.6860 c3        1 XTG      0.117100
     18 O4         -0.4170   -3.6830   -0.3740 oh        1 XTG     -0.594800
     19 C5         -0.6590   -1.3160   -0.4350 c3        1 XTG      0.155100
     20 C6          0.4960   -1.1000   -1.3970 c3        1 XTG     -0.010300
     21 S6          1.7910   -0.1190   -0.7000 ss        1 XTG     -0.280200
     22 C7          2.9600   -1.3230   -0.0890 c3        1 XTG      0.171200
     23 O9          3.2550   -2.2220   -1.1520 os        1 XTG     -0.410600
     24 C11         4.1000   -3.2930   -0.7390 c3        1 XTG      0.093400
     25 C10         5.4340   -2.8010   -0.1720 c3        1 XTG      0.090100
     26 O8          6.3080   -2.3870   -1.2010 oh        1 XTG     -0.590800
     27 C9          5.2460   -1.6730    0.8610 c3        1 XTG      0.100100
     28 O7          4.7290   -2.1840    2.0790 oh        1 XTG     -0.597800
     29 C8          4.2360   -0.6130    0.3710 c3        1 XTG      0.133100
     30 O6          4.8980    0.0970   -0.6650 oh        1 XTG     -0.602800
     31 H14        -5.1670    2.6630   -0.7290 ha        1 XTG      0.165000
     32 H13        -4.7260    5.0940   -0.3020 ha        1 XTG      0.174500
     33 H17        -0.7000    4.1120    1.0340 ha        1 XTG      0.174500
     34 H16        -1.1370    1.6990    0.5780 ha        1 XTG      0.165000
     35 H1         -2.4380   -0.1070    1.2440 h2        1 XTG      0.070700
     36 H2         -3.9630   -1.6320   -1.0430 h1        1 XTG      0.082700
     37 HO2        -5.1720   -0.9740    0.7810 ho        1 XTG      0.424000
     38 H3         -2.2800   -2.8350    1.3030 h1        1 XTG      0.066700
     39 HO3        -4.0320   -4.0640    0.4000 ho        1 XTG      0.429000
     40 H4         -1.6690   -2.7510   -1.7630 h1        1 XTG      0.068700
     41 HO4        -0.8860   -4.5240   -0.4690 ho        1 XTG      0.429000
     42 H5         -0.3070   -1.2680    0.6330 h1        1 XTG      0.068700
     43 H61         0.1390   -0.5400   -2.2990 h1        1 XTG      0.111200
     44 H62         0.8970   -2.0940   -1.7220 h1        1 XTG      0.111200
     45 H7          2.5240   -1.8890    0.7780 h2        1 XTG      0.090700
     46 H111        4.2680   -3.8780   -1.6820 h1        1 XTG      0.069200
     47 H112        3.5700   -3.9150    0.0290 h1        1 XTG      0.069200
     48 H10         5.9640   -3.6700    0.3130 h1        1 XTG      0.077700
     49 HO8         5.9220   -1.5960   -1.6060 ho        1 XTG      0.426000
     50 H9          6.2390   -1.1690    1.0280 h1        1 XTG      0.074700
     51 HO7         5.4430   -2.6840    2.4920 ho        1 XTG      0.411000
     52 H8          3.9960    0.1020    1.2060 h1        1 XTG      0.078700
     53 HO6         4.2240    0.3730   -1.3040 ho        1 XTG      0.429000
@<TRIPOS>BOND
     1    1    2 ar  
     2    1    9 ar  
     3    1   31 1   
     4    2    3 ar  
     5    2   32 1   
     6    3    4 1   
     7    3    7 ar  
     8    4    5 1   
     9    4    6 1   
    10    7    8 ar  
    11    7   33 1   
    12    8    9 ar  
    13    8   34 1   
    14    9   10 1   
    15   10   11 1   
    16   11   12 1   
    17   11   13 1   
    18   11   35 1   
    19   12   19 1   
    20   13   14 1   
    21   13   15 1   
    22   13   36 1   
    23   14   37 1   
    24   15   16 1   
    25   15   17 1   
    26   15   38 1   
    27   16   39 1   
    28   17   18 1   
    29   17   19 1   
    30   17   40 1   
    31   18   41 1   
    32   19   20 1   
    33   19   42 1   
    34   20   21 1   
    35   20   43 1   
    36   20   44 1   
    37   21   22 1   
    38   22   23 1   
    39   22   29 1   
    40   22   45 1   
    41   23   24 1   
    42   24   25 1   
    43   24   46 1   
    44   24   47 1   
    45   25   26 1   
    46   25   27 1   
    47   25   48 1   
    48   26   49 1   
    49   27   28 1   
    50   27   29 1   
    51   27   50 1   
    52   28   51 1   
    53   29   30 1   
    54   29   52 1   
    55   30   53 1   
@<TRIPOS>SUBSTRUCTURE
     1 XTG         1 TEMP              0 ****  ****    0 ROOT
