@<TRIPOS>MOLECULE
XTG
   53    52     1     0     0
SMALL
bcc


@<TRIPOS>ATOM
      1 C14         3.6780   -0.1590   -2.0960 c1        1 XTG     -0.202000
      2 C13         4.5610   -0.4300   -3.1010 c1        1 XTG     -0.033000
      3 C12         5.9540   -0.4070   -2.8440 c1        1 XTG     -0.168000
      4 N1          6.8790   -0.4990   -3.9300 n2        1 XTG      0.464400
      5 O10         8.2370   -0.3180   -3.6980 o         1 XTG     -0.308200
      6 O11         6.4770   -0.7970   -5.0680 o         1 XTG     -0.308200
      7 C17         6.4210   -0.1090   -1.5750 c2        1 XTG     -0.040000
      8 C16         5.5340    0.1660   -0.5580 c1        1 XTG     -0.172000
      9 C15         4.1500    0.1430   -0.8090 c1        1 XTG      0.126000
     10 O1          3.2340    0.5310    0.2100 os        1 XTG     -0.248000
     11 C1          2.1530   -0.9060    0.6380 c3        1 XTG      0.113000
     12 O5          0.9610   -1.2550   -0.8430 os        1 XTG     -0.267000
     13 C2          1.8910   -0.7940    1.0470 c3        1 XTG     -0.026000
     14 O2          3.0420   -0.6030    2.4660 oh        1 XTG     -0.322000
     15 C3          0.6110   -2.2470    1.4540 c3        1 XTG      0.048000
     16 O3         -0.0180   -1.9400    2.1250 oh        1 XTG     -0.320000
     17 C4         -0.3710   -2.8350   -0.1220 c3        1 XTG      0.001000
     18 O4          0.7540   -3.7770   -1.2000 oh        1 XTG     -0.311000
     19 C5         -0.5360   -2.4480   -0.3700 c3        1 XTG      0.004000
     20 C6         -1.7970   -1.4420    0.7730 c3        1 XTG     -0.326000
     21 S6         -2.5980   -0.1590   -0.2000 ss        1 XTG      0.147000
     22 C7         -3.5030    0.8600    0.8280 c3        1 XTG     -0.134000
     23 O9         -2.6690    2.0090    1.2080 os        1 XTG     -0.264000
     24 C11        -3.4020    3.0220    1.9360 c3        1 XTG     -0.024000
     25 C10        -4.6900    3.4580    1.2100 c3        1 XTG     -0.036000
     26 O8         -4.3360    4.2110    0.0080 oh        1 XTG     -0.316000
     27 C9         -5.5420    2.3010    0.8230 c3        1 XTG     -0.042000
     28 O7         -6.1050    1.6850    2.0360 oh        1 XTG     -0.319000
     29 C8         -4.7990    1.2880    0.0890 c3        1 XTG      0.037000
     30 O6         -4.4560    1.7880   -1.1330 oh        1 XTG     -0.311000
     31 H14         2.7410   -0.1760   -2.2690 ha        1 XTG      0.170000
     32 H13         4.2420   -0.6350   -3.9690 ha        1 XTG      0.173000
     33 H17         7.3250   -0.0940   -1.4130 ha        1 XTG      0.173000
     34 H16         5.8700    0.3770    0.3430 ha        1 XTG      0.161000
     35 H1          2.7250   -1.7210    0.8110 h2        1 XTG      0.142000
     36 H2          1.3980    0.0510    0.9040 h1        1 XTG      0.119000
     37 HO2         3.7770   -1.1910    2.3590 ho        1 XTG      0.219000
     38 H3          1.1490   -3.0740    1.8500 h1        1 XTG      0.123000
     39 HO3         0.1730   -2.2770    2.8600 ho        1 XTG      0.222000
     40 H4         -1.0950   -3.3820    0.1390 h1        1 XTG      0.113000
     41 HO4         0.4130   -4.6340   -1.3340 ho        1 XTG      0.206000
     42 H5         -0.9600   -2.7270   -1.1280 h1        1 XTG      0.144000
     43 H61        -1.3300   -1.0510    1.4750 h1        1 XTG      0.141500
     44 H62        -2.5140   -2.0910    1.1550 h1        1 XTG      0.141500
     45 H7         -3.7460    0.3610    1.6360 h2        1 XTG      0.107000
     46 H111       -2.8210    3.8140    2.0530 h1        1 XTG      0.112500
     47 H112       -3.6280    2.6870    2.7740 h1        1 XTG      0.112500
     48 H10        -5.2500    4.0950    1.8630 h1        1 XTG      0.085000
     49 HO8        -4.6520    5.1160    0.0930 ho        1 XTG      0.210000
     50 H9         -6.2780    2.6260    0.2590 h1        1 XTG      0.095000
     51 HO7        -6.9730    1.7640    2.0260 ho        1 XTG      0.209000
     52 H8         -5.4020    0.4650   -0.0440 h1        1 XTG      0.145000
     53 HO6        -4.8800    1.3590   -1.7460 ho        1 XTG      0.231000
@<TRIPOS>BOND
     1    1    9 1   
     2    1   31 1   
     3    2    3 1   
     4    2   32 1   
     5    3    7 1   
     6    4    5 2   
     7    4    6 2   
     8    7    8 1   
     9    7   33 1   
    10    8   34 1   
    11    9   10 1   
    12   10   11 1   
    13   11   12 1   
    14   11   13 1   
    15   11   35 1   
    16   12   19 1   
    17   13   14 1   
    18   13   15 1   
    19   13   36 1   
    20   14   37 1   
    21   15   16 1   
    22   15   17 1   
    23   15   38 1   
    24   16   39 1   
    25   17   18 1   
    26   17   19 1   
    27   17   40 1   
    28   18   41 1   
    29   19   20 1   
    30   19   42 1   
    31   20   21 1   
    32   20   43 1   
    33   20   44 1   
    34   21   22 1   
    35   22   23 1   
    36   22   29 1   
    37   22   45 1   
    38   23   24 1   
    39   24   25 1   
    40   24   46 1   
    41   24   47 1   
    42   25   26 1   
    43   25   27 1   
    44   25   48 1   
    45   26   49 1   
    46   27   28 1   
    47   27   29 1   
    48   27   50 1   
    49   28   51 1   
    50   29   30 1   
    51   29   52 1   
    52   30   53 1   
@<TRIPOS>SUBSTRUCTURE
     1 XTG         1 TEMP              0 ****  ****    0 ROOT
