@<TRIPOS>MOLECULE
XTG
   53    55     1     0     0
SMALL
bcc


@<TRIPOS>ATOM
      1 C14        -0.4440    1.3590   -0.1560 ca        1 XTG     -0.182000
      2 C13         0.7960    1.6670   -0.6940 ca        1 XTG     -0.036500
      3 C12         1.9650    1.2980   -0.0020 ca        1 XTG     -0.211200
      4 N1          3.2910    1.6380   -0.5740 no        1 XTG      0.318200
      5 O10         3.3400    2.2190   -1.6250 o         1 XTG     -0.211500
      6 O11         4.2830    1.3260    0.0290 o         1 XTG     -0.211500
      7 C17         1.8910    0.6080    1.2180 ca        1 XTG     -0.036500
      8 C16         0.6470    0.2950    1.7570 ca        1 XTG     -0.182000
      9 C15        -0.5150    0.6760    1.0740 ca        1 XTG      0.171100
     10 O1         -1.8000    0.4110    1.5070 os        1 XTG     -0.324900
     11 C1         -1.9690    0.0200    2.8630 c3        1 XTG      0.303900
     12 O5         -1.5270   -1.3270    2.8560 os        1 XTG     -0.430600
     13 C2         -3.4830    0.1230    3.1410 c3        1 XTG      0.087100
     14 O2         -3.8630    1.4750    3.3100 oh        1 XTG     -0.597800
     15 C3         -3.7980   -0.5910    4.4630 c3        1 XTG      0.109100
     16 O3         -5.1960   -0.7040    4.6530 oh        1 XTG     -0.601800
     17 C4         -3.2470   -2.0270    4.4220 c3        1 XTG      0.117100
     18 O4         -3.3950   -2.6420    5.6880 oh        1 XTG     -0.594800
     19 C5         -1.7380   -1.9970    4.1070 c3        1 XTG      0.155100
     20 C6         -1.1790   -3.3990    3.9360 c3        1 XTG     -0.010300
     21 S6          0.5170   -3.5200    4.4130 ss        1 XTG     -0.280200
     22 C7          0.4500   -4.1110    6.0980 c3        1 XTG      0.171200
     23 O9         -0.3720   -5.2720    6.1190 os        1 XTG     -0.410600
     24 C11        -0.5820   -5.7640    7.4400 c3        1 XTG      0.093400
     25 C10         0.7270   -6.1160    8.1490 c3        1 XTG      0.090100
     26 O8          1.2530   -7.3400    7.6790 oh        1 XTG     -0.590800
     27 C9          1.7770   -4.9960    8.0220 c3        1 XTG      0.100100
     28 O7          1.4380   -3.8910    8.8440 oh        1 XTG     -0.597800
     29 C8          1.8620   -4.4540    6.5790 c3        1 XTG      0.133100
     30 O6          2.4890   -5.4780    5.8210 oh        1 XTG     -0.602800
     31 H14        -1.3710    1.6340   -0.6810 ha        1 XTG      0.165000
     32 H13         0.8680    2.2010   -1.6580 ha        1 XTG      0.174500
     33 H17         2.8140    0.3100    1.7470 ha        1 XTG      0.174500
     34 H16         0.5840   -0.2760    2.6960 ha        1 XTG      0.165000
     35 H1         -1.3610    0.6510    3.5670 h2        1 XTG      0.070700
     36 H2         -4.0570   -0.3470    2.2950 h1        1 XTG      0.082700
     37 HO2        -3.7330    1.9090    2.4560 ho        1 XTG      0.424000
     38 H3         -3.3440   -0.0220    5.3220 h1        1 XTG      0.066700
     39 HO3        -5.5520    0.1940    4.6340 ho        1 XTG      0.429000
     40 H4         -3.7970   -2.6190    3.6390 h1        1 XTG      0.068700
     41 HO4        -4.3370   -2.5930    5.9060 ho        1 XTG      0.429000
     42 H5         -1.1960   -1.4440    4.9240 h1        1 XTG      0.068700
     43 H61        -1.2170   -3.6930    2.8560 h1        1 XTG      0.111200
     44 H62        -1.8000   -4.1180    4.5290 h1        1 XTG      0.111200
     45 H7          0.0150   -3.3240    6.7710 h2        1 XTG      0.090700
     46 H111       -1.2040   -6.6860    7.2840 h1        1 XTG      0.069200
     47 H112       -1.1430   -5.0010    8.0400 h1        1 XTG      0.069200
     48 H10         0.5100   -6.3050    9.2390 h1        1 XTG      0.077700
     49 HO8         1.5170   -7.2050    6.7570 ho        1 XTG      0.426000
     50 H9          2.7850   -5.4120    8.3070 h1        1 XTG      0.074700
     51 HO7         1.5880   -4.1690    9.7550 ho        1 XTG      0.411000
     52 H8          2.5090   -3.5340    6.5530 h1        1 XTG      0.078700
     53 HO6         2.1260   -5.4380    4.9240 ho        1 XTG      0.429000
@<TRIPOS>BOND
     1    1    2 ar  
     2    1    9 ar  
     3    1   31 1   
     4    2    3 ar  
     5    2   32 1   
     6    3    4 1   
     7    3    7 ar  
     8    4    5 1   
     9    4    6 1   
    10    7    8 ar  
    11    7   33 1   
    12    8    9 ar  
    13    8   34 1   
    14    9   10 1   
    15   10   11 1   
    16   11   12 1   
    17   11   13 1   
    18   11   35 1   
    19   12   19 1   
    20   13   14 1   
    21   13   15 1   
    22   13   36 1   
    23   14   37 1   
    24   15   16 1   
    25   15   17 1   
    26   15   38 1   
    27   16   39 1   
    28   17   18 1   
    29   17   19 1   
    30   17   40 1   
    31   18   41 1   
    32   19   20 1   
    33   19   42 1   
    34   20   21 1   
    35   20   43 1   
    36   20   44 1   
    37   21   22 1   
    38   22   23 1   
    39   22   29 1   
    40   22   45 1   
    41   23   24 1   
    42   24   25 1   
    43   24   46 1   
    44   24   47 1   
    45   25   26 1   
    46   25   27 1   
    47   25   48 1   
    48   26   49 1   
    49   27   28 1   
    50   27   29 1   
    51   27   50 1   
    52   28   51 1   
    53   29   30 1   
    54   29   52 1   
    55   30   53 1   
@<TRIPOS>SUBSTRUCTURE
     1 XTG         1 TEMP              0 ****  ****    0 ROOT
