@<TRIPOS>MOLECULE
XTH
   37    38     1     0     0
SMALL
bcc


@<TRIPOS>ATOM
      1 OP3         4.7360    0.1020    3.1780 o         1 XTH     -0.913500
      2 P           4.2570   -0.2050    1.7950 p5        1 XTH      1.325900
      3 OP1         4.8380    0.5700    0.6480 o         1 XTH     -0.913500
      4 OP2         3.9700   -1.6600    1.4740 o         1 XTH     -0.913500
      5 O6'         2.6060    0.3620    1.7860 os        1 XTH     -0.556200
      6 C6'         2.0160    0.2840    0.5580 c3        1 XTH      0.233400
      7 C5'         1.0770   -0.9550    0.4630 c3        1 XTH      0.064100
      8 C4'         1.3700   -1.8130   -0.7750 c3        1 XTH      0.163100
      9 O4'         2.6240   -2.4330   -0.7490 oh        1 XTH     -0.687800
     10 C3'         0.2990   -2.9060   -0.9080 c3        1 XTH     -0.106400
     11 C2'        -1.0860   -2.3000   -0.9270 c3        1 XTH     -0.112400
     12 C1'        -1.2580   -1.4300    0.3310 c3        1 XTH      0.316500
     13 O5'        -0.2620   -0.4150    0.3730 os        1 XTH     -0.450600
     14 N1         -2.5670   -0.7410    0.3740 n         1 XTH     -0.353000
     15 C2         -3.7210   -1.5100    0.6430 c         1 XTH      0.800500
     16 O2         -3.6820   -2.7460    0.8410 o         1 XTH     -0.658500
     17 N3         -4.9650   -0.8510    0.6790 n         1 XTH     -0.594500
     18 C4         -5.1090    0.5320    0.4760 c         1 XTH      0.724700
     19 O4         -6.2600    1.0140    0.5290 o         1 XTH     -0.670500
     20 C5         -3.8770    1.2780    0.2180 cc        1 XTH     -0.328400
     21 C5M        -3.9830    2.7340    0.0070 c3        1 XTH     -0.011900
     22 C6         -2.6750    0.6190    0.1860 cd        1 XTH      0.101600
     23 H6'1        2.7880    0.2020   -0.2620 h1        1 XTH      0.013700
     24 H6'2        1.3790    1.2000    0.3780 h1        1 XTH      0.013700
     25 H5'         1.1640   -1.5750    1.3950 h1        1 XTH      0.086700
     26 H4'         1.3230   -1.1570   -1.6940 h1        1 XTH      0.007700
     27 H4T'        3.1650   -2.0890    0.0360 ho        1 XTH      0.525000
     28 H3'1        0.4030   -3.6190   -0.0510 hc        1 XTH      0.042200
     29 H3'2        0.4740   -3.4830   -1.8510 hc        1 XTH      0.042200
     30 H2'1       -1.8690   -3.1020   -0.9340 hc        1 XTH      0.040200
     31 H2'2       -1.2120   -1.6720   -1.8460 hc        1 XTH      0.040200
     32 H1'        -1.1960   -2.0780    1.2580 h2        1 XTH      0.072700
     33 HN3        -5.7640   -1.4080    0.8810 hn        1 XTH      0.333500
     34 H71        -2.9860    3.2270    0.1060 hc        1 XTH      0.037700
     35 H72        -4.3880    2.9490   -1.0140 hc        1 XTH      0.037700
     36 H73        -4.6850    3.1800    0.7560 hc        1 XTH      0.037700
     37 H6         -1.7140    1.1550    0.0130 h4        1 XTH      0.214000
@<TRIPOS>BOND
     1    1    2 1   
     2    2    3 1   
     3    2    4 1   
     4    2    5 1   
     5    5    6 1   
     6    6    7 1   
     7    6   23 1   
     8    6   24 1   
     9    7    8 1   
    10    7   13 1   
    11    7   25 1   
    12    8    9 1   
    13    8   10 1   
    14    8   26 1   
    15    9   27 1   
    16   10   11 1   
    17   10   28 1   
    18   10   29 1   
    19   11   12 1   
    20   11   30 1   
    21   11   31 1   
    22   12   13 1   
    23   12   14 1   
    24   12   32 1   
    25   14   15 1   
    26   14   22 1   
    27   15   16 2   
    28   15   17 1   
    29   17   18 1   
    30   17   33 1   
    31   18   19 2   
    32   18   20 1   
    33   20   21 1   
    34   20   22 2   
    35   21   34 1   
    36   21   35 1   
    37   21   36 1   
    38   22   37 1   
@<TRIPOS>SUBSTRUCTURE
     1 XTH         1 TEMP              0 ****  ****    0 ROOT
