@<TRIPOS>MOLECULE
XTK
   46    47     1     0     0
SMALL
bcc


@<TRIPOS>ATOM
      1 N3         -1.6740    0.0410   -1.9520 n1        1 XTK     -0.317800
      2 C16        -0.9550    0.0220   -1.0380 cg        1 XTK      0.196500
      3 C1         -0.1100   -0.0020    0.0950 cc        1 XTK      0.039200
      4 N1          1.2940    0.0030   -0.0030 na        1 XTK     -0.159400
      5 C8          1.8170   -0.0250    1.2840 ca        1 XTK     -0.002200
      6 C7          3.1630   -0.0310    1.7220 ca        1 XTK     -0.094300
      7 C6          3.3810   -0.0590    3.0890 ca        1 XTK     -0.076000
      8 C5          2.3260   -0.0820    4.0240 ca        1 XTK     -0.222000
      9 C2         -0.4960   -0.0300    1.4400 cd        1 XTK     -0.107200
     10 C3          0.7140   -0.0450    2.2180 ca        1 XTK     -0.124800
     11 C4          1.0070   -0.0760    3.5940 ca        1 XTK      0.156100
     12 O1         -0.1010   -0.1200    4.4310 os        1 XTK     -0.342900
     13 C9          0.1700    0.0520    5.8210 c3        1 XTK      0.098400
     14 C10        -1.2210    0.1220    6.4630 c3        1 XTK      0.123100
     15 O2         -1.9500   -1.0790    6.2780 oh        1 XTK     -0.635800
     16 C11        -1.0600    0.3100    7.9840 c3        1 XTK      0.098800
     17 N2         -2.3600    0.1760    8.6940 ny        1 XTK     -0.760000
     18 C12        -2.2670    0.2310   10.2180 c3        1 XTK      0.152200
     19 C15        -1.5460    1.5020   10.6670 c3        1 XTK     -0.128433
     20 C14        -3.6950    0.2380   10.7770 c3        1 XTK     -0.128433
     21 C13        -1.5290   -0.9980   10.7490 c3        1 XTK     -0.128433
     22 C17         4.2710   -0.0080    0.7440 c3        1 XTK     -0.056800
     23 H1          1.8160    0.0130   -0.8410 hn        1 XTK      0.319700
     24 H2         -1.5110   -0.0390    1.8260 ha        1 XTK      0.168000
     25 H6          4.4150   -0.0660    3.4710 ha        1 XTK      0.145000
     26 H171        4.2140    0.9120    0.1100 hc        1 XTK      0.052700
     27 H172        5.2640   -0.0170    1.2580 hc        1 XTK      0.052700
     28 H173        4.2170   -0.9020    0.0720 hc        1 XTK      0.052700
     29 H5          2.5780   -0.1090    5.0930 ha        1 XTK      0.131000
     30 H91C        0.7450   -0.8310    6.2050 h1        1 XTK      0.064700
     31 H92C        0.7400    1.0000    5.9990 h1        1 XTK      0.064700
     32 H10        -1.8030    0.9760    6.0130 h1        1 XTK      0.077700
     33 HA         -1.8200   -1.3660    5.3600 ho        1 XTK      0.470000
     34 H111       -0.3590   -0.4750    8.3880 hx        1 XTK      0.110700
     35 H112       -0.6330    1.3330    8.1870 hx        1 XTK      0.110700
     36 HB         -2.9900    0.9210    8.3820 hn        1 XTK      0.457800
     37 H151       -0.4640    1.4760   10.3880 hc        1 XTK      0.076144
     38 H152       -2.0190    2.4170   10.2380 hc        1 XTK      0.076144
     39 H153       -1.6120    1.5660   11.7830 hc        1 XTK      0.076144
     40 H141       -4.2600    1.1420   10.4430 hc        1 XTK      0.076144
     41 H142       -4.2550   -0.6820   10.4790 hc        1 XTK      0.076144
     42 H143       -3.6370    0.2600   11.8940 hc        1 XTK      0.076144
     43 H131       -2.0070   -1.9460   10.4020 hc        1 XTK      0.076144
     44 H132       -0.4540   -0.9950   10.4470 hc        1 XTK      0.076144
     45 H133       -1.5730   -0.9760   11.8680 hc        1 XTK      0.076144
     46 H22        -2.7770   -0.7280    8.4260 hn        1 XTK      0.457800
@<TRIPOS>BOND
     1    1    2 3   
     2    2    3 1   
     3    3    4 1   
     4    3    9 2   
     5    4    5 1   
     6    4   23 1   
     7    5    6 ar  
     8    5   10 ar  
     9    6    7 ar  
    10    6   22 1   
    11    7    8 ar  
    12    7   25 1   
    13    8   11 ar  
    14    8   29 1   
    15    9   10 1   
    16    9   24 1   
    17   10   11 ar  
    18   11   12 1   
    19   12   13 1   
    20   13   14 1   
    21   13   30 1   
    22   13   31 1   
    23   14   15 1   
    24   14   16 1   
    25   14   32 1   
    26   15   33 1   
    27   16   17 1   
    28   16   34 1   
    29   16   35 1   
    30   17   18 1   
    31   17   36 1   
    32   17   46 1   
    33   18   19 1   
    34   18   20 1   
    35   18   21 1   
    36   19   37 1   
    37   19   38 1   
    38   19   39 1   
    39   20   40 1   
    40   20   41 1   
    41   20   42 1   
    42   21   43 1   
    43   21   44 1   
    44   21   45 1   
    45   22   26 1   
    46   22   27 1   
    47   22   28 1   
@<TRIPOS>SUBSTRUCTURE
     1 XTK         1 TEMP              0 ****  ****    0 ROOT
