@<TRIPOS>MOLECULE
XTK
   46    47     1     0     0
SMALL
bcc


@<TRIPOS>ATOM
      1 N3         -1.6780    0.0370   -1.9510 n1        1 XTK     -0.317800
      2 C16        -0.9590    0.0190   -1.0370 cg        1 XTK      0.196500
      3 C1         -0.1130   -0.0030    0.0950 cc        1 XTK      0.039200
      4 N1          1.2910    0.0020   -0.0040 na        1 XTK     -0.159400
      5 C8          1.8150   -0.0250    1.2830 ca        1 XTK     -0.002200
      6 C7          3.1610   -0.0300    1.7200 ca        1 XTK     -0.094300
      7 C6          3.3800   -0.0570    3.0880 ca        1 XTK     -0.076000
      8 C5          2.3250   -0.0800    4.0230 ca        1 XTK     -0.221000
      9 C2         -0.4980   -0.0310    1.4400 cd        1 XTK     -0.107200
     10 C3          0.7120   -0.0450    2.2180 ca        1 XTK     -0.124800
     11 C4          1.0060   -0.0740    3.5930 ca        1 XTK      0.156100
     12 O1         -0.1020   -0.1180    4.4310 os        1 XTK     -0.342900
     13 C9          0.1700    0.0540    5.8210 c3        1 XTK      0.098400
     14 C10        -1.2200    0.1230    6.4640 c3        1 XTK      0.123100
     15 O2         -1.9490   -1.0790    6.2790 oh        1 XTK     -0.635800
     16 C11        -1.0590    0.3120    7.9850 c3        1 XTK      0.098800
     17 N2         -2.3580    0.1770    8.6950 n4        1 XTK     -0.760000
     18 C12        -2.2640    0.2300   10.2190 c3        1 XTK      0.152200
     19 C15        -1.5390    1.4980   10.6690 c3        1 XTK     -0.128433
     20 C14        -3.6930    0.2410   10.7790 c3        1 XTK     -0.128433
     21 C13        -1.5300   -1.0020   10.7490 c3        1 XTK     -0.128433
     22 C17         4.2680   -0.0070    0.7420 c3        1 XTK     -0.056800
     23 H1          1.8130    0.0120   -0.8420 hn        1 XTK      0.319700
     24 H2         -1.5130   -0.0400    1.8270 ha        1 XTK      0.168000
     25 H6          4.4130   -0.0620    3.4690 ha        1 XTK      0.145000
     26 H171        4.2150   -0.9020    0.0710 hc        1 XTK      0.052700
     27 H172        5.2610   -0.0150    1.2550 hc        1 XTK      0.052700
     28 H173        4.2100    0.9120    0.1060 hc        1 XTK      0.052700
     29 H5          2.5780   -0.1050    5.0910 ha        1 XTK      0.131000
     30 H91C        0.7460   -0.8290    6.2050 h1        1 XTK      0.064700
     31 H92C        0.7400    1.0020    5.9990 h1        1 XTK      0.064700
     32 H10        -1.8030    0.9770    6.0140 h1        1 XTK      0.077700
     33 HA         -1.8190   -1.3650    5.3610 ho        1 XTK      0.470000
     34 H111       -0.3570   -0.4730    8.3880 hx        1 XTK      0.110700
     35 H112       -0.6320    1.3340    8.1870 hx        1 XTK      0.110700
     36 HB         -2.9880    0.9230    8.3840 hn        1 XTK      0.457800
     37 H151       -1.6050    1.5620   11.7850 hc        1 XTK      0.076144
     38 H152       -2.0100    2.4160   10.2420 hc        1 XTK      0.076144
     39 H153       -0.4580    1.4690   10.3900 hc        1 XTK      0.076144
     40 H141       -4.2550   -0.6760   10.4790 hc        1 XTK      0.076144
     41 H142       -3.6340    0.2610   11.8960 hc        1 XTK      0.076144
     42 H143       -4.2550    1.1470   10.4460 hc        1 XTK      0.076144
     43 H131       -0.4560   -1.0020   10.4450 hc        1 XTK      0.076144
     44 H132       -2.0130   -1.9480   10.4010 hc        1 XTK      0.076144
     45 H133       -1.5730   -0.9810   11.8670 hc        1 XTK      0.076144
     46 H22        -2.7760   -0.7270    8.4270 hn        1 XTK      0.457800
@<TRIPOS>BOND
     1    1    2 3   
     2    2    3 1   
     3    3    4 1   
     4    3    9 2   
     5    4    5 1   
     6    4   23 1   
     7    5    6 ar  
     8    5   10 ar  
     9    6    7 ar  
    10    6   22 1   
    11    7    8 ar  
    12    7   25 1   
    13    8   11 ar  
    14    8   29 1   
    15    9   10 1   
    16    9   24 1   
    17   10   11 ar  
    18   11   12 1   
    19   12   13 1   
    20   13   14 1   
    21   13   30 1   
    22   13   31 1   
    23   14   15 1   
    24   14   16 1   
    25   14   32 1   
    26   15   33 1   
    27   16   17 1   
    28   16   34 1   
    29   16   35 1   
    30   17   18 1   
    31   17   36 1   
    32   17   46 1   
    33   18   19 1   
    34   18   20 1   
    35   18   21 1   
    36   19   37 1   
    37   19   38 1   
    38   19   39 1   
    39   20   40 1   
    40   20   41 1   
    41   20   42 1   
    42   21   43 1   
    43   21   44 1   
    44   21   45 1   
    45   22   26 1   
    46   22   27 1   
    47   22   28 1   
@<TRIPOS>SUBSTRUCTURE
     1 XTK         1 TEMP              0 ****  ****    0 ROOT
