@<TRIPOS>MOLECULE
XTL
   37    38     1     0     0
SMALL
bcc


@<TRIPOS>ATOM
      1 P          -2.4240   -1.2640    0.8680 p5        1 XTL      1.346900
      2 OP1        -1.0180   -1.6950    0.5010 o         1 XTL     -0.925833
      3 OP2        -2.4500   -0.4680    2.1520 o         1 XTL     -0.925833
      4 O5'        -2.6220   -0.0130   -0.3120 os        1 XTL     -0.573200
      5 C5'        -2.6890    1.2780    0.1330 c3        1 XTL      0.234400
      6 C4'        -1.3320    2.0310    0.1000 c3        1 XTL     -0.118500
      7 C6'        -0.6970    1.9170   -1.2340 c2        1 XTL     -0.045200
      8 C7'         0.6130    1.7460   -1.4400 c2        1 XTL     -0.267200
      9 C3'        -0.4030    1.5000    1.1990 c3        1 XTL      0.136100
     10 O3'        -0.8620    1.9270    2.4730 oh        1 XTL     -0.671800
     11 C2'         1.0160    2.0270    1.0270 c3        1 XTL     -0.084400
     12 C1'         1.6290    1.6810   -0.3390 c3        1 XTL      0.164900
     13 C6          1.7160   -0.8130   -0.2330 cc        1 XTL      0.067600
     14 C5          2.3940   -2.0050   -0.2830 cd        1 XTL     -0.298400
     15 C5M         1.6700   -3.2840   -0.1370 c3        1 XTL     -0.043900
     16 C4          3.8400   -2.0280   -0.4690 c         1 XTL      0.714700
     17 O4          4.5820   -3.0320   -0.5400 o         1 XTL     -0.693500
     18 N3          4.4670   -0.7680   -0.5820 n         1 XTL     -0.597500
     19 C2          3.7640    0.4450   -0.5280 c         1 XTL      0.787500
     20 O2          4.4160    1.5170   -0.6460 o         1 XTL     -0.722500
     21 N1          2.3660    0.4080   -0.3470 n         1 XTL     -0.348000
     22 OP3        -3.5500   -2.2080    0.6020 o         1 XTL     -0.925833
     23 H5'        -3.0780    1.3270    1.1900 h1        1 XTL     -0.003300
     24 H5''       -3.3880    1.8570   -0.5470 h1        1 XTL     -0.003300
     25 H4'        -1.5460    3.1180    0.3030 hc        1 XTL      0.026700
     26 H6'        -1.3970    1.9520   -2.0860 ha        1 XTL      0.114000
     27 H7'         1.0200    1.6380   -2.4560 ha        1 XTL      0.102000
     28 H3'        -0.4330    0.3620    1.1550 h1        1 XTL      0.130700
     29 HO3'       -1.5100    1.2470    2.7520 ho        1 XTL      0.478000
     30 H2'         1.6510    1.6390    1.8630 hc        1 XTL      0.037700
     31 H2''        1.0010    3.1460    1.1110 hc        1 XTL      0.037700
     32 H1'         2.4040    2.4850   -0.5570 h1        1 XTL      0.062700
     33 H6          0.5820   -0.8150   -0.0790 h4        1 XTL      0.314000
     34 H71         1.7360   -3.8760   -1.0830 hc        1 XTL      0.058033
     35 H72         2.1250   -3.8920    0.6830 hc        1 XTL      0.058033
     36 H73         0.5830   -3.0820    0.1050 hc        1 XTL      0.058033
     37 HN3         5.4520   -0.7130   -0.7000 hn        1 XTL      0.317500
@<TRIPOS>BOND
     1    1    2 1   
     2    1    3 1   
     3    1    4 1   
     4    1   22 1   
     5    4    5 1   
     6    5    6 1   
     7    5   23 1   
     8    5   24 1   
     9    6    7 1   
    10    6    9 1   
    11    6   25 1   
    12    7    8 2   
    13    7   26 1   
    14    8   12 1   
    15    8   27 1   
    16    9   10 1   
    17    9   11 1   
    18    9   28 1   
    19   10   29 1   
    20   11   12 1   
    21   11   30 1   
    22   11   31 1   
    23   12   21 1   
    24   12   32 1   
    25   13   14 2   
    26   13   21 1   
    27   13   33 1   
    28   14   15 1   
    29   14   16 1   
    30   15   34 1   
    31   15   35 1   
    32   15   36 1   
    33   16   17 2   
    34   16   18 1   
    35   18   19 1   
    36   18   37 1   
    37   19   20 2   
    38   19   21 1   
@<TRIPOS>SUBSTRUCTURE
     1 XTL         1 TEMP              0 ****  ****    0 ROOT
