@<TRIPOS>MOLECULE
XTN
   18    17     1     0     0
SMALL
bcc


@<TRIPOS>ATOM
      1 N1          0.0870   -0.0030   -1.6070 n3        1 XTN     -0.263000
      2 C2          1.5540   -0.0030   -1.6070 c2        1 XTN      0.263000
      3 N2          2.2620   -0.0030   -2.8370 n3        1 XTN     -0.331000
      4 N3          2.2940   -0.0030   -0.3350 n1        1 XTN     -0.309000
      5 C4          1.5890   -0.0030    0.9020 c1        1 XTN      0.318000
      6 O4          2.2010    0.0370    1.9500 o         1 XTN     -0.306000
      7 N5         -0.6170   -0.0030    2.1600 n         1 XTN     -0.244000
      8 C6         -2.0310   -0.0030    2.1620 c2        1 XTN      0.278000
      9 O6         -2.6370    0.0100    3.2150 o         1 XTN     -0.327000
     10 C7         -2.7840   -0.0030    0.8620 c2        1 XTN     -0.092000
     11 N8         -2.0780   -0.0030   -0.3630 n1        1 XTN     -0.090000
     12 C4A         0.1040   -0.0030    0.9090 c2        1 XTN     -0.079000
     13 C8A        -0.6330   -0.0030   -0.3640 c1        1 XTN     -0.001000
     14 HN1        -0.3690   -0.0030   -2.3970 hn        1 XTN      0.263000
     15 HN2         1.8040   -0.0070   -3.6260 hn        1 XTN      0.222500
     16 HN2A        3.1740    0.0000   -2.8380 hn        1 XTN      0.222500
     17 H7         -3.7600   -0.0030    0.8630 h4        1 XTN      0.198000
     18 H5         -0.1600   -0.0030    2.9500 hn        1 XTN      0.278000
@<TRIPOS>BOND
     1    1    2 1   
     2    1   13 1   
     3    1   14 1   
     4    2    3 1   
     5    2    4 1   
     6    3   15 1   
     7    3   16 1   
     8    5    6 1   
     9    5   12 1   
    10    7    8 1   
    11    7   12 1   
    12    7   18 1   
    13    8    9 1   
    14    8   10 1   
    15   10   11 1   
    16   10   17 1   
    17   12   13 1   
@<TRIPOS>SUBSTRUCTURE
     1 XTN         1 TEMP              0 ****  ****    0 ROOT
