@<TRIPOS>MOLECULE
XTN
   18    19     1     0     0
SMALL
bcc


@<TRIPOS>ATOM
      1 N1         -1.3510   -1.3800   -0.0560 na        1 XTN     -0.702000
      2 C2         -2.3840   -0.4250    0.0270 cc        1 XTN      0.855100
      3 N2         -3.6950   -0.9230    0.1850 nh        1 XTN     -0.892800
      4 N3         -2.1900    0.9020   -0.0040 nd        1 XTN     -0.736100
      5 C4         -0.8960    1.4230   -0.0190 c         1 XTN      0.715700
      6 O4         -0.6790    2.6470   -0.0400 o         1 XTN     -0.545100
      7 N5          1.5520    0.9030   -0.0120 n         1 XTN     -0.400100
      8 C6          2.6220    0.0020    0.0030 c         1 XTN      0.551200
      9 O6          3.7950    0.4100    0.0060 o         1 XTN     -0.602500
     10 C7          2.2350   -1.4380    0.0150 cc        1 XTN      0.394200
     11 N8          1.0160   -1.8900    0.0080 nd        1 XTN     -0.518300
     12 C4A         0.2500    0.4470   -0.0180 cc        1 XTN     -0.095600
     13 C8A        -0.0180   -0.9320   -0.0140 cd        1 XTN      0.221600
     14 HN1        -1.5280   -2.3510    0.0810 hn        1 XTN      0.467800
     15 HN2        -3.9030   -1.7670   -0.3000 hn        1 XTN      0.427300
     16 HN2A       -4.4110   -0.2290    0.1280 hn        1 XTN      0.427300
     17 H7          3.0690   -2.1660    0.0350 h4        1 XTN      0.068800
     18 H5          1.7110    1.8910   -0.0190 hn        1 XTN      0.364500
@<TRIPOS>BOND
     1    1    2 1   
     2    1   13 1   
     3    1   14 1   
     4    2    3 1   
     5    2    4 2   
     6    3   15 1   
     7    3   16 1   
     8    4    5 1   
     9    5    6 2   
    10    5   12 1   
    11    7    8 1   
    12    7   12 1   
    13    7   18 1   
    14    8    9 2   
    15    8   10 1   
    16   10   11 2   
    17   10   17 1   
    18   11   13 1   
    19   12   13 2   
@<TRIPOS>SUBSTRUCTURE
     1 XTN         1 TEMP              0 ****  ****    0 ROOT
