@<TRIPOS>MOLECULE
XTN
   19    20     1     0     0
SMALL
bcc


@<TRIPOS>ATOM
      1 N1         -0.0390    0.0040   -0.0340 na        1 XTN     -0.670000
      2 C2          1.3460   -0.0040    0.0220 cc        1 XTN      0.728100
      3 N2          2.0850    0.0040   -1.2930 n4        1 XTN     -0.811600
      4 N3          2.1090   -0.0190    1.0930 nd        1 XTN     -0.654100
      5 C4          1.5020   -0.0280    2.3810 c         1 XTN      0.706700
      6 O4          2.2010   -0.0420    3.3950 o         1 XTN     -0.436100
      7 N5         -0.6590   -0.0270    3.6130 n         1 XTN     -0.408100
      8 C6         -2.0700   -0.0190    3.6550 c         1 XTN      0.554200
      9 O6         -2.6580   -0.0260    4.7390 o         1 XTN     -0.524500
     10 C7         -2.7430   -0.0030    2.3190 cc        1 XTN      0.436200
     11 N8         -2.1320    0.0050    1.1730 nd        1 XTN     -0.513300
     12 C4A         0.0050   -0.0190    2.4100 cc        1 XTN     -0.047600
     13 C8A        -0.7230   -0.0040    1.2040 cd        1 XTN      0.206600
     14 HN1        -0.5700    0.0160   -0.8790 hn        1 XTN      0.492800
     15 HN2         1.8490    0.8530   -1.8210 hn        1 XTN      0.488467
     16 HN2A        1.8390   -0.8310   -1.8370 hn        1 XTN      0.488467
     17 H7         -3.8530    0.0040    2.3300 h4        1 XTN      0.095800
     18 H5         -0.1280   -0.0380    4.4640 hn        1 XTN      0.377500
     19 H23         3.1030   -0.0040   -1.1050 hn        1 XTN      0.488467
@<TRIPOS>BOND
     1    1    2 1   
     2    1   13 1   
     3    1   14 1   
     4    2    3 1   
     5    2    4 2   
     6    3   15 1   
     7    3   16 1   
     8    3   19 1   
     9    4    5 1   
    10    5    6 2   
    11    5   12 1   
    12    7    8 1   
    13    7   12 1   
    14    7   18 1   
    15    8    9 2   
    16    8   10 1   
    17   10   11 2   
    18   10   17 1   
    19   11   13 1   
    20   12   13 2   
@<TRIPOS>SUBSTRUCTURE
     1 XTN         1 TEMP              0 ****  ****    0 ROOT
