@<TRIPOS>MOLECULE
XTR
   37    35     1     0     0
SMALL
bcc


@<TRIPOS>ATOM
      1 OP3        -5.5150    2.3560    3.1160 o         1 XTR     -0.930500
      2 C4'        -1.7680   -0.5510    2.0030 c3        1 XTR     -0.200000
      3 C7'        -1.1790   -0.9310   -0.5540 c1        1 XTR     -0.293000
      4 C6'        -2.2410   -1.0780    0.7630 c2        1 XTR     -0.049000
      5 C1'         0.2770   -0.9790   -0.2270 c3        1 XTR      0.075000
      6 O4          3.2400    1.4220   -4.3350 o         1 XTR     -0.396000
      7 C4          2.5990    0.9050   -3.4230 c1        1 XTR      0.362000
      8 C5          2.8000   -0.5110   -3.0960 c1        1 XTR     -0.300000
      9 C5M         3.8540   -1.3190   -3.8320 c3        1 XTR     -0.135000
     10 C6          2.0300   -1.1280   -1.9950 c1        1 XTR      0.079000
     11 N3          1.6120    1.6590   -2.7320 n         1 XTR     -0.377000
     12 C2          0.7840    1.0160   -1.7060 c2        1 XTR      0.391000
     13 O2         -0.1640    1.6150   -1.2230 o         1 XTR     -0.352000
     14 N1          1.0600   -0.3650   -1.2990 n         1 XTR     -0.231000
     15 C2'         0.6110   -0.3170    1.2190 c3        1 XTR     -0.177000
     16 C3'        -0.0810   -0.7280    2.1800 c3        1 XTR      0.077000
     17 P          -4.0090    2.3120    3.1690 p5        1 XTR      1.565500
     18 OP1        -3.5570    2.3100    4.6080 o         1 XTR     -0.930500
     19 OP2        -3.4440    3.5270    2.4650 o         1 XTR     -0.930500
     20 O5'        -3.4960    1.0050    2.4560 os        1 XTR     -0.725000
     21 C5'        -2.1510    0.9090    2.1460 c3        1 XTR      0.101000
     22 O3'         0.2160   -2.1890    2.3790 oh        1 XTR     -0.418000
     23 H4'        -2.2610   -0.9490    2.7590 hc        1 XTR      0.164000
     24 H7'        -1.4820   -1.1550   -1.4470 DU        1 XTR      0.143500
     25 H6'        -3.2040   -1.1730    0.6070 ha        1 XTR      0.131000
     26 H1'         0.6110   -1.9030   -0.2580 h1        1 XTR      0.121000
     27 H5M         3.8930   -2.2210   -3.4590 hc        1 XTR      0.076000
     28 H5MA        3.6210   -1.3690   -4.7870 hc        1 XTR      0.076000
     29 H5MB        4.7340   -0.8820   -3.7300 hc        1 XTR      0.076000
     30 H6          2.1620   -2.0750   -1.7730 DU        1 XTR      0.143500
     31 HN3         1.4610    2.5410   -2.9620 hn        1 XTR      0.249000
     32 H2'         1.5520   -0.4930    1.4240 hc        1 XTR      0.086500
     33 H2'A        0.4900    0.6430    1.1470 hc        1 XTR      0.086500
     34 H3'         0.1940   -0.2450    2.9860 h1        1 XTR      0.067000
     35 H5'        -1.6240    1.3150    2.8580 h1        1 XTR      0.029500
     36 H5'A       -1.9770    1.3750    1.3060 h1        1 XTR      0.029500
     37 HO3'        0.3530   -2.3490    3.2470 ho        1 XTR      0.315000
@<TRIPOS>BOND
     1    1   17 1   
     2    2    4 1   
     3    2   16 1   
     4    2   21 1   
     5    2   23 1   
     6    3    4 1   
     7    3    5 1   
     8    4   25 1   
     9    5   14 1   
    10    5   15 1   
    11    5   26 1   
    12    6    7 1   
    13    7   11 1   
    14    8    9 1   
    15    8   10 1   
    16    9   27 1   
    17    9   28 1   
    18    9   29 1   
    19   10   14 1   
    20   11   12 1   
    21   11   31 1   
    22   12   13 1   
    23   12   14 1   
    24   15   16 1   
    25   15   32 1   
    26   15   33 1   
    27   16   22 1   
    28   16   34 1   
    29   17   18 1   
    30   17   19 1   
    31   17   20 1   
    32   20   21 1   
    33   21   35 1   
    34   21   36 1   
    35   22   37 1   
@<TRIPOS>SUBSTRUCTURE
     1 XTR         1 TEMP              0 ****  ****    0 ROOT
