@<TRIPOS>MOLECULE
XTR
   37    38     1     0     0
SMALL
bcc


@<TRIPOS>ATOM
      1 OP3        -3.5620    2.1370    0.6100 o         1 XTR     -0.925833
      2 C4'        -1.2540   -2.0520    0.0920 c3        1 XTR     -0.118500
      3 C7'         0.6970   -1.7140   -1.4290 c2        1 XTR     -0.267200
      4 C6'        -0.6100   -1.9130   -1.2350 c2        1 XTR     -0.045200
      5 C1'         1.7020   -1.6380   -0.3180 c3        1 XTR      0.164900
      6 C4          3.8390    2.1160   -0.3970 c         1 XTR      0.714700
      7 C5          2.3930    2.0620   -0.2250 cc        1 XTR     -0.298400
      8 C5M         1.6410    3.3250   -0.0730 c3        1 XTR     -0.043900
      9 C6          1.7380    0.8560   -0.1900 cd        1 XTR      0.067600
     10 N3          4.4930    0.8700   -0.5150 n         1 XTR     -0.597500
     11 C2          3.8130   -0.3580   -0.4780 c         1 XTR      0.787500
     12 O2          4.4890   -1.4150   -0.5990 o         1 XTR     -0.722500
     13 N1          2.4140   -0.3510   -0.3090 n         1 XTR     -0.348000
     14 C2'         1.0850   -2.0090    1.0400 c3        1 XTR     -0.084400
     15 C3'        -0.3450   -1.5110    1.2030 c3        1 XTR      0.136100
     16 P          -2.4200    1.2140    0.8780 p5        1 XTR      1.346900
     17 OP1        -1.0200    1.6760    0.5280 o         1 XTR     -0.925833
     18 OP2        -2.4410    0.4070    2.1550 o         1 XTR     -0.925833
     19 O5'        -2.5820   -0.0310   -0.3140 os        1 XTR     -0.573200
     20 C5'        -2.6270   -1.3260    0.1190 c3        1 XTR      0.234400
     21 O3'        -0.8060   -1.9580    2.4700 oh        1 XTR     -0.671800
     22 H4'        -1.4480   -3.1450    0.2840 hc        1 XTR      0.026700
     23 H7'         1.1120   -1.5890   -2.4400 ha        1 XTR      0.102000
     24 H6'        -1.3020   -1.9560   -2.0930 ha        1 XTR      0.114000
     25 H1'         2.4960   -2.4240   -0.5360 h1        1 XTR      0.062700
     26 H5M         1.7020    3.9260   -1.0140 hc        1 XTR      0.058033
     27 H5MA        0.5570    3.0990    0.1570 hc        1 XTR      0.058033
     28 H5MB        2.0770    3.9350    0.7550 hc        1 XTR      0.058033
     29 H6          0.6030    0.8340   -0.0460 h4        1 XTR      0.314000
     30 HN3         5.4790    0.8360   -0.6260 hn        1 XTR      0.317500
     31 H2'         1.0920   -3.1280    1.1140 hc        1 XTR      0.037700
     32 H2'A        1.7050   -1.6150    1.8850 hc        1 XTR      0.037700
     33 H3'        -0.3990   -0.3740    1.1690 h1        1 XTR      0.130700
     34 H5'        -3.3080   -1.9130   -0.5710 h1        1 XTR     -0.003300
     35 H5'A       -3.0230   -1.3930    1.1720 h1        1 XTR     -0.003300
     36 HO3'       -1.4710   -1.2940    2.7490 ho        1 XTR      0.478000
     37 O4          4.5610    3.1350   -0.4530 o         1 XTR     -0.693500
@<TRIPOS>BOND
     1    1   16 1   
     2    2    4 1   
     3    2   15 1   
     4    2   20 1   
     5    2   22 1   
     6    3    4 2   
     7    3    5 1   
     8    3   23 1   
     9    4   24 1   
    10    5   13 1   
    11    5   14 1   
    12    5   25 1   
    13    6    7 1   
    14    6   10 1   
    15    6   37 2   
    16    7    8 1   
    17    7    9 2   
    18    8   26 1   
    19    8   27 1   
    20    8   28 1   
    21    9   13 1   
    22    9   29 1   
    23   10   11 1   
    24   10   30 1   
    25   11   12 2   
    26   11   13 1   
    27   14   15 1   
    28   14   31 1   
    29   14   32 1   
    30   15   21 1   
    31   15   33 1   
    32   16   17 1   
    33   16   18 1   
    34   16   19 1   
    35   19   20 1   
    36   20   34 1   
    37   20   35 1   
    38   21   36 1   
@<TRIPOS>SUBSTRUCTURE
     1 XTR         1 TEMP              0 ****  ****    0 ROOT
