@<TRIPOS>MOLECULE
XTS
   32    31     1     0     0
SMALL
bcc


@<TRIPOS>ATOM
      1 O6         -4.3900    0.4680    3.2740 o         1 XTS     -0.302000
      2 C6         -3.8580    0.7320    2.2020 c1        1 XTS      0.405000
      3 N1         -4.5670    1.4350    1.2260 n2        1 XTS     -0.370000
      4 C2         -3.9610    1.7190   -0.0260 c2        1 XTS      0.413000
      5 O2         -4.5540    2.3910   -0.8460 o         1 XTS     -0.360000
      6 N3         -2.6300    1.2470   -0.3060 n         1 XTS     -0.300000
      7 C4         -1.8660    0.5620    0.7320 c2        1 XTS      0.108000
      8 C5         -2.4480    0.2840    1.9300 c2        1 XTS     -0.229000
      9 N7         -1.5630   -0.3890    2.6740 n2        1 XTS     -0.040000
     10 C8         -0.4290   -0.5340    1.9460 c1        1 XTS     -0.100000
     11 N9         -0.6240    0.0560    0.7490 n2        1 XTS     -0.195000
     12 C1'         0.5210    0.2150   -0.1030 c2        1 XTS      0.121000
     13 O4'         1.5990    0.1860    0.6000 os        1 XTS     -0.277000
     14 C4'         2.6570   -0.4940   -0.3090 c3        1 XTS     -0.059000
     15 C5'         3.5740    0.4440   -0.7670 c3        1 XTS     -0.017000
     16 O5'         4.3880    0.8710    0.2980 oh        1 XTS     -0.314000
     17 C3'         1.8710   -1.0940   -1.4990 c3        1 XTS     -0.034000
     18 O3'         2.2790   -2.5380   -1.7310 oh        1 XTS     -0.333000
     19 C2'         0.6200   -1.0250   -1.1420 c3        1 XTS      0.024000
     20 O2'         0.2070   -2.2740   -0.4800 oh        1 XTS     -0.285000
     21 HN1        -5.4140    1.6370    1.3590 hn        1 XTS      0.271000
     22 HN3        -2.2300    1.4350   -1.1360 hn        1 XTS      0.268000
     23 H8          0.3940   -0.8820    2.2660 DU        1 XTS      0.223000
     24 H1'         0.4630    1.0620   -0.5950 h4        1 XTS      0.137000
     25 H4'         3.1070   -1.1890    0.1730 h1        1 XTS      0.129000
     26 H5'1        4.1460    0.0290   -1.4770 h1        1 XTS      0.094000
     27 H5'2        3.0840    1.2310   -1.1500 h1        1 XTS      0.094000
     28 HO5'        5.1740    1.1580   -0.0270 ho        1 XTS      0.216000
     29 H3'         2.0250   -0.5660   -2.2990 h1        1 XTS      0.112000
     30 HO3'        2.7180   -2.6140   -2.5660 ho        1 XTS      0.227000
     31 H2'         0.0270   -0.8460   -1.9620 h1        1 XTS      0.140000
     32 HO2'       -0.3200   -2.7190   -1.0080 ho        1 XTS      0.232000
@<TRIPOS>BOND
     1    1    2 1   
     2    2    8 1   
     3    3    4 1   
     4    3   21 1   
     5    4    5 1   
     6    4    6 1   
     7    6    7 1   
     8    6   22 1   
     9    7    8 1   
    10    7   11 1   
    11    8    9 1   
    12    9   10 1   
    13   10   11 1   
    14   12   13 1   
    15   12   19 1   
    16   12   24 1   
    17   13   14 1   
    18   14   15 1   
    19   14   17 1   
    20   14   25 1   
    21   15   16 1   
    22   15   26 1   
    23   15   27 1   
    24   16   28 1   
    25   17   18 1   
    26   17   19 1   
    27   17   29 1   
    28   18   30 1   
    29   19   20 1   
    30   19   31 1   
    31   20   32 1   
@<TRIPOS>SUBSTRUCTURE
     1 XTS         1 TEMP              0 ****  ****    0 ROOT
