@<TRIPOS>MOLECULE
XTS
   32    34     1     0     0
SMALL
bcc


@<TRIPOS>ATOM
      1 O6         -4.7260   -4.7350   -1.8490 o         1 XTS     -0.577500
      2 C6         -4.1850   -4.3400   -0.8080 c         1 XTS      0.657000
      3 N1         -4.2130   -5.1780    0.3320 n         1 XTS     -0.592500
      4 C2         -3.6510   -4.8590    1.5760 c         1 XTS      0.817500
      5 O2         -3.7370   -5.6340    2.5510 o         1 XTS     -0.632500
      6 N3         -2.9490   -3.6380    1.7390 n         1 XTS     -0.441100
      7 C4         -2.9120   -2.7650    0.6720 cc        1 XTS      0.005000
      8 C5         -3.4960   -3.0720   -0.6030 cd        1 XTS      0.181800
      9 N7         -3.2880   -2.0140   -1.4900 nd        1 XTS     -0.566000
     10 C8         -2.6050   -1.0930   -0.7960 cc        1 XTS      0.391400
     11 N9         -2.3140   -1.5050    0.5390 na        1 XTS     -0.262900
     12 C1'        -1.7600   -0.6560    1.5710 c3        1 XTS      0.213800
     13 O4'        -1.4840   -1.4080    2.7580 os        1 XTS     -0.433600
     14 C4'        -0.0800   -1.7330    2.8490 c3        1 XTS      0.051100
     15 C5'         0.3780   -1.3690    4.2620 c3        1 XTS      0.132400
     16 O5'        -0.2950   -2.1410    5.2280 oh        1 XTS     -0.581800
     17 C3'         0.6640   -0.9320    1.7680 c3        1 XTS      0.087100
     18 O3'         1.2110   -1.7450    0.7560 oh        1 XTS     -0.575800
     19 C2'        -0.4020    0.0320    1.1970 c3        1 XTS      0.090100
     20 O2'        -0.2480    0.3400   -0.1570 oh        1 XTS     -0.570800
     21 HN1        -4.6780   -6.0590    0.2680 hn        1 XTS      0.357500
     22 HN3        -2.6310   -3.3810    2.6480 hn        1 XTS      0.366500
     23 H8         -2.2640   -0.1170   -1.1670 h5        1 XTS      0.090100
     24 H1'        -2.5410    0.1040    1.8750 h2        1 XTS      0.106700
     25 H4'         0.0100   -2.8420    2.6840 h1        1 XTS      0.090700
     26 H5'1        0.2190   -0.2740    4.4470 h1        1 XTS      0.061200
     27 H5'2        1.4640   -1.6290    4.3840 h1        1 XTS      0.061200
     28 HO5'       -1.2350   -1.9250    5.1660 ho        1 XTS      0.412000
     29 H3'         1.5430   -0.3670    2.1820 h1        1 XTS      0.113700
     30 HO3'        0.5490   -2.4040    0.5030 ho        1 XTS      0.414000
     31 H2'        -0.3700    1.0230    1.7320 h1        1 XTS      0.102700
     32 HO2'        0.1580   -0.4190   -0.6070 ho        1 XTS      0.430000
@<TRIPOS>BOND
     1    1    2 2   
     2    2    3 1   
     3    2    8 1   
     4    3    4 1   
     5    3   21 1   
     6    4    5 2   
     7    4    6 1   
     8    6    7 1   
     9    6   22 1   
    10    7    8 2   
    11    7   11 1   
    12    8    9 1   
    13    9   10 2   
    14   10   11 1   
    15   10   23 1   
    16   11   12 1   
    17   12   13 1   
    18   12   19 1   
    19   12   24 1   
    20   13   14 1   
    21   14   15 1   
    22   14   17 1   
    23   14   25 1   
    24   15   16 1   
    25   15   26 1   
    26   15   27 1   
    27   16   28 1   
    28   17   18 1   
    29   17   19 1   
    30   17   29 1   
    31   18   30 1   
    32   19   20 1   
    33   19   31 1   
    34   20   32 1   
@<TRIPOS>SUBSTRUCTURE
     1 XTS         1 TEMP              0 ****  ****    0 ROOT
