@<TRIPOS>MOLECULE
XTY
   40    42     1     0     0
SMALL
bcc


@<TRIPOS>ATOM
      1 P           0.1490    4.3220   -2.4880 p5        1 XTY      1.336900
      2 OP1         0.7720    4.2320   -1.1090 o         1 XTY     -0.927500
      3 OP2         0.7850    5.2750   -3.4510 o         1 XTY     -0.927500
      4 C5'         0.2430    1.7200   -2.3230 c3        1 XTY      0.234400
      5 C4'         1.3630    0.6530   -2.2800 c3        1 XTY      0.069100
      6 O4'         2.4550    1.0530   -1.4320 os        1 XTY     -0.378600
      7 C3'         0.8410   -0.6990   -1.7580 c3        1 XTY      0.111100
      8 C2'         1.5790   -0.9560   -0.4430 c3        1 XTY     -0.114400
      9 C1'         2.5520    0.2200   -0.2780 c3        1 XTY      0.192400
     10 O5'         0.5990    2.7590   -3.1300 os        1 XTY     -0.551200
     11 C2          3.2840   -1.4940    3.5960 c         1 XTY      0.806500
     12 O2          3.6740   -2.6880    3.6740 o         1 XTY     -0.706500
     13 N3          3.1110   -0.7310    4.7610 n         1 XTY     -0.595500
     14 C4          2.6680    0.6040    4.7380 c         1 XTY      0.734100
     15 O4          2.5470    1.1830    5.8360 o         1 XTY     -0.660500
     16 C5          2.3940    1.1900    3.4220 ca        1 XTY     -0.233600
     17 C6          2.5790    0.4210    2.2450 ca        1 XTY      0.079600
     18 N           3.0240   -0.9050    2.3610 n         1 XTY     -0.451100
     19 CP          1.9470    2.5170    3.3270 ca        1 XTY     -0.079000
     20 CD          1.8810    2.3290    0.9140 ca        1 XTY     -0.011000
     21 C8          2.3190    1.0070    0.9800 ca        1 XTY     -0.167300
     22 C7          1.6890    3.0870    2.0870 ca        1 XTY     -0.079300
     23 C7A         1.2120    4.4840    1.9660 c3        1 XTY     -0.094800
     24 O3'         1.1170   -1.7860   -2.6380 oh        1 XTY     -0.633800
     25 OP3        -1.3470    4.2040   -2.4820 o         1 XTY     -0.927500
     26 H5'1        0.0090    2.0630   -1.2760 h1        1 XTY     -0.002300
     27 H5'2       -0.6590    1.1730   -2.7450 h1        1 XTY     -0.002300
     28 H4'         1.8240    0.5600   -3.3020 h1        1 XTY      0.060700
     29 H3'        -0.2710   -0.6670   -1.5970 h1        1 XTY      0.056700
     30 H2'1        2.1330   -1.9270   -0.4920 hc        1 XTY      0.048200
     31 H2'2        0.8530   -1.0030    0.4040 hc        1 XTY      0.048200
     32 H1'         3.6210   -0.1470   -0.2770 h1        1 XTY      0.030700
     33 HN          3.1170   -1.4700    1.5480 hn        1 XTY      0.349500
     34 HP          1.8050    3.0910    4.2550 ha        1 XTY      0.136000
     35 HD          1.6580    2.8240   -0.0860 ha        1 XTY      0.302000
     36 H7A1        2.0350    5.1940    2.2280 hc        1 XTY      0.071033
     37 H7A2        0.8820    4.6890    0.8990 hc        1 XTY      0.071033
     38 H7A3        0.3560    4.6670    2.6600 hc        1 XTY      0.071033
     39 HO3'        1.0280   -1.4440   -3.5350 ho        1 XTY      0.405000
     40 HN3         3.3070   -1.1740    5.6290 hn        1 XTY      0.331500
@<TRIPOS>BOND
     1    1    2 1   
     2    1    3 1   
     3    1   10 1   
     4    1   25 1   
     5    4    5 1   
     6    4   10 1   
     7    4   26 1   
     8    4   27 1   
     9    5    6 1   
    10    5    7 1   
    11    5   28 1   
    12    6    9 1   
    13    7    8 1   
    14    7   24 1   
    15    7   29 1   
    16    8    9 1   
    17    8   30 1   
    18    8   31 1   
    19    9   21 1   
    20    9   32 1   
    21   11   12 2   
    22   11   13 1   
    23   11   18 1   
    24   13   14 1   
    25   13   40 1   
    26   14   15 2   
    27   14   16 1   
    28   16   17 ar  
    29   16   19 ar  
    30   17   18 1   
    31   17   21 ar  
    32   18   33 1   
    33   19   22 ar  
    34   19   34 1   
    35   20   21 ar  
    36   20   22 ar  
    37   20   35 1   
    38   22   23 1   
    39   23   36 1   
    40   23   37 1   
    41   23   38 1   
    42   24   39 1   
@<TRIPOS>SUBSTRUCTURE
     1 XTY         1 TEMP              0 ****  ****    0 ROOT
