@<TRIPOS>MOLECULE
XTZ
   45    38     1     0     0
SMALL
bcc


@<TRIPOS>ATOM
      1 O3         -1.3670    3.5180    4.5010 o         1 XTZ     -0.328000
      2 C16        -0.5870    2.9380    5.2280 c1        1 XTZ      0.392000
      3 N2         -0.5150    3.2800    6.6080 n2        1 XTZ     -0.352000
      4 C3          0.1480    1.7640    4.7280 c2        1 XTZ     -0.319000
      5 N4          0.1110    1.3380    3.2730 n2        1 XTZ     -0.026000
      6 C4          0.7320    0.0500    2.9210 c1        1 XTZ     -0.141000
      7 C15         1.2340   -0.7840    4.0310 c2        1 XTZ      0.000000
      8 N8          1.7770   -0.0030    5.0890 n3        1 XTZ     -0.305000
      9 C2          0.9980    1.0020    5.6360 c1        1 XTZ      0.240000
     10 N3          1.0670    1.3620    7.0120 n1        1 XTZ     -0.316000
     11 C1          0.2670    2.4600    7.5210 c1        1 XTZ      0.288000
     12 N1          0.2730    2.7620    8.9530 n2        1 XTZ     -0.350000
     13 C5          0.4470   -0.5700    1.5870 c3        1 XTZ      0.032000
     14 N5          1.0530    0.2190    0.5530 n3        1 XTZ     -0.305000
     15 C6          0.7770   -0.0830   -0.8430 c1        1 XTZ      0.174000
     16 C14         1.6110   -0.9760   -1.5470 c1        1 XTZ     -0.105500
     17 C13         1.3840   -1.2210   -2.9000 c1        1 XTZ     -0.105500
     18 C9          0.3250   -0.5780   -3.5600 c1        1 XTZ     -0.930000
     19 C8         -0.5080    0.3160   -2.8520 c1        1 XTZ      0.033000
     20 C7         -0.2820    0.5600   -1.5060 c1        1 XTZ     -0.238000
     21 S1          0.0920   -0.7940   -5.3880 s4        1 XTZ      2.101800
     22 O1          0.2140    0.4370   -6.0630 o         1 XTZ     -0.528900
     23 O2          1.1640   -1.5380   -5.9720 o         1 XTZ     -0.528900
     24 N6         -1.3750   -1.5100   -5.6980 n2        1 XTZ     -0.775000
     25 C10        -1.7320   -1.8370   -7.0250 c2        1 XTZ     -0.103000
     26 S2         -3.0810   -1.5910   -7.6710 ss        1 XTZ      0.433000
     27 C12        -3.0330   -2.1770   -9.0550 c1        1 XTZ     -0.472000
     28 C11        -1.7460   -2.7440   -9.2450 c1        1 XTZ     -0.090000
     29 N7         -0.9250   -2.5250   -7.9540 n2        1 XTZ     -0.162000
     30 H1          1.8140   -1.4900    3.8290 h4        1 XTZ      0.088000
     31 H3         -0.2100    2.2610    9.5130 hn        1 XTZ      0.233000
     32 H4          0.8520    3.4190    9.2920 hn        1 XTZ      0.233000
     33 H5          0.8060   -1.4610    1.5620 h1        1 XTZ      0.092000
     34 H6         -0.5750   -0.6060    1.4390 h1        1 XTZ      0.092000
     35 H7          1.6990    0.9000    0.7810 hn        1 XTZ      0.250000
     36 H8          2.3590   -1.4300   -1.0790 ha        1 XTZ      0.145500
     37 H9          1.9530   -1.8310   -3.3810 ha        1 XTZ      0.145500
     38 H10        -1.2630    0.7740   -3.3230 ha        1 XTZ      0.154000
     39 H11        -0.8730    1.1920   -1.0090 ha        1 XTZ      0.145000
     40 H12        -1.8990   -1.7940   -5.0040 hn        1 XTZ      0.251000
     41 H13        -3.7530   -2.1700   -9.7030 DU        1 XTZ      0.183000
     42 H14        -1.4240   -3.2060  -10.0720 DU        1 XTZ      0.183000
     43 H15        -0.9990    3.9450    6.9210 hn        1 XTZ      0.250000
     44 H16         0.4410   -1.2970    4.3540 h4        1 XTZ      0.088000
     45 H17         2.5480   -0.2790    5.5190 hn        1 XTZ      0.254000
@<TRIPOS>BOND
     1    1    2 1   
     2    2    4 1   
     3    3   11 1   
     4    3   43 1   
     5    4    5 1   
     6    4    9 1   
     7    5    6 1   
     8    6   13 1   
     9    7    8 1   
    10    7   30 1   
    11    7   44 1   
    12    8    9 1   
    13    8   45 1   
    14   10   11 1   
    15   12   31 1   
    16   12   32 1   
    17   13   14 1   
    18   13   33 1   
    19   13   34 1   
    20   14   15 1   
    21   14   35 1   
    22   15   20 1   
    23   16   17 1   
    24   16   36 1   
    25   17   37 1   
    26   18   19 1   
    27   18   21 1   
    28   19   38 1   
    29   20   39 1   
    30   21   22 1   
    31   21   23 1   
    32   24   25 1   
    33   24   40 1   
    34   25   26 1   
    35   25   29 1   
    36   26   27 1   
    37   27   28 1   
    38   28   29 1   
@<TRIPOS>SUBSTRUCTURE
     1 XTZ         1 TEMP              0 ****  ****    0 ROOT
