@<TRIPOS>MOLECULE
XTZ
   45    48     1     0     0
SMALL
bcc


@<TRIPOS>ATOM
      1 O3         -4.8210   -2.6030   -1.0430 o         1 XTZ     -0.602500
      2 C16        -5.5090   -1.6970   -0.5490 c         1 XTZ      0.752700
      3 N2         -6.9130   -1.9300   -0.5080 n         1 XTZ     -0.512400
      4 C3         -5.0600   -0.4230    0.0010 cc        1 XTZ     -0.195600
      5 N4         -3.6960   -0.1430   -0.0070 ne        1 XTZ     -0.454300
      6 C4         -3.3040    1.0030    0.4640 c2        1 XTZ      0.300300
      7 C15        -4.2230    2.0690    1.0310 c3        1 XTZ      0.160500
      8 N8         -5.6120    1.6830    1.0570 nh        1 XTZ     -0.750000
      9 C2         -6.0310    0.4860    0.5210 cd        1 XTZ      0.460600
     10 N3         -7.3940    0.2090    0.5320 nd        1 XTZ     -0.744300
     11 C1         -7.7960   -0.9710   -0.0040 cc        1 XTZ      0.732800
     12 N1         -9.1710   -1.2170   -0.1000 nh        1 XTZ     -0.911800
     13 C5         -1.8460    1.4000    0.5420 c3        1 XTZ      0.192500
     14 N5         -1.0190    0.8870   -0.5170 nh        1 XTZ     -0.748600
     15 C6          0.3540    0.9910   -0.4530 ca        1 XTZ      0.255600
     16 C14         1.0090    1.8360    0.4850 ca        1 XTZ     -0.244000
     17 C13         2.3850    1.9590    0.4690 ca        1 XTZ      0.050000
     18 C9          3.1850    1.2660   -0.4540 ca        1 XTZ     -0.482500
     19 C8          2.5350    0.4310   -1.3800 ca        1 XTZ      0.050000
     20 C7          1.1610    0.2850   -1.3900 ca        1 XTZ     -0.244000
     21 S1          4.8230    1.4620   -0.4770 sy        1 XTZ      1.533200
     22 O1          5.3440    1.1920   -1.7500 o         1 XTZ     -0.649300
     23 O2          5.1630    2.7200    0.0790 o         1 XTZ     -0.649300
     24 N6          5.3890    0.3660    0.6380 nh        1 XTZ     -0.832800
     25 C10         5.3240   -1.0110    0.5510 cc        1 XTZ      0.679300
     26 S2          6.1180   -2.0470    1.7200 ss        1 XTZ     -0.147300
     27 C12         5.5680   -3.4080    0.9070 cc        1 XTZ     -0.265400
     28 C11         4.8220   -3.0490   -0.2010 cd        1 XTZ      0.372200
     29 N7          4.6710   -1.6910   -0.4150 nd        1 XTZ     -0.703000
     30 H1         -3.9000    2.3080    2.0870 h1        1 XTZ      0.048700
     31 H3         -9.4720   -2.1620   -0.1360 hn        1 XTZ      0.437300
     32 H4         -9.7720   -0.5810    0.3740 hn        1 XTZ      0.437300
     33 H5         -1.7880    2.5290    0.5140 h1        1 XTZ      0.051700
     34 H6         -1.4600    1.0610    1.5510 h1        1 XTZ      0.051700
     35 H7         -1.3910    0.1500   -1.0770 hn        1 XTZ      0.453800
     36 H8          0.4270    2.4050    1.2240 ha        1 XTZ      0.140000
     37 H9          2.8750    2.6360    1.1930 ha        1 XTZ      0.156000
     38 H10         3.1450   -0.1180   -2.1220 ha        1 XTZ      0.156000
     39 H11         0.6920   -0.3810   -2.1290 ha        1 XTZ      0.140000
     40 H12         5.8370    0.6960    1.4640 hn        1 XTZ      0.457800
     41 H13         5.7840   -4.4240    1.2260 h4        1 XTZ      0.182000
     42 H14         4.3470   -3.7360   -0.9120 h4        1 XTZ      0.046100
     43 H15        -7.2490   -2.7750   -0.9180 hn        1 XTZ      0.336500
     44 H16        -4.1130    3.0110    0.4150 h1        1 XTZ      0.048700
     45 H17        -6.2730    2.3480    1.3840 hn        1 XTZ      0.457800
@<TRIPOS>BOND
     1    1    2 2   
     2    2    3 1   
     3    2    4 1   
     4    3   11 1   
     5    3   43 1   
     6    4    5 1   
     7    4    9 2   
     8    5    6 2   
     9    6    7 1   
    10    6   13 1   
    11    7    8 1   
    12    7   30 1   
    13    7   44 1   
    14    8    9 1   
    15    8   45 1   
    16    9   10 1   
    17   10   11 2   
    18   11   12 1   
    19   12   31 1   
    20   12   32 1   
    21   13   14 1   
    22   13   33 1   
    23   13   34 1   
    24   14   15 1   
    25   14   35 1   
    26   15   16 ar  
    27   15   20 ar  
    28   16   17 ar  
    29   16   36 1   
    30   17   18 ar  
    31   17   37 1   
    32   18   19 ar  
    33   18   21 1   
    34   19   20 ar  
    35   19   38 1   
    36   20   39 1   
    37   21   22 2   
    38   21   23 2   
    39   21   24 1   
    40   24   25 1   
    41   24   40 1   
    42   25   26 1   
    43   25   29 2   
    44   26   27 1   
    45   27   28 2   
    46   27   41 1   
    47   28   29 1   
    48   28   42 1   
@<TRIPOS>SUBSTRUCTURE
     1 XTZ         1 TEMP              0 ****  ****    0 ROOT
