@<TRIPOS>MOLECULE
XTZ
   48    51     1     0     0
SMALL
bcc


@<TRIPOS>ATOM
      1 O3          1.0020   -1.8190    0.3590 o         1 XTZ     -0.506500
      2 C16         1.9330   -1.0320    0.2070 c         1 XTZ      0.753700
      3 N2          2.8440   -0.8970    1.3170 n         1 XTZ     -0.484400
      4 C3          2.2410   -0.2060   -0.9630 cc        1 XTZ     -0.151600
      5 N4          1.3970   -0.2980   -2.0610 ne        1 XTZ     -0.471300
      6 C4          1.6620    0.4320   -3.1060 c2        1 XTZ      0.282300
      7 C15         2.8330    1.3920   -3.2290 c3        1 XTZ      0.159500
      8 N8          3.6640    1.4280   -2.0420 nh        1 XTZ     -0.703000
      9 C2          3.3780    0.6580   -0.9530 cd        1 XTZ      0.463600
     10 N3          4.2230    0.7340    0.1750 nd        1 XTZ     -0.632300
     11 C1          3.9120   -0.0310    1.2180 cc        1 XTZ      0.622800
     12 N1          4.8430    0.0850    2.3960 n4        1 XTZ     -0.813600
     13 C5          0.8040    0.3980   -4.3470 c3        1 XTZ      0.095500
     14 N5         -0.3660   -0.5410   -4.2560 n4        1 XTZ     -0.641400
     15 C6         -1.1590   -0.5530   -5.4940 ca        1 XTZ      0.045600
     16 C14        -0.7910   -1.4110   -6.5470 ca        1 XTZ     -0.128000
     17 C13        -1.5510   -1.4160   -7.7140 ca        1 XTZ      0.037000
     18 C9         -2.6750   -0.5830   -7.8620 ca        1 XTZ     -0.416500
     19 C8         -3.0280    0.2560   -6.7940 ca        1 XTZ      0.037000
     20 C7         -2.2830    0.2790   -5.6120 ca        1 XTZ     -0.128000
     21 S1         -3.4630   -0.4890   -9.3220 sy        1 XTZ      1.447200
     22 O1         -4.1620    0.6790   -9.4810 o         1 XTZ     -0.529800
     23 O2         -2.7020   -1.0550  -10.3240 o         1 XTZ     -0.529800
     24 N6         -4.7520   -1.8590   -9.1240 n4        1 XTZ     -0.630600
     25 C10        -6.0050   -1.3240   -8.6550 cc        1 XTZ      0.249300
     26 S2         -7.5190   -1.5170   -9.4020 ss        1 XTZ      0.288700
     27 C12        -8.2500   -0.6390   -8.2410 cc        1 XTZ     -0.246400
     28 C11        -7.3230   -0.2000   -7.2700 cd        1 XTZ      0.374200
     29 N7         -6.0430   -0.5880   -7.4940 nd        1 XTZ     -0.651000
     30 H1          3.4780    1.0870   -4.1070 h1        1 XTZ      0.087700
     31 H3          5.2710   -0.8320    2.5930 hn        1 XTZ      0.500800
     32 H4          5.5950    0.7660    2.1860 hn        1 XTZ      0.500800
     33 H5          0.4020    1.4370   -4.5440 hx        1 XTZ      0.125200
     34 H6          1.4400    0.0760   -5.2240 hx        1 XTZ      0.125200
     35 H7         -0.9670   -0.2590   -3.4650 hn        1 XTZ      0.482300
     36 H8          0.0860   -2.0790   -6.4740 ha        1 XTZ      0.186500
     37 H9         -1.2370   -2.0750   -8.5500 ha        1 XTZ      0.207000
     38 H10        -3.9050    0.9330   -6.8830 ha        1 XTZ      0.207000
     39 H11        -2.6000    0.9540   -4.7960 ha        1 XTZ      0.186500
     40 H12        -4.4390   -2.5840   -8.4730 hn        1 XTZ      0.465800
     41 H13        -9.3210   -0.4010   -8.2000 h4        1 XTZ      0.239000
     42 H14        -7.5690    0.4100   -6.3870 h4        1 XTZ      0.086100
     43 H15         2.6570   -1.4510    2.1320 hn        1 XTZ      0.374500
     44 H16         2.4420    2.4360   -3.4220 h1        1 XTZ      0.087700
     45 H17         4.4560    2.0400   -2.0560 hn        1 XTZ      0.498800
     46 H131        4.3210    0.4120    3.2220 hn        1 XTZ      0.500800
     47 H52        -0.0210   -1.4950   -4.0640 hn        1 XTZ      0.482300
     48 H62        -4.9110   -2.3220  -10.0250 hn        1 XTZ      0.465800
@<TRIPOS>BOND
     1    1    2 2   
     2    2    3 1   
     3    2    4 1   
     4    3   11 1   
     5    3   43 1   
     6    4    5 1   
     7    4    9 2   
     8    5    6 2   
     9    6    7 1   
    10    6   13 1   
    11    7    8 1   
    12    7   30 1   
    13    7   44 1   
    14    8    9 1   
    15    8   45 1   
    16    9   10 1   
    17   10   11 2   
    18   11   12 1   
    19   12   31 1   
    20   12   32 1   
    21   12   46 1   
    22   13   14 1   
    23   13   33 1   
    24   13   34 1   
    25   14   15 1   
    26   14   35 1   
    27   14   47 1   
    28   15   16 ar  
    29   15   20 ar  
    30   16   17 ar  
    31   16   36 1   
    32   17   18 ar  
    33   17   37 1   
    34   18   19 ar  
    35   18   21 1   
    36   19   20 ar  
    37   19   38 1   
    38   20   39 1   
    39   21   22 2   
    40   21   23 2   
    41   21   24 1   
    42   24   25 1   
    43   24   40 1   
    44   24   48 1   
    45   25   26 1   
    46   25   29 2   
    47   26   27 1   
    48   27   28 2   
    49   27   41 1   
    50   28   29 1   
    51   28   42 1   
@<TRIPOS>SUBSTRUCTURE
     1 XTZ         1 TEMP              0 ****  ****    0 ROOT
