@<TRIPOS>MOLECULE
XTZ
   46    49     1     0     0
SMALL
bcc


@<TRIPOS>ATOM
      1 O3          0.2290   -0.5810    0.7140 o         1 XTZ     -0.509500
      2 C16         1.3950   -0.3580    0.3970 c         1 XTZ      0.743700
      3 N2          2.3020   -0.1510    1.5020 n         1 XTZ     -0.496400
      4 C3          2.0010   -0.2720   -0.9330 cc        1 XTZ     -0.080600
      5 N4          1.1510   -0.4380   -2.0330 ne        1 XTZ     -0.492300
      6 C4          1.6750   -0.3640   -3.2210 c2        1 XTZ      0.401300
      7 C15         3.1480   -0.1250   -3.5080 c3        1 XTZ      0.133500
      8 N8          3.9650    0.0040   -2.3200 nh        1 XTZ     -0.733000
      9 C2          3.3900   -0.0210   -1.0730 cd        1 XTZ      0.397600
     10 N3          4.2160    0.1860    0.0530 nd        1 XTZ     -0.621300
     11 C1          3.6330    0.1090    1.2420 cc        1 XTZ      0.563800
     12 N1          4.5480    0.3370    2.4170 n4        1 XTZ     -0.808600
     13 C5          0.8450   -0.5370   -4.4800 c3        1 XTZ      0.168500
     14 N5         -0.3710    0.2300   -4.4710 nh        1 XTZ     -0.746600
     15 C6         -1.1960    0.2240   -5.5990 ca        1 XTZ      0.214600
     16 C14        -0.7620   -0.2470   -6.8620 ca        1 XTZ     -0.224500
     17 C13        -1.5890   -0.1330   -7.9680 ca        1 XTZ      0.043000
     18 C9         -2.8670    0.4320   -7.8800 ca        1 XTZ     -0.433500
     19 C8         -3.3010    0.8840   -6.6240 ca        1 XTZ      0.043000
     20 C7         -2.4960    0.7820   -5.5010 ca        1 XTZ     -0.224500
     21 S1         -3.8190    0.6210   -9.2380 sy        1 XTZ      1.526200
     22 O1         -4.7190    1.6750   -9.0470 o         1 XTZ     -0.640800
     23 O2         -2.9810    0.6940  -10.3740 o         1 XTZ     -0.640800
     24 N6         -4.6080   -0.8250   -9.3930 nh        1 XTZ     -0.838800
     25 C10        -5.5640   -1.3360   -8.5320 cc        1 XTZ      0.658300
     26 S2         -6.5600   -2.7030   -8.9640 ss        1 XTZ     -0.107300
     27 C12        -7.3470   -2.6150   -7.4890 cc        1 XTZ     -0.263400
     28 C11        -6.8520   -1.5700   -6.7290 cd        1 XTZ      0.366200
     29 N7         -5.8320   -0.8360   -7.3050 nd        1 XTZ     -0.706000
     30 H1          3.2480    0.8150   -4.1300 h1        1 XTZ      0.080700
     31 H3          4.5550   -0.4990    3.0130 hn        1 XTZ      0.484800
     32 H4          4.2200    1.1490    2.9540 hn        1 XTZ      0.484800
     33 H5          1.4690   -0.1950   -5.3580 h1        1 XTZ      0.067200
     34 H6          0.6520   -1.6470   -4.6030 h1        1 XTZ      0.067200
     35 H7         -0.8610    0.2480   -3.6000 hn        1 XTZ      0.432800
     36 H8          0.2300   -0.7040   -6.9860 ha        1 XTZ      0.138000
     37 H9         -1.2250   -0.4830   -8.9520 ha        1 XTZ      0.164500
     38 H10        -4.3070    1.3370   -6.5340 ha        1 XTZ      0.164500
     39 H11        -2.8730    1.1480   -4.5330 ha        1 XTZ      0.138000
     40 H12        -4.4240   -1.4060  -10.1810 hn        1 XTZ      0.462800
     41 H13        -8.1420   -3.2950   -7.1900 h4        1 XTZ      0.187000
     42 H14        -7.1930   -1.2790   -5.7280 h4        1 XTZ      0.047100
     43 H15         1.9250   -0.2010    2.4260 hn        1 XTZ      0.353500
     44 H16         3.5480   -0.9930   -4.1140 h1        1 XTZ      0.080700
     45 H17         4.9190    0.2630   -2.4390 hn        1 XTZ      0.471800
     46 H131        5.5070    0.5190    2.0800 hn        1 XTZ      0.484800
@<TRIPOS>BOND
     1    1    2 2   
     2    2    3 1   
     3    2    4 1   
     4    3   11 1   
     5    3   43 1   
     6    4    5 1   
     7    4    9 2   
     8    5    6 2   
     9    6    7 1   
    10    6   13 1   
    11    7    8 1   
    12    7   30 1   
    13    7   44 1   
    14    8    9 1   
    15    8   45 1   
    16    9   10 1   
    17   10   11 2   
    18   11   12 1   
    19   12   31 1   
    20   12   32 1   
    21   12   46 1   
    22   13   14 1   
    23   13   33 1   
    24   13   34 1   
    25   14   15 1   
    26   14   35 1   
    27   15   16 ar  
    28   15   20 ar  
    29   16   17 ar  
    30   16   36 1   
    31   17   18 ar  
    32   17   37 1   
    33   18   19 ar  
    34   18   21 1   
    35   19   20 ar  
    36   19   38 1   
    37   20   39 1   
    38   21   22 2   
    39   21   23 2   
    40   21   24 1   
    41   24   25 1   
    42   24   40 1   
    43   25   26 1   
    44   25   29 2   
    45   26   27 1   
    46   27   28 2   
    47   27   41 1   
    48   28   29 1   
    49   28   42 1   
@<TRIPOS>SUBSTRUCTURE
     1 XTZ         1 TEMP              0 ****  ****    0 ROOT
