@<TRIPOS>MOLECULE
XTZ
   46    49     1     0     0
SMALL
bcc


@<TRIPOS>ATOM
      1 O3          0.2290   -0.5840    0.7130 o         1 XTZ     -0.509500
      2 C16         1.3960   -0.3610    0.3960 c         1 XTZ      0.743700
      3 N2          2.3020   -0.1550    1.5010 ns        1 XTZ     -0.496400
      4 C3          2.0020   -0.2740   -0.9340 cc        1 XTZ     -0.080600
      5 N4          1.1520   -0.4390   -2.0340 ne        1 XTZ     -0.492300
      6 C4          1.6760   -0.3640   -3.2210 c2        1 XTZ      0.401300
      7 C15         3.1490   -0.1260   -3.5090 c3        1 XTZ      0.133500
      8 N8          3.9660    0.0020   -2.3210 nu        1 XTZ     -0.733000
      9 C2          3.3900   -0.0240   -1.0730 cd        1 XTZ      0.397600
     10 N3          4.2170    0.1820    0.0530 nd        1 XTZ     -0.621300
     11 C1          3.6330    0.1040    1.2420 cc        1 XTZ      0.563800
     12 N1          4.5480    0.3320    2.4170 nz        1 XTZ     -0.808600
     13 C5          0.8460   -0.5360   -4.4810 c3        1 XTZ      0.168500
     14 N5         -0.3710    0.2310   -4.4710 nu        1 XTZ     -0.746600
     15 C6         -1.1960    0.2260   -5.5990 ca        1 XTZ      0.214600
     16 C14        -0.7620   -0.2450   -6.8620 ca        1 XTZ     -0.224500
     17 C13        -1.5890   -0.1310   -7.9680 ca        1 XTZ      0.043000
     18 C9         -2.8670    0.4340   -7.8790 ca        1 XTZ     -0.433500
     19 C8         -3.3010    0.8850   -6.6230 ca        1 XTZ      0.043000
     20 C7         -2.4960    0.7830   -5.5000 ca        1 XTZ     -0.224500
     21 S1         -3.8190    0.6230   -9.2370 sy        1 XTZ      1.526200
     22 O1         -4.7190    1.6780   -9.0460 o         1 XTZ     -0.640800
     23 O2         -2.9820    0.6970  -10.3730 o         1 XTZ     -0.640800
     24 N6         -4.6080   -0.8220   -9.3920 nu        1 XTZ     -0.838800
     25 C10        -5.5650   -1.3330   -8.5320 cc        1 XTZ      0.658300
     26 S2         -6.5610   -2.6990   -8.9640 ss        1 XTZ     -0.107300
     27 C12        -7.3490   -2.6120   -7.4890 cc        1 XTZ     -0.263400
     28 C11        -6.8530   -1.5670   -6.7290 cd        1 XTZ      0.366200
     29 N7         -5.8330   -0.8330   -7.3050 nd        1 XTZ     -0.706000
     30 H1          3.2490    0.8140   -4.1300 h1        1 XTZ      0.080700
     31 H3          4.5540   -0.5040    3.0130 hn        1 XTZ      0.484800
     32 H4          4.2210    1.1440    2.9540 hn        1 XTZ      0.484800
     33 H5          1.4700   -0.1940   -5.3580 h1        1 XTZ      0.067200
     34 H6          0.6530   -1.6460   -4.6050 h1        1 XTZ      0.067200
     35 H7         -0.8600    0.2480   -3.5990 hn        1 XTZ      0.432800
     36 H8          0.2300   -0.7020   -6.9870 ha        1 XTZ      0.138000
     37 H9         -1.2250   -0.4800   -8.9530 ha        1 XTZ      0.164500
     38 H10        -4.3070    1.3390   -6.5330 ha        1 XTZ      0.164500
     39 H11        -2.8730    1.1480   -4.5320 ha        1 XTZ      0.138000
     40 H12        -4.4250   -1.4030  -10.1800 hn        1 XTZ      0.462800
     41 H13        -8.1430   -3.2920   -7.1910 h4        1 XTZ      0.187000
     42 H14        -7.1950   -1.2760   -5.7280 h4        1 XTZ      0.047100
     43 H15         1.9250   -0.2050    2.4250 hn        1 XTZ      0.353500
     44 H16         3.5480   -0.9930   -4.1140 h1        1 XTZ      0.080700
     45 H17         4.9200    0.2610   -2.4380 hn        1 XTZ      0.471800
     46 H131        5.5080    0.5130    2.0810 hn        1 XTZ      0.484800
@<TRIPOS>BOND
     1    1    2 2   
     2    2    3 1   
     3    2    4 1   
     4    3   11 1   
     5    3   43 1   
     6    4    5 1   
     7    4    9 2   
     8    5    6 2   
     9    6    7 1   
    10    6   13 1   
    11    7    8 1   
    12    7   30 1   
    13    7   44 1   
    14    8    9 1   
    15    8   45 1   
    16    9   10 1   
    17   10   11 2   
    18   11   12 1   
    19   12   31 1   
    20   12   32 1   
    21   12   46 1   
    22   13   14 1   
    23   13   33 1   
    24   13   34 1   
    25   14   15 1   
    26   14   35 1   
    27   15   16 ar  
    28   15   20 ar  
    29   16   17 ar  
    30   16   36 1   
    31   17   18 ar  
    32   17   37 1   
    33   18   19 ar  
    34   18   21 1   
    35   19   20 ar  
    36   19   38 1   
    37   20   39 1   
    38   21   22 2   
    39   21   23 2   
    40   21   24 1   
    41   24   25 1   
    42   24   40 1   
    43   25   26 1   
    44   25   29 2   
    45   26   27 1   
    46   27   28 2   
    47   27   41 1   
    48   28   29 1   
    49   28   42 1   
@<TRIPOS>SUBSTRUCTURE
     1 XTZ         1 TEMP              0 ****  ****    0 ROOT
