@<TRIPOS>MOLECULE
XU1
   23    25     1     0     0
SMALL
bcc


@<TRIPOS>ATOM
      1 C11        -0.0330    0.0030   -0.0090 ca        1 XU1     -0.095000
      2 C12         1.3560    0.0020   -0.0130 ca        1 XU1     -0.141000
      3 C8          2.0770    0.0020    1.1950 ca        1 XU1      0.030000
      4 C1          3.5260    0.0020    1.2390 ca        1 XU1     -0.202300
      5 C10        -0.7410    0.0040    1.1970 ca        1 XU1     -0.146000
      6 C9         -0.0490    0.0050    2.4020 ca        1 XU1     -0.063000
      7 C7          1.3530    0.0040    2.4050 ca        1 XU1     -0.148600
      8 C6          2.0550    0.0050    3.7030 c         1 XU1      0.714100
      9 O1          1.4780    0.0060    4.8070 o         1 XU1     -0.624500
     10 N2          3.4510    0.0040    3.6920 n         1 XU1     -0.527400
     11 C5          4.1940    0.0020    2.5110 ca        1 XU1      0.552200
     12 N1          5.5680    0.0010    2.6200 nb        1 XU1     -0.710000
     13 C4          6.2770   -0.0000    1.4890 ca        1 XU1      0.447200
     14 C3          5.7110   -0.0010    0.1980 ca        1 XU1     -0.288300
     15 C2          4.3280   -0.0000    0.0860 ca        1 XU1     -0.043000
     16 H1         -0.5820    0.0020   -0.9630 ha        1 XU1      0.137000
     17 H2          1.8870    0.0010   -0.9750 ha        1 XU1      0.136000
     18 H3         -1.8410    0.0050    1.1920 ha        1 XU1      0.142000
     19 H4         -0.5840    0.0060    3.3660 ha        1 XU1      0.163000
     20 H5          3.9280    0.0040    4.5710 hn        1 XU1      0.348500
     21 H6          7.3750   -0.0010    1.6250 h4        1 XU1      0.028100
     22 H7          6.3560   -0.0020   -0.6900 ha        1 XU1      0.150000
     23 H8          3.8640   -0.0010   -0.9110 ha        1 XU1      0.142000
@<TRIPOS>BOND
     1    1    2 ar  
     2    1    5 ar  
     3    1   16 1   
     4    2    3 ar  
     5    2   17 1   
     6    3    4 1   
     7    3    7 ar  
     8    4   11 ar  
     9    4   15 ar  
    10    5    6 ar  
    11    5   18 1   
    12    6    7 ar  
    13    6   19 1   
    14    7    8 1   
    15    8    9 2   
    16    8   10 1   
    17   10   11 1   
    18   10   20 1   
    19   11   12 ar  
    20   12   13 ar  
    21   13   14 ar  
    22   13   21 1   
    23   14   15 ar  
    24   14   22 1   
    25   15   23 1   
@<TRIPOS>SUBSTRUCTURE
     1 XU1         1 TEMP              0 ****  ****    0 ROOT
