@<TRIPOS>MOLECULE
XU1
   23    25     1     0     0
SMALL
bcc


@<TRIPOS>ATOM
      1 C11         2.6150    2.0640   -0.0020 ca        1 XU1     -0.095000
      2 C12         1.2280    1.9780   -0.0020 ca        1 XU1     -0.141000
      3 C8          0.5870    0.7260   -0.0010 ca        1 XU1      0.030000
      4 C1         -0.8560    0.5890   -0.0010 ca        1 XU1     -0.202300
      5 C10         3.3990    0.9060   -0.0010 ca        1 XU1     -0.146000
      6 C9          2.7860   -0.3410   -0.0000 ca        1 XU1     -0.063000
      7 C7          1.3880   -0.4340   -0.0000 ca        1 XU1     -0.148600
      8 C6          0.7710   -1.7750    0.0010 c         1 XU1      0.714100
      9 O1          1.4180   -2.8400    0.0010 o         1 XU1     -0.624500
     10 N2         -0.6230   -1.8550    0.0010 n         1 XU1     -0.527400
     11 C5         -1.4410   -0.7240    0.0000 ca        1 XU1      0.552200
     12 N1         -2.8040   -0.9210    0.0000 nb        1 XU1     -0.710000
     13 C4         -3.5860    0.1610   -0.0000 ca        1 XU1      0.447200
     14 C3         -3.1040    1.4870   -0.0010 ca        1 XU1     -0.288300
     15 C2         -1.7310    1.6870   -0.0020 ca        1 XU1     -0.043000
     16 H1          3.1000    3.0520   -0.0030 ha        1 XU1      0.137000
     17 H2          0.6360    2.9040   -0.0030 ha        1 XU1      0.136000
     18 H3          4.4960    0.9830   -0.0010 ha        1 XU1      0.142000
     19 H4          3.3830   -1.2680    0.0000 ha        1 XU1      0.163000
     20 H5         -1.0420   -2.7620    0.0020 hn        1 XU1      0.348500
     21 H6         -4.6730   -0.0450   -0.0000 h4        1 XU1      0.028100
     22 H7         -3.8050    2.3310   -0.0020 ha        1 XU1      0.150000
     23 H8         -1.3320    2.7130   -0.0020 ha        1 XU1      0.142000
@<TRIPOS>BOND
     1    1    2 ar  
     2    1    5 ar  
     3    1   16 1   
     4    2    3 ar  
     5    2   17 1   
     6    3    4 1   
     7    3    7 ar  
     8    4   11 ar  
     9    4   15 ar  
    10    5    6 ar  
    11    5   18 1   
    12    6    7 ar  
    13    6   19 1   
    14    7    8 1   
    15    8    9 2   
    16    8   10 1   
    17   10   11 1   
    18   10   20 1   
    19   11   12 ar  
    20   12   13 ar  
    21   13   14 ar  
    22   13   21 1   
    23   14   15 ar  
    24   14   22 1   
    25   15   23 1   
@<TRIPOS>SUBSTRUCTURE
     1 XU1         1 TEMP              0 ****  ****    0 ROOT
