@<TRIPOS>MOLECULE
XU2
   49    53     1     0     0
SMALL
bcc


@<TRIPOS>ATOM
      1 O12        -7.6730    0.0220   -1.0850 o         1 XU2     -0.625500
      2 C8         -6.5010    0.0110   -0.6610 c         1 XU2      0.715100
      3 C7         -5.6620    1.2130   -0.5040 ca        1 XU2     -0.158600
      4 C6         -6.2600    2.4660   -0.6930 ca        1 XU2     -0.062000
      5 C5         -5.5490    3.6250   -0.4100 ca        1 XU2     -0.153000
      6 C1         -4.2560    3.5250    0.1100 ca        1 XU2     -0.096000
      7 C2         -3.6540    2.2840    0.2850 ca        1 XU2     -0.161000
      8 C3         -4.3170    1.0990   -0.0860 ca        1 XU2      0.044000
      9 C4         -3.7240   -0.2230   -0.0020 ca        1 XU2     -0.269300
     10 N1         -5.9580   -1.2070   -0.2500 n         1 XU2     -0.529400
     11 C9         -4.6020   -1.3600    0.0500 ca        1 XU2      0.581200
     12 N2         -4.1730   -2.6280    0.3630 nb        1 XU2     -0.743000
     13 C10        -2.8580   -2.8000    0.5260 ca        1 XU2      0.477200
     14 C11        -1.8950   -1.8040    0.3270 ca        1 XU2     -0.358300
     15 C12        -2.3180   -0.4920    0.0180 ca        1 XU2      0.257600
     16 N3         -1.4060    0.5160   -0.2770 nh        1 XU2     -0.635000
     17 C13        -0.0100    0.3110   -0.3030 ca        1 XU2      0.099600
     18 C14         0.6850   -0.1510    0.8330 ca        1 XU2     -0.126500
     19 C15         2.0680   -0.2790    0.8250 ca        1 XU2     -0.152500
     20 C18         0.7380    0.6520   -1.4510 ca        1 XU2     -0.126500
     21 C17         2.1190    0.5320   -1.4600 ca        1 XU2     -0.152500
     22 C16         2.8170    0.0590   -0.3220 ca        1 XU2      0.061600
     23 N4          4.2150   -0.0330   -0.3850 n         1 XU2     -0.469100
     24 C19         5.0610   -0.6400    0.5360 c         1 XU2      0.681700
     25 O38         4.6510   -1.1900    1.5740 o         1 XU2     -0.581100
     26 C20         6.5160   -0.6110    0.1980 ca        1 XU2     -0.149600
     27 C21         7.2690   -1.7660    0.4350 ca        1 XU2     -0.091000
     28 C22         8.6330   -1.7760    0.1470 ca        1 XU2     -0.135500
     29 C23         9.2480   -0.6330   -0.3670 ca        1 XU2     -0.105000
     30 C24         8.4980    0.5220   -0.5900 ca        1 XU2     -0.135500
     31 C25         7.1320    0.5370   -0.3100 ca        1 XU2     -0.091000
     32 H1         -7.3030    2.5100   -1.0510 ha        1 XU2      0.161000
     33 H2         -6.0080    4.6110   -0.5680 ha        1 XU2      0.141000
     34 H3         -3.7110    4.4370    0.3960 ha        1 XU2      0.136000
     35 H4         -2.6730    2.2520    0.7820 ha        1 XU2      0.151000
     36 H5         -6.5510   -2.0120   -0.2460 hn        1 XU2      0.349500
     37 H6         -2.5510   -3.8270    0.8040 h4        1 XU2      0.027100
     38 H7         -0.8300   -2.0620    0.3870 ha        1 XU2      0.160000
     39 H8         -1.7390    1.2260   -0.8970 hn        1 XU2      0.438800
     40 H9          0.1320   -0.4130    1.7490 ha        1 XU2      0.143000
     41 H10         2.5710   -0.6480    1.7350 ha        1 XU2      0.155500
     42 H11         0.2310    1.0220   -2.3560 ha        1 XU2      0.143000
     43 H12         2.6660    0.8100   -2.3750 ha        1 XU2      0.155500
     44 H13         4.6320    0.3120   -1.2220 hn        1 XU2      0.319500
     45 H14         6.7780   -2.6560    0.8610 ha        1 XU2      0.146000
     46 H15         9.2250   -2.6850    0.3320 ha        1 XU2      0.139500
     47 H16        10.3250   -0.6420   -0.5920 ha        1 XU2      0.138000
     48 H17         8.9850    1.4260   -0.9850 ha        1 XU2      0.139500
     49 H18         6.5560    1.4600   -0.4720 ha        1 XU2      0.146000
@<TRIPOS>BOND
     1    1    2 2   
     2    2    3 1   
     3    2   10 1   
     4    3    4 ar  
     5    3    8 ar  
     6    4    5 ar  
     7    4   32 1   
     8    5    6 ar  
     9    5   33 1   
    10    6    7 ar  
    11    6   34 1   
    12    7    8 ar  
    13    7   35 1   
    14    8    9 1   
    15    9   11 ar  
    16    9   15 ar  
    17   10   11 1   
    18   10   36 1   
    19   11   12 ar  
    20   12   13 ar  
    21   13   14 ar  
    22   13   37 1   
    23   14   15 ar  
    24   14   38 1   
    25   15   16 1   
    26   16   17 1   
    27   16   39 1   
    28   17   18 ar  
    29   17   20 ar  
    30   18   19 ar  
    31   18   40 1   
    32   19   22 ar  
    33   19   41 1   
    34   20   21 ar  
    35   20   42 1   
    36   21   22 ar  
    37   21   43 1   
    38   22   23 1   
    39   23   24 1   
    40   23   44 1   
    41   24   25 2   
    42   24   26 1   
    43   26   27 ar  
    44   26   31 ar  
    45   27   28 ar  
    46   27   45 1   
    47   28   29 ar  
    48   28   46 1   
    49   29   30 ar  
    50   29   47 1   
    51   30   31 ar  
    52   30   48 1   
    53   31   49 1   
@<TRIPOS>SUBSTRUCTURE
     1 XU2         1 TEMP              0 ****  ****    0 ROOT
