@<TRIPOS>MOLECULE
XU2
   49    53     1     0     0
SMALL
bcc


@<TRIPOS>ATOM
      1 O12         1.7360    3.7830   -0.5880 o         1 XU2     -0.625500
      2 C8          2.1520    2.6320   -0.3560 c         1 XU2      0.715100
      3 C7          1.9160    1.9010    0.9030 ca        1 XU2     -0.158600
      4 C6          1.0400    2.4630    1.8400 ca        1 XU2     -0.062000
      5 C5          0.6720    1.7410    2.9680 ca        1 XU2     -0.153000
      6 C1          1.1450    0.4370    3.1290 ca        1 XU2     -0.096000
      7 C2          2.0270   -0.1200    2.2090 ca        1 XU2     -0.161000
      8 C3          2.4900    0.6260    1.1090 ca        1 XU2      0.044000
      9 C4          3.4650    0.1390    0.1520 ca        1 XU2     -0.269300
     10 N1          2.8390    1.9600   -1.3680 ns        1 XU2     -0.529400
     11 C9          3.5140    0.7580   -1.1450 ca        1 XU2      0.581200
     12 N2          4.2220    0.2370   -2.2010 nb        1 XU2     -0.743000
     13 C10         4.9690   -0.8440   -1.9570 ca        1 XU2      0.477200
     14 C11         5.1360   -1.4250   -0.6950 ca        1 XU2     -0.358300
     15 C12         4.4060   -0.9120    0.4000 ca        1 XU2      0.257600
     16 N3          4.5980   -1.3920    1.6920 nu        1 XU2     -0.635000
     17 C13         5.5290   -2.4040    2.0100 ca        1 XU2      0.099600
     18 C14         5.4550   -3.6800    1.4180 ca        1 XU2     -0.126500
     19 C15         6.3270   -4.6950    1.7900 ca        1 XU2     -0.152500
     20 C18         6.5070   -2.1830    3.0020 ca        1 XU2     -0.126500
     21 C17         7.3750   -3.1960    3.3820 ca        1 XU2     -0.152500
     22 C16         7.3080   -4.4760    2.7800 ca        1 XU2      0.061600
     23 N4          8.2050   -5.4650    3.2090 ns        1 XU2     -0.469100
     24 C19         8.4300   -6.7080    2.6270 c         1 XU2      0.681700
     25 O38         7.8230   -7.1020    1.6150 o         1 XU2     -0.581100
     26 C20         9.4700   -7.5530    3.2860 ca        1 XU2     -0.149600
     27 C21        10.3550   -8.2630    2.4660 ca        1 XU2     -0.091000
     28 C22        11.3320   -9.0760    3.0410 ca        1 XU2     -0.135500
     29 C23        11.4200   -9.1880    4.4290 ca        1 XU2     -0.105000
     30 C24        10.5280   -8.4910    5.2450 ca        1 XU2     -0.135500
     31 C25         9.5530   -7.6720    4.6770 ca        1 XU2     -0.091000
     32 H1          0.6390    3.4740    1.6550 ha        1 XU2      0.161000
     33 H2         -0.0050    2.1820    3.7130 ha        1 XU2      0.141000
     34 H3          0.8070   -0.1640    3.9880 ha        1 XU2      0.136000
     35 H4          2.2980   -1.1790    2.3290 ha        1 XU2      0.151000
     36 H5          2.9110    2.4000   -2.2630 hn        1 XU2      0.349500
     37 H6          5.5040   -1.2520   -2.8360 h4        1 XU2      0.027100
     38 H7          5.8490   -2.2520   -0.5700 ha        1 XU2      0.160000
     39 H8          4.4280   -0.7310    2.4230 hn        1 XU2      0.438800
     40 H9          4.6930   -3.8890    0.6480 ha        1 XU2      0.143000
     41 H10         6.2360   -5.6790    1.2970 ha        1 XU2      0.155500
     42 H11         6.5920   -1.2000    3.4920 ha        1 XU2      0.143000
     43 H12         8.1230   -2.9840    4.1610 ha        1 XU2      0.155500
     44 H13         8.7940   -5.2100    3.9710 hn        1 XU2      0.319500
     45 H14        10.2640   -8.1830    1.3720 ha        1 XU2      0.146000
     46 H15        12.0290   -9.6320    2.3970 ha        1 XU2      0.139500
     47 H16        12.1900   -9.8310    4.8810 ha        1 XU2      0.138000
     48 H17        10.5910   -8.5890    6.3380 ha        1 XU2      0.139500
     49 H18         8.8430   -7.1420    5.3300 ha        1 XU2      0.146000
@<TRIPOS>BOND
     1    1    2 2   
     2    2    3 1   
     3    2   10 1   
     4    3    4 ar  
     5    3    8 ar  
     6    4    5 ar  
     7    4   32 1   
     8    5    6 ar  
     9    5   33 1   
    10    6    7 ar  
    11    6   34 1   
    12    7    8 ar  
    13    7   35 1   
    14    8    9 1   
    15    9   11 ar  
    16    9   15 ar  
    17   10   11 1   
    18   10   36 1   
    19   11   12 ar  
    20   12   13 ar  
    21   13   14 ar  
    22   13   37 1   
    23   14   15 ar  
    24   14   38 1   
    25   15   16 1   
    26   16   17 1   
    27   16   39 1   
    28   17   18 ar  
    29   17   20 ar  
    30   18   19 ar  
    31   18   40 1   
    32   19   22 ar  
    33   19   41 1   
    34   20   21 ar  
    35   20   42 1   
    36   21   22 ar  
    37   21   43 1   
    38   22   23 1   
    39   23   24 1   
    40   23   44 1   
    41   24   25 2   
    42   24   26 1   
    43   26   27 ar  
    44   26   31 ar  
    45   27   28 ar  
    46   27   45 1   
    47   28   29 ar  
    48   28   46 1   
    49   29   30 ar  
    50   29   47 1   
    51   30   31 ar  
    52   30   48 1   
    53   31   49 1   
@<TRIPOS>SUBSTRUCTURE
     1 XU2         1 TEMP              0 ****  ****    0 ROOT
