@<TRIPOS>MOLECULE
XU2
   51    55     1     0     0
SMALL
bcc


@<TRIPOS>ATOM
      1 O12         0.4090    2.2780   -0.6680 o         1 XU2     -0.528500
      2 C8          1.3230    1.4900   -0.3980 c         1 XU2      0.708100
      3 C7          1.7760    1.1640    0.9710 ca        1 XU2     -0.125600
      4 C6          1.0140    1.6350    2.0470 ca        1 XU2     -0.037000
      5 C5          1.3140    1.2230    3.3430 ca        1 XU2     -0.106000
      6 C1          2.3380    0.2970    3.5490 ca        1 XU2     -0.079000
      7 C2          3.1070   -0.1600    2.4800 ca        1 XU2     -0.199000
      8 C3          2.8890    0.3200    1.1780 ca        1 XU2     -0.019000
      9 C4          3.7020   -0.0410    0.0300 ca        1 XU2     -0.199300
     10 N1          1.9480    0.8030   -1.4600 n         1 XU2     -0.513400
     11 C9          3.1200    0.0950   -1.2930 ca        1 XU2      0.605200
     12 N2          3.7190   -0.4410   -2.4160 nb        1 XU2     -0.657000
     13 C10         4.9290   -0.9720   -2.2920 ca        1 XU2      0.488200
     14 C11         5.6730   -0.9750   -1.0880 ca        1 XU2     -0.293300
     15 C12         5.0430   -0.4840    0.0600 ca        1 XU2      0.031600
     16 N3          5.8600   -0.3290    1.2770 n4        1 XU2     -0.519800
     17 C13         6.3000   -1.5930    1.8840 ca        1 XU2      0.003600
     18 C14         5.5070   -2.7490    1.7920 ca        1 XU2     -0.077500
     19 C15         5.9430   -3.9380    2.3760 ca        1 XU2     -0.077500
     20 C18         7.5300   -1.6300    2.5680 ca        1 XU2     -0.077500
     21 C17         7.9650   -2.8170    3.1500 ca        1 XU2     -0.077500
     22 C16         7.1740   -3.9770    3.0540 ca        1 XU2      0.016600
     23 N4          7.6420   -5.2280    3.6470 n4        1 XU2     -0.572200
     24 C19         8.4080   -6.1530    2.6620 c         1 XU2      0.587700
     25 O38         8.3470   -5.8140    1.4920 o         1 XU2     -0.415100
     26 C20         9.0940   -7.2780    3.2770 ca        1 XU2     -0.223600
     27 C21         9.9980   -7.9770    2.4510 ca        1 XU2     -0.061000
     28 C22        10.6910   -9.0760    2.9550 ca        1 XU2     -0.119000
     29 C23        10.4890   -9.4890    4.2710 ca        1 XU2     -0.027000
     30 C24         9.5850   -8.8010    5.0910 ca        1 XU2     -0.119000
     31 C25         8.8890   -7.7020    4.6040 ca        1 XU2     -0.061000
     32 H1          0.1670    2.3190    1.8490 ha        1 XU2      0.193000
     33 H2          0.7240    1.6010    4.1950 ha        1 XU2      0.176000
     34 H3          2.5290   -0.0870    4.5650 ha        1 XU2      0.154000
     35 H4          3.8150   -0.9790    2.6750 ha        1 XU2      0.105000
     36 H5          1.5540    0.9040   -2.3800 hn        1 XU2      0.379500
     37 H6          5.3640   -1.4000   -3.2200 h4        1 XU2      0.073100
     38 H7          6.7110   -1.3350   -1.0970 ha        1 XU2      0.170000
     39 H8          5.3240    0.2140    1.9800 hn        1 XU2      0.480800
     40 H9          4.5420   -2.7400    1.2500 ha        1 XU2      0.193000
     41 H10         5.3070   -4.8370    2.2780 ha        1 XU2      0.186500
     42 H11         8.1720   -0.7340    2.6540 ha        1 XU2      0.193000
     43 H12         8.9380   -2.8220    3.6750 ha        1 XU2      0.186500
     44 H13         8.2690   -5.0210    4.4350 hn        1 XU2      0.469300
     45 H14        10.1520   -7.6550    1.4070 ha        1 XU2      0.147500
     46 H15        11.3990   -9.6190    2.3040 ha        1 XU2      0.179500
     47 H16        11.0370  -10.3620    4.6700 ha        1 XU2      0.182000
     48 H17         9.4220   -9.1380    6.1300 ha        1 XU2      0.179500
     49 H18         8.1750   -7.2030    5.2750 ha        1 XU2      0.147500
     50 H32         6.6960    0.2170    1.0120 hn        1 XU2      0.480800
     51 H42         6.8350   -5.7550    4.0050 hn        1 XU2      0.469300
@<TRIPOS>BOND
     1    1    2 2   
     2    2    3 1   
     3    2   10 1   
     4    3    4 ar  
     5    3    8 ar  
     6    4    5 ar  
     7    4   32 1   
     8    5    6 ar  
     9    5   33 1   
    10    6    7 ar  
    11    6   34 1   
    12    7    8 ar  
    13    7   35 1   
    14    8    9 1   
    15    9   11 ar  
    16    9   15 ar  
    17   10   11 1   
    18   10   36 1   
    19   11   12 ar  
    20   12   13 ar  
    21   13   14 ar  
    22   13   37 1   
    23   14   15 ar  
    24   14   38 1   
    25   15   16 1   
    26   16   17 1   
    27   16   39 1   
    28   16   50 1   
    29   17   18 ar  
    30   17   20 ar  
    31   18   19 ar  
    32   18   40 1   
    33   19   22 ar  
    34   19   41 1   
    35   20   21 ar  
    36   20   42 1   
    37   21   22 ar  
    38   21   43 1   
    39   22   23 1   
    40   23   24 1   
    41   23   44 1   
    42   23   51 1   
    43   24   25 2   
    44   24   26 1   
    45   26   27 ar  
    46   26   31 ar  
    47   27   28 ar  
    48   27   45 1   
    49   28   29 ar  
    50   28   46 1   
    51   29   30 ar  
    52   29   47 1   
    53   30   31 ar  
    54   30   48 1   
    55   31   49 1   
@<TRIPOS>SUBSTRUCTURE
     1 XU2         1 TEMP              0 ****  ****    0 ROOT
