@<TRIPOS>MOLECULE
XU3
   58    62     1     0     0
SMALL
bcc


@<TRIPOS>ATOM
      1 N1         -0.0460    0.1250    0.8900 n         1 XU3     -0.474800
      2 C2          1.3660    0.4840    0.9390 c3        1 XU3      0.101000
      3 CL2         4.7020    1.8030    1.7020 cl        1 XU3     -0.068400
      4 C3          1.9700   -0.0680    2.2420 c3        1 XU3     -0.277900
      5 CL3         0.7890   -5.0610   -3.8000 cl        1 XU3     -0.003400
      6 C4          0.8160   -0.7220    2.9940 c3        1 XU3     -0.060400
      7 C5         -0.4510   -0.5100    2.1320 c3        1 XU3      0.040700
      8 S6          3.3440   -1.1490    1.9630 sy        1 XU3      1.374300
      9 C7         -1.4920    0.3040    2.9210 c         1 XU3      0.537100
     10 C8          4.4470   -0.5260    3.0470 ca        1 XU3     -0.409500
     11 O9          2.9490   -2.4350    2.3580 o         1 XU3     -0.636300
     12 O10         3.7370   -0.9950    0.6310 o         1 XU3     -0.636300
     13 C11         5.0900    0.7220    2.9540 ca        1 XU3      0.128400
     14 C12         6.0610    1.1160    3.8780 ca        1 XU3     -0.145000
     15 C13         6.4060    0.2650    4.9270 ca        1 XU3     -0.036000
     16 C14         5.7780   -0.9750    5.0500 ca        1 XU3     -0.145000
     17 C15         4.8170   -1.3590    4.1220 ca        1 XU3     -0.018000
     18 O16        -1.4910    0.5190    4.1210 o         1 XU3     -0.423100
     19 N17        -2.6540    0.8130    2.1040 n4        1 XU3     -0.634800
     20 C18        -3.8440    1.2380    2.8700 cx        1 XU3     -0.101100
     21 C19        -3.7090    2.6090    3.4820 c2        1 XU3      0.423200
     22 N20        -3.1460    2.9370    4.5690 n2        1 XU3     -0.681100
     23 C21        -5.2240    0.8500    2.3550 cx        1 XU3     -0.088400
     24 C22        -4.6950    0.2060    3.5950 cx        1 XU3     -0.088400
     25 C24        -0.7070   -0.2040   -0.3020 c         1 XU3      0.718100
     26 C25        -0.0070   -0.0890   -1.6280 cx        1 XU3     -0.116700
     27 O26        -1.9080   -0.5390   -0.2090 o         1 XU3     -0.642100
     28 C27         0.5470   -1.3630   -2.0680 cc        1 XU3     -0.155400
     29 C28         1.8650   -1.7730   -1.9310 cd        1 XU3     -0.116000
     30 C29         2.0830   -3.0610   -2.4980 cd        1 XU3     -0.149000
     31 C30         0.9210   -3.5780   -3.0490 cc        1 XU3     -0.018700
     32 S31        -0.3690   -2.5200   -2.8750 ss        1 XU3      0.085200
     33 C33        -0.6200    0.8600   -2.6420 cx        1 XU3     -0.093900
     34 C34         0.6810    1.2100   -1.9960 cx        1 XU3     -0.093900
     35 H2          1.9070    0.0930    0.0270 h1        1 XU3      0.092700
     36 H2A         1.4370    1.6090    0.9290 h1        1 XU3      0.092700
     37 H3          2.3210    0.8140    2.8450 h1        1 XU3      0.125700
     38 H4          0.6960   -0.2740    4.0130 hc        1 XU3      0.104700
     39 H4A         0.9770   -1.8280    3.1230 hc        1 XU3      0.104700
     40 H5         -0.9620   -1.5040    1.9270 h1        1 XU3      0.119700
     41 H12         6.5580    2.0950    3.7750 ha        1 XU3      0.169000
     42 H13         7.1750    0.5730    5.6540 ha        1 XU3      0.160000
     43 H14         6.0480   -1.6530    5.8750 ha        1 XU3      0.162000
     44 H15         4.3360   -2.3520    4.2210 ha        1 XU3      0.174000
     45 HN17       -2.9250    0.0640    1.4350 hn        1 XU3      0.479800
     46 H21        -6.0220    1.6160    2.4290 hc        1 XU3      0.110950
     47 H21A       -5.3210    0.2480    1.4310 hc        1 XU3      0.110950
     48 H22        -5.1060    0.4920    4.5840 hc        1 XU3      0.110950
     49 H22A       -4.4080   -0.8620    3.5680 hc        1 XU3      0.110950
     50 H28         2.6710   -1.2020   -1.4540 ha        1 XU3      0.183000
     51 H29         3.0540   -3.5630   -2.4900 ha        1 XU3      0.180000
     52 H33        -1.5350    1.4120   -2.3610 hc        1 XU3      0.091950
     53 H33A       -0.6330    0.5500   -3.7040 hc        1 XU3      0.091950
     54 H34         0.7150    2.0290   -1.2550 hc        1 XU3      0.091950
     55 H34A        1.6150    1.1470   -2.5870 hc        1 XU3      0.091950
     56 H19        -4.2100    3.4030    2.8870 h4        1 XU3      0.048800
     57 HN20       -2.7040    2.2300    5.1210 hn        1 XU3      0.418400
     58 H172       -2.3230    1.6130    1.5490 hn        1 XU3      0.479800
@<TRIPOS>BOND
     1    1    2 1   
     2    1    7 1   
     3    1   25 1   
     4    2    4 1   
     5    2   35 1   
     6    2   36 1   
     7    3   13 1   
     8    4    6 1   
     9    4    8 1   
    10    4   37 1   
    11    5   31 1   
    12    6    7 1   
    13    6   38 1   
    14    6   39 1   
    15    7    9 1   
    16    7   40 1   
    17    8   10 1   
    18    8   11 2   
    19    8   12 2   
    20    9   18 2   
    21    9   19 1   
    22   10   13 ar  
    23   10   17 ar  
    24   13   14 ar  
    25   14   15 ar  
    26   14   41 1   
    27   15   16 ar  
    28   15   42 1   
    29   16   17 ar  
    30   16   43 1   
    31   17   44 1   
    32   19   20 1   
    33   19   45 1   
    34   19   58 1   
    35   20   21 1   
    36   20   23 1   
    37   20   24 1   
    38   21   22 2   
    39   21   56 1   
    40   22   57 1   
    41   23   24 1   
    42   23   46 1   
    43   23   47 1   
    44   24   48 1   
    45   24   49 1   
    46   25   26 1   
    47   25   27 2   
    48   26   28 1   
    49   26   33 1   
    50   26   34 1   
    51   28   29 2   
    52   28   32 1   
    53   29   30 1   
    54   29   50 1   
    55   30   31 2   
    56   30   51 1   
    57   31   32 1   
    58   33   34 1   
    59   33   52 1   
    60   33   53 1   
    61   34   54 1   
    62   34   55 1   
@<TRIPOS>SUBSTRUCTURE
     1 XU3         1 TEMP              0 ****  ****    0 ROOT
