@<TRIPOS>MOLECULE
XU3
   57    61     1     0     0
SMALL
bcc


@<TRIPOS>ATOM
      1 N1         -0.0190    1.1350    0.3460 n         1 XU3     -0.454800
      2 C2         -0.0000   -0.0110   -0.5410 c3        1 XU3      0.127000
      3 CL2         2.0490   -2.7110   -2.8350 cl        1 XU3     -0.066400
      4 C3          1.0910   -0.9830   -0.0420 c3        1 XU3     -0.296900
      5 CL3        -6.3790   -0.8450    2.0490 cl        1 XU3     -0.031400
      6 C4          1.5870   -0.3940    1.2800 c3        1 XU3     -0.057400
      7 C5          1.0360    1.0460    1.3460 c3        1 XU3      0.036700
      8 S6          0.5250   -2.6130    0.0670 sy        1 XU3      1.368300
      9 C7          2.1690    2.0780    1.1050 c         1 XU3      0.659100
     10 C8          1.9610   -3.4520   -0.2360 ca        1 XU3     -0.367500
     11 O9          0.1100   -2.8870    1.3810 o         1 XU3     -0.643300
     12 O10        -0.4240   -2.8400   -0.9370 o         1 XU3     -0.643300
     13 C11         2.6300   -3.5360   -1.4670 ca        1 XU3      0.127400
     14 C12         3.7950   -4.2950   -1.6170 ca        1 XU3     -0.152000
     15 C13         4.3160   -4.9850   -0.5250 ca        1 XU3     -0.056000
     16 C14         3.6740   -4.9160    0.7120 ca        1 XU3     -0.152000
     17 C15         2.5150   -4.1600    0.8460 ca        1 XU3     -0.023000
     18 O16         3.3480    1.7050    0.9450 o         1 XU3     -0.619100
     19 N17         1.8080    3.4060    1.1810 n         1 XU3     -0.508900
     20 C18         2.6840    4.4730    0.8240 cx        1 XU3     -0.020900
     21 C19         2.4740    5.1090   -0.5240 c2        1 XU3      0.449200
     22 N20         1.4620    4.8800   -1.2710 n2        1 XU3     -0.770100
     23 C21         3.1430    5.4580    1.9040 cx        1 XU3     -0.109900
     24 C22         4.1270    4.5000    1.3170 cx        1 XU3     -0.109900
     25 C24        -1.1270    1.9470    0.5270 c         1 XU3      0.706100
     26 C25        -2.2820    1.8300   -0.4380 cx        1 XU3     -0.126700
     27 O26        -1.1300    2.7940    1.4440 o         1 XU3     -0.611100
     28 C27        -3.2920    0.8630   -0.0250 cc        1 XU3     -0.107400
     29 C28        -3.5540   -0.3500   -0.6420 cd        1 XU3     -0.139000
     30 C29        -4.6190   -1.0540   -0.0090 cd        1 XU3     -0.146000
     31 C30        -5.1260   -0.3400    1.0640 cc        1 XU3     -0.040700
     32 S31        -4.3240    1.1180    1.2760 ss        1 XU3      0.095200
     33 C33        -2.7100    3.1160   -1.1190 cx        1 XU3     -0.097900
     34 C34        -2.0100    2.0600   -1.9100 cx        1 XU3     -0.097900
     35 H2         -1.0100   -0.5150   -0.5650 h1        1 XU3      0.069700
     36 H2A         0.2400    0.3350   -1.5850 h1        1 XU3      0.069700
     37 H3          1.9440   -0.9140   -0.7740 h1        1 XU3      0.128700
     38 H4          1.1890   -0.9790    2.1510 hc        1 XU3      0.089200
     39 H4A         2.7050   -0.3940    1.3280 hc        1 XU3      0.089200
     40 H5          0.6100    1.2580    2.3720 h1        1 XU3      0.095700
     41 H12         4.2980   -4.3480   -2.5950 ha        1 XU3      0.157000
     42 H13         5.2340   -5.5830   -0.6410 ha        1 XU3      0.146000
     43 H14         4.0800   -5.4600    1.5780 ha        1 XU3      0.149000
     44 H15         2.0060   -4.1180    1.8290 ha        1 XU3      0.173000
     45 HN17        0.8370    3.6430    1.2080 hn        1 XU3      0.348500
     46 H21         3.1990    6.5280    1.6370 hc        1 XU3      0.084200
     47 H21A        2.7970    5.3060    2.9420 hc        1 XU3      0.084200
     48 H22         4.4880    3.6460    1.9210 hc        1 XU3      0.084200
     49 H22A        4.9040    4.8720    0.6250 hc        1 XU3      0.084200
     50 H28        -3.0210   -0.7420   -1.5130 ha        1 XU3      0.165000
     51 H29        -4.9720   -2.0340   -0.3390 ha        1 XU3      0.168000
     52 H33        -3.7890    3.2890   -1.2810 hc        1 XU3      0.086450
     53 H33A       -2.1700    4.0450   -0.8560 hc        1 XU3      0.086450
     54 H34        -0.9680    2.2320   -2.2350 hc        1 XU3      0.086450
     55 H34A       -2.5840    1.4630   -2.6430 hc        1 XU3      0.086450
     56 H19         3.3040    5.8080   -0.7810 h4        1 XU3     -0.036200
     57 HN20        1.4530    5.3760   -2.1380 hn        1 XU3      0.386400
@<TRIPOS>BOND
     1    1    2 1   
     2    1    7 1   
     3    1   25 1   
     4    2    4 1   
     5    2   35 1   
     6    2   36 1   
     7    3   13 1   
     8    4    6 1   
     9    4    8 1   
    10    4   37 1   
    11    5   31 1   
    12    6    7 1   
    13    6   38 1   
    14    6   39 1   
    15    7    9 1   
    16    7   40 1   
    17    8   10 1   
    18    8   11 2   
    19    8   12 2   
    20    9   18 2   
    21    9   19 1   
    22   10   13 ar  
    23   10   17 ar  
    24   13   14 ar  
    25   14   15 ar  
    26   14   41 1   
    27   15   16 ar  
    28   15   42 1   
    29   16   17 ar  
    30   16   43 1   
    31   17   44 1   
    32   19   20 1   
    33   19   45 1   
    34   20   21 1   
    35   20   23 1   
    36   20   24 1   
    37   21   22 2   
    38   21   56 1   
    39   22   57 1   
    40   23   24 1   
    41   23   46 1   
    42   23   47 1   
    43   24   48 1   
    44   24   49 1   
    45   25   26 1   
    46   25   27 2   
    47   26   28 1   
    48   26   33 1   
    49   26   34 1   
    50   28   29 2   
    51   28   32 1   
    52   29   30 1   
    53   29   50 1   
    54   30   31 2   
    55   30   51 1   
    56   31   32 1   
    57   33   34 1   
    58   33   52 1   
    59   33   53 1   
    60   34   54 1   
    61   34   55 1   
@<TRIPOS>SUBSTRUCTURE
     1 XU3         1 TEMP              0 ****  ****    0 ROOT
