@<TRIPOS>MOLECULE
XU3
   58    62     1     0     0
SMALL
bcc


@<TRIPOS>ATOM
      1 N1         -0.0530    0.1120    0.8940 n         1 XU3     -0.474800
      2 C2          1.3490    0.5080    0.9390 c3        1 XU3      0.101000
      3 Cl2         4.6520    1.9090    1.6970 cl        1 XU3     -0.068400
      4 C3          1.9720   -0.0370    2.2370 c3        1 XU3     -0.277900
      5 Cl3         0.8970   -5.0210   -3.8320 cl        1 XU3     -0.003400
      6 C4          0.8380   -0.7250    2.9890 c3        1 XU3     -0.060400
      7 C5         -0.4370   -0.5410    2.1330 c3        1 XU3      0.040700
      8 S6          3.3730   -1.0790    1.9460 sy        1 XU3      1.374300
      9 C7         -1.4960    0.2410    2.9300 c         1 XU3      0.537100
     10 C8          4.4640   -0.4330    3.0300 ca        1 XU3     -0.409500
     11 O9          3.0140   -2.3770    2.3360 o         1 XU3     -0.636300
     12 O10         3.7560   -0.9070    0.6140 o         1 XU3     -0.636300
     13 C11         5.0730    0.8310    2.9410 ca        1 XU3      0.128400
     14 C12         6.0370    1.2460    3.8640 ca        1 XU3     -0.145000
     15 C13         6.4090    0.3990    4.9060 ca        1 XU3     -0.036000
     16 C14         5.8140   -0.8590    5.0240 ca        1 XU3     -0.145000
     17 C15         4.8610   -1.2620    4.0980 ca        1 XU3     -0.018000
     18 O16        -1.4960    0.4490    4.1320 o         1 XU3     -0.423100
     19 N17        -2.6730    0.7250    2.1210 ny        1 XU3     -0.634800
     20 C18        -3.8700    1.1150    2.8940 cx        1 XU3     -0.101100
     21 C19        -3.7680    2.4850    3.5140 c2        1 XU3      0.423200
     22 N20        -3.2100    2.8210    4.6020 n2        1 XU3     -0.681100
     23 C21        -5.2430    0.6960    2.3820 cx        1 XU3     -0.088400
     24 C22        -4.6930    0.0580    3.6160 cx        1 XU3     -0.088400
     25 C24        -0.7090   -0.2260   -0.2980 c         1 XU3      0.718100
     26 C25        -0.0180   -0.0850   -1.6250 cx        1 XU3     -0.116700
     27 O26        -1.9020   -0.5930   -0.2020 o         1 XU3     -0.642100
     28 C27         0.5670   -1.3420   -2.0760 cc        1 XU3     -0.155400
     29 C28         1.8950   -1.7180   -1.9460 cd        1 XU3     -0.116000
     30 C29         2.1440   -2.9970   -2.5220 cd        1 XU3     -0.149000
     31 C30         0.9940   -3.5390   -3.0720 cc        1 XU3     -0.018700
     32 S31        -0.3220   -2.5160   -2.8870 ss        1 XU3      0.085200
     33 C33        -0.6590    0.8540   -2.6310 cx        1 XU3     -0.093900
     34 C34         0.6340    1.2330   -1.9880 cx        1 XU3     -0.093900
     35 H2          1.3910    1.6340    0.9370 h1        1 XU3      0.092700
     36 H2A         1.8960    0.1360    0.0230 h1        1 XU3      0.092700
     37 H3          2.3030    0.8510    2.8440 h1        1 XU3      0.125700
     38 H4          1.0290   -1.8270    3.1100 hc        1 XU3      0.104700
     39 H4A         0.7110   -0.2860    4.0110 hc        1 XU3      0.104700
     40 H5         -0.9220   -1.5460    1.9240 h1        1 XU3      0.119700
     41 H12         6.5080    2.2390    3.7650 ha        1 XU3      0.169000
     42 H13         7.1730    0.7230    5.6320 ha        1 XU3      0.160000
     43 H14         6.1060   -1.5340    5.8450 ha        1 XU3      0.162000
     44 H15         4.4060   -2.2680    4.1930 ha        1 XU3      0.174000
     45 HN17       -2.3650    1.5370    1.5700 hn        1 XU3      0.479800
     46 H21        -5.3270    0.0970    1.4540 hc        1 XU3      0.110950
     47 H21A       -6.0600    1.4400    2.4630 hc        1 XU3      0.110950
     48 H22        -5.1070    0.3280    4.6080 hc        1 XU3      0.110950
     49 H22A       -4.3790   -1.0020    3.5810 hc        1 XU3      0.110950
     50 H28         2.6880   -1.1310   -1.4680 ha        1 XU3      0.183000
     51 H29         3.1280   -3.4740   -2.5200 ha        1 XU3      0.180000
     52 H33        -0.6680    0.5510   -3.6950 hc        1 XU3      0.091950
     53 H33A       -1.5870    1.3810   -2.3440 hc        1 XU3      0.091950
     54 H34         1.5670    1.1990   -2.5830 hc        1 XU3      0.091950
     55 H34A        0.6500    2.0480   -1.2420 hc        1 XU3      0.091950
     56 H19        -4.2910    3.2710    2.9250 h4        1 XU3      0.048800
     57 HN20       -2.7490    2.1220    5.1470 hn        1 XU3      0.418400
     58 H172       -2.9280   -0.0260    1.4490 hn        1 XU3      0.479800
@<TRIPOS>BOND
     1    1    2 1   
     2    1    7 1   
     3    1   25 1   
     4    2    4 1   
     5    2   35 1   
     6    2   36 1   
     7    3   13 1   
     8    4    6 1   
     9    4    8 1   
    10    4   37 1   
    11    5   31 1   
    12    6    7 1   
    13    6   38 1   
    14    6   39 1   
    15    7    9 1   
    16    7   40 1   
    17    8   10 1   
    18    8   11 2   
    19    8   12 2   
    20    9   18 2   
    21    9   19 1   
    22   10   13 ar  
    23   10   17 ar  
    24   13   14 ar  
    25   14   15 ar  
    26   14   41 1   
    27   15   16 ar  
    28   15   42 1   
    29   16   17 ar  
    30   16   43 1   
    31   17   44 1   
    32   19   20 1   
    33   19   45 1   
    34   19   58 1   
    35   20   21 1   
    36   20   23 1   
    37   20   24 1   
    38   21   22 2   
    39   21   56 1   
    40   22   57 1   
    41   23   24 1   
    42   23   46 1   
    43   23   47 1   
    44   24   48 1   
    45   24   49 1   
    46   25   26 1   
    47   25   27 2   
    48   26   28 1   
    49   26   33 1   
    50   26   34 1   
    51   28   29 2   
    52   28   32 1   
    53   29   30 1   
    54   29   50 1   
    55   30   31 2   
    56   30   51 1   
    57   31   32 1   
    58   33   34 1   
    59   33   52 1   
    60   33   53 1   
    61   34   54 1   
    62   34   55 1   
@<TRIPOS>SUBSTRUCTURE
     1 XU3         1 TEMP              0 ****  ****    0 ROOT
