@<TRIPOS>MOLECULE
XU3
   58    62     1     0     0
SMALL
bcc


@<TRIPOS>ATOM
      1 N1         -0.0890   -0.0110    1.1210 n         1 XU3     -0.462800
      2 C2          1.2840    0.4680    1.2150 c3        1 XU3      0.106000
      3 CL2         4.5570    1.8530    1.9940 cl        1 XU3     -0.066400
      4 C3          1.9530   -0.2120    2.4240 c3        1 XU3     -0.277900
      5 CL3         0.8800   -4.2740   -4.4070 cl        1 XU3     -0.005400
      6 C4          0.8520   -1.0090    3.1170 c3        1 XU3     -0.060400
      7 C5         -0.4360   -0.8030    2.2830 c3        1 XU3      0.051700
      8 S6          3.3650   -1.1800    1.9820 sy        1 XU3      1.373300
      9 C7         -1.5100   -0.1200    3.1560 c         1 XU3      0.535100
     10 C8          4.4820   -0.6160    3.0860 ca        1 XU3     -0.408500
     11 O9          3.0520   -2.5210    2.2540 o         1 XU3     -0.637800
     12 O10         3.6980   -0.8690    0.6620 o         1 XU3     -0.637800
     13 C11         5.0540    0.6680    3.1050 ca        1 XU3      0.128400
     14 C12         6.0420    1.0160    4.0300 ca        1 XU3     -0.145000
     15 C13         6.4760    0.0790    4.9660 ca        1 XU3     -0.037000
     16 C14         5.9190   -1.2010    4.9760 ca        1 XU3     -0.146000
     17 C15         4.9410   -1.5370    4.0490 ca        1 XU3     -0.019000
     18 O16        -1.3490    0.4520    4.2190 o         1 XU3     -0.405100
     19 N17        -2.9290   -0.2540    2.6440 n4        1 XU3     -0.647800
     20 C18        -3.7390    0.9770    2.7740 cx        1 XU3     -0.098100
     21 C19        -3.3660    2.0740    1.8120 c2        1 XU3      0.446200
     22 N20        -3.2390    2.0320    0.5510 n2        1 XU3     -0.712100
     23 C21        -5.2150    0.8530    3.1390 cx        1 XU3     -0.086400
     24 C22        -4.2550    1.4000    4.1430 cx        1 XU3     -0.086400
     25 C24        -0.7670   -0.1790   -0.0860 c         1 XU3      0.737100
     26 C25        -0.1190    0.1960   -1.3900 cx        1 XU3     -0.120700
     27 O26        -1.9400   -0.6200   -0.0300 o         1 XU3     -0.666100
     28 C27         0.4890   -0.9560   -2.0460 cc        1 XU3     -0.151400
     29 C28         1.8220   -1.3310   -1.9740 cd        1 XU3     -0.117000
     30 C29         2.0910   -2.4880   -2.7590 cd        1 XU3     -0.149000
     31 C30         0.9520   -2.9430   -3.4020 cc        1 XU3     -0.019700
     32 S31        -0.3800   -1.9850   -3.0540 ss        1 XU3      0.081200
     33 C33        -0.8130    1.2600   -2.2220 cx        1 XU3     -0.092400
     34 C34         0.4860    1.5750   -1.5570 cx        1 XU3     -0.092400
     35 H2          1.8390    0.2600    0.2530 h1        1 XU3      0.094700
     36 H2A         1.2560    1.5840    1.3710 h1        1 XU3      0.094700
     37 H3          2.2790    0.6070    3.1230 h1        1 XU3      0.128700
     38 H4          0.7160   -0.6600    4.1710 hc        1 XU3      0.101700
     39 H4A         1.0880   -2.1080    3.1440 hc        1 XU3      0.101700
     40 H5         -0.8600   -1.8050    1.9650 h1        1 XU3      0.103700
     41 H12         6.4830    2.0270    4.0160 ha        1 XU3      0.169000
     42 H13         7.2590    0.3500    5.6930 ha        1 XU3      0.160000
     43 H14         6.2600   -1.9470    5.7120 ha        1 XU3      0.161000
     44 H15         4.5170   -2.5600    4.0570 ha        1 XU3      0.174000
     45 HN17       -2.9040   -0.5350    1.6450 hn        1 XU3      0.472800
     46 H21        -5.6610   -0.1470    3.3010 hc        1 XU3      0.111200
     47 H21A       -5.9210    1.5340    2.6240 hc        1 XU3      0.111200
     48 H22        -4.2550    2.4840    4.3730 hc        1 XU3      0.111200
     49 H22A       -3.9910    0.7970    5.0330 hc        1 XU3      0.111200
     50 H28         2.6040   -0.8230   -1.3970 ha        1 XU3      0.184000
     51 H29         3.0830   -2.9450   -2.8330 ha        1 XU3      0.179000
     52 H33        -0.8430    1.1230   -3.3190 hc        1 XU3      0.093700
     53 H33A       -1.7450    1.7100   -1.8340 hc        1 XU3      0.093700
     54 H34         0.4960    2.2670   -0.6950 hc        1 XU3      0.093700
     55 H34A        1.4040    1.6620   -2.1700 hc        1 XU3      0.093700
     56 H19        -3.2230    3.0550    2.3180 h4        1 XU3      0.054800
     57 HN20       -3.3670    1.1670    0.0660 hn        1 XU3      0.416400
     58 H172       -3.3880   -1.0020    3.1770 hn        1 XU3      0.472800
@<TRIPOS>BOND
     1    1    2 1   
     2    1    7 1   
     3    1   25 1   
     4    2    4 1   
     5    2   35 1   
     6    2   36 1   
     7    3   13 1   
     8    4    6 1   
     9    4    8 1   
    10    4   37 1   
    11    5   31 1   
    12    6    7 1   
    13    6   38 1   
    14    6   39 1   
    15    7    9 1   
    16    7   40 1   
    17    8   10 1   
    18    8   11 2   
    19    8   12 2   
    20    9   18 2   
    21    9   19 1   
    22   10   13 ar  
    23   10   17 ar  
    24   13   14 ar  
    25   14   15 ar  
    26   14   41 1   
    27   15   16 ar  
    28   15   42 1   
    29   16   17 ar  
    30   16   43 1   
    31   17   44 1   
    32   19   20 1   
    33   19   45 1   
    34   19   58 1   
    35   20   21 1   
    36   20   23 1   
    37   20   24 1   
    38   21   22 2   
    39   21   56 1   
    40   22   57 1   
    41   23   24 1   
    42   23   46 1   
    43   23   47 1   
    44   24   48 1   
    45   24   49 1   
    46   25   26 1   
    47   25   27 2   
    48   26   28 1   
    49   26   33 1   
    50   26   34 1   
    51   28   29 2   
    52   28   32 1   
    53   29   30 1   
    54   29   50 1   
    55   30   31 2   
    56   30   51 1   
    57   31   32 1   
    58   33   34 1   
    59   33   52 1   
    60   33   53 1   
    61   34   54 1   
    62   34   55 1   
@<TRIPOS>SUBSTRUCTURE
     1 XU3         1 TEMP              0 ****  ****    0 ROOT
