@<TRIPOS>MOLECULE
XU5
   64    65     1     0     0
SMALL
bcc


@<TRIPOS>ATOM
      1 Cl          2.2800   -1.2550    4.4390 cl        1 XU5     -0.057000
      2 C1          2.1960    5.0860    2.0370 c1        1 XU5     -0.369000
      3 C2          1.0350    5.7850    2.4150 c2        1 XU5      0.422000
      4 N3          0.9240    6.0850    3.8900 ny        1 XU5     -0.096000
      5 C4          0.9910    7.5530    4.2000 cx        1 XU5     -0.161000
      6 C5         -0.1650    8.4200    3.9430 c1        1 XU5     -0.084000
      7 O6          0.0990    6.1310    1.7010 o         1 XU5     -0.209000
      8 C7          1.8040    7.9650    5.4340 cx        1 XU5     -0.147500
      9 C8          2.3440    8.2590    4.0760 cx        1 XU5     -0.147500
     10 N9         -1.2790    8.1080    3.3620 n8        1 XU5     -0.205000
     11 N10        -1.6600    3.4670    1.8060 ns        1 XU5     -0.228000
     12 C11        -1.6050    2.2460    1.3270 c1        1 XU5     -0.110000
     13 C12         0.7470    0.6850   -0.1390 c3        1 XU5     -0.978000
     14 C13         3.1190    4.4360    1.6260 c1        1 XU5      0.129000
     15 C15         2.2220   -0.4740    1.7920 c3        1 XU5     -0.758000
     16 C16         1.4200   -1.2520    2.9140 c3        1 XU5      0.068000
     17 C17         1.2860   -2.5850    2.3350 cu        1 XU5     -0.192000
     18 C18         1.2800   -3.7210    1.6460 cu        1 XU5      0.066000
     19 C19         1.9220   -2.6210    0.9810 cu        1 XU5     -0.131000
     20 C20         2.4490   -1.4510    0.6380 c2        1 XU5     -0.184000
     21 O22         2.5150    1.9740    1.1500 o         1 XU5     -0.972500
     22 O23         0.5270    1.3900    2.2910 o         1 XU5     -0.972500
     23 O25        -1.7830    5.0660    3.4320 o         1 XU5     -0.413000
     24 C26        -4.4530    3.4200    4.0460 cx        1 XU5     -0.175500
     25 C27        -2.9880    3.0430    3.9340 cx        1 XU5     -0.118000
     26 C28        -4.0650    2.1850    3.3030 cx        1 XU5     -0.175500
     27 C29        -1.8850    2.5660    7.5140 ca        1 XU5     -0.137500
     28 C30        -0.8910    1.5970    7.3750 ca        1 XU5     -0.123000
     29 C31        -0.5760    1.1130    6.1040 ca        1 XU5     -0.137500
     30 C32        -1.2520    1.5870    4.9810 ca        1 XU5     -0.118000
     31 C33        -2.2570    2.5520    5.1210 ca        1 XU5     -0.087000
     32 C34        -2.5650    3.0450    6.3950 ca        1 XU5     -0.118000
     33 H1         -1.2690    4.2020    1.2390 hn        1 XU5      0.248000
     34 HN3         1.6660    5.5870    4.3910 hn        1 XU5      0.258500
     35 H5         -1.5310    7.2160    2.9730 hn        1 XU5      0.234500
     36 H7          1.3890    8.7900    6.0470 hc        1 XU5      0.147750
     37 H7A         2.2810    7.1830    6.0530 hc        1 XU5      0.147750
     38 H8          2.3290    9.3010    3.6980 hc        1 XU5      0.147750
     39 H8A         3.2150    7.6900    3.7010 hc        1 XU5      0.147750
     40 HN9        -1.9660    8.8290    3.2700 hn        1 XU5      0.234500
     41 H11        -2.0090    1.4250    1.9520 ha        1 XU5      0.078000
     42 H11A        0.4780   -0.3880   -0.3190 h1        1 XU5      0.190667
     43 H12         1.3560    0.9950   -1.0260 h1        1 XU5      0.190667
     44 H13         3.9130    3.8140    1.2630 ha        1 XU5      0.279000
     45 H13A       -0.2340    1.2510   -0.2150 h1        1 XU5      0.190667
     46 H17         0.4300   -0.7630    3.1170 h1        1 XU5      0.159000
     47 H18         1.0230   -4.7620    1.5600 ha        1 XU5      0.224000
     48 H19         3.0200   -1.1620   -0.2420 ha        1 XU5      0.175000
     49 H20         3.2480   -0.2390    2.2030 h1        1 XU5      0.189000
     50 H26A       -4.8190    4.2990    3.4850 hc        1 XU5      0.129500
     51 H28        -4.1730    2.1650    2.2020 hc        1 XU5      0.129500
     52 H28A       -4.2650    1.1950    3.7540 hc        1 XU5      0.129500
     53 H29        -3.3490    3.8080    6.5150 ha        1 XU5      0.144000
     54 H31         0.2090    0.3500    5.9860 ha        1 XU5      0.140500
     55 H32        -0.9850    1.2070    3.9800 ha        1 XU5      0.144000
     56 H34        -2.1400    2.9510    8.5130 ha        1 XU5      0.140500
     57 H35         1.0270   -0.6780   10.1550 ha        1 XU5      0.024000
     58 H35A       -0.3600    1.2110    8.2690 ha        1 XU5      0.187000
     59 H35B        0.0450    0.4980   11.1400 ha        1 XU5      0.024000
     60 C35         0.4240    0.2430   10.1390 c1        1 XU5     -0.038000
     61 H321        0.0120    5.7360    4.2250 hn        1 XU5      0.258500
     62 S14         1.4870    1.0130    1.3160 s6        1 XU5      2.799000
     63 C24        -2.1310    3.9210    3.0740 c2        1 XU5      0.335000
     64 H26        -4.9430    3.3270    5.0330 hc        1 XU5      0.129500
@<TRIPOS>BOND
     1    1   16 1   
     2    2    3 1   
     3    2   14 1   
     4    3    4 1   
     5    3    7 1   
     6    4    5 1   
     7    4   34 1   
     8    4   61 1   
     9    5    6 1   
    10    5    8 1   
    11    5    9 1   
    12    6   10 1   
    13    8    9 1   
    14    8   36 1   
    15    8   37 1   
    16    9   38 1   
    17    9   39 1   
    18   10   35 1   
    19   10   40 1   
    20   11   12 1   
    21   11   33 1   
    22   11   63 1   
    23   12   41 1   
    24   13   42 1   
    25   13   43 1   
    26   13   45 1   
    27   13   62 1   
    28   14   44 1   
    29   15   16 1   
    30   15   20 1   
    31   15   49 1   
    32   15   62 1   
    33   16   17 1   
    34   16   46 1   
    35   17   18 1   
    36   17   19 1   
    37   18   19 1   
    38   18   47 1   
    39   19   20 1   
    40   20   48 1   
    41   21   62 1   
    42   22   62 1   
    43   23   63 1   
    44   24   25 1   
    45   24   26 1   
    46   24   50 1   
    47   24   64 1   
    48   25   26 1   
    49   25   31 1   
    50   25   63 1   
    51   26   51 1   
    52   26   52 1   
    53   27   28 1   
    54   27   32 1   
    55   27   56 1   
    56   28   29 1   
    57   28   58 1   
    58   29   30 1   
    59   29   54 1   
    60   30   31 1   
    61   30   55 1   
    62   31   32 1   
    63   32   53 1   
    64   57   60 1   
    65   59   60 1   
@<TRIPOS>SUBSTRUCTURE
     1 XU5         1 TEMP              0 ****  ****    0 ROOT
