@<TRIPOS>MOLECULE
XU5
   64    64     1     0     0
SMALL
bcc


@<TRIPOS>ATOM
      1 CL          1.6110   -2.1610   -0.7870 cl        1 XU5     -0.056000
      2 C1          0.3880    4.5340    4.0910 c2        1 XU5     -0.223000
      3 C2          1.0720    4.9160    2.8500 c2        1 XU5      0.328000
      4 N3          1.6100    6.3170    2.8810 n4        1 XU5     -0.082000
      5 C4          0.9230    7.2310    1.9160 cx        1 XU5     -0.168000
      6 C5         -0.4170    7.7540    2.2100 c1        1 XU5     -0.079000
      7 O6          1.3120    4.2240    1.8590 o         1 XU5     -0.260000
      8 C7          1.8120    8.2040    1.1300 cx        1 XU5     -0.145000
      9 C8          1.1960    7.0500    0.4180 cx        1 XU5     -0.145000
     10 N9         -1.2230    7.3670    3.1470 n3        1 XU5     -0.208000
     11 N10        -0.4360    3.2600    4.0110 n4        1 XU5     -0.093000
     12 C11        -0.3090    2.5620    2.7540 c1        1 XU5      0.140000
     13 C12         0.6140    1.4600    2.6060 c3        1 XU5     -0.918000
     14 C13         0.5430    5.2850    5.1570 c1        1 XU5     -0.378000
     15 C15         1.1220   -0.8690    1.5390 c2        1 XU5     -0.857000
     16 C16         1.3190   -0.6380    0.0600 c3        1 XU5      0.112000
     17 C17         2.3920    0.2790   -0.1980 c1        1 XU5     -0.213000
     18 C18         3.2850    1.0350   -0.4480 c1        1 XU5     -0.140000
     19 C19         2.7270   -2.5030    2.7870 c2        1 XU5     -0.151000
     20 C20         1.9320   -1.6800    2.1840 c1        1 XU5      0.067000
     21 O22        -0.4640   -0.6210    3.5070 o         1 XU5     -0.899000
     22 O23        -1.2000    0.1070    1.3430 o         1 XU5     -0.899000
     23 O25        -2.3170    4.6660    3.7200 o         1 XU5     -0.227000
     24 C26        -4.2090    2.5630    4.6120 c3        1 XU5     -0.323000
     25 C27        -2.7100    2.5510    4.8410 c3        1 XU5     -0.311000
     26 C28        -3.4260    1.4740    4.0070 c1        1 XU5      0.286000
     27 C29        -1.9000    2.5720    8.5230 ca        1 XU5     -0.131500
     28 C30        -1.2250    1.3530    8.6730 ca        1 XU5     -0.032000
     29 C31        -1.0380    0.5340    7.5510 ca        1 XU5     -0.131500
     30 C32        -1.5140    0.9230    6.3020 ca        1 XU5     -0.113000
     31 C33        -2.1840    2.1460    6.1580 ca        1 XU5     -0.120000
     32 C34        -2.3800    2.9650    7.2770 ca        1 XU5     -0.113000
     33 H1         -0.1630    2.6990    4.8350 hn        1 XU5      0.226000
     34 HN3         2.6110    6.2850    2.6680 hn        1 XU5      0.264000
     35 H5         -1.0680    6.6350    3.8160 hn        1 XU5      0.225500
     36 H7          1.4060    9.2230    0.9700 hc        1 XU5      0.148750
     37 H7A         2.9020    8.2130    1.3180 hc        1 XU5      0.148750
     38 H8          0.3460    7.2260   -0.2700 hc        1 XU5      0.148750
     39 H8A         1.8250    6.1960    0.0970 hc        1 XU5      0.148750
     40 HN9        -2.1220    7.8030    3.1910 hn        1 XU5      0.225500
     41 H11         2.1150    3.9810   -0.3980 ha        1 XU5      0.009000
     42 H11A        2.2340    3.3370   -0.2220 ha        1 XU5      0.009000
     43 H12         1.2290    1.7480    1.6900 h1        1 XU5      0.192500
     44 H13         0.2430    5.2700    6.1890 ha        1 XU5      0.173000
     45 H13A        1.3370    1.2920    3.4470 h1        1 XU5      0.192500
     46 H17         0.3580   -0.2470   -0.3950 h1        1 XU5      0.163000
     47 H18         4.0770    1.7030   -0.6840 ha        1 XU5      0.235000
     48 H19         3.6720   -2.1810    3.2560 ha        1 XU5      0.186500
     49 H20         2.4960   -3.5800    2.8720 ha        1 XU5      0.186500
     50 H26A       -4.6440    3.3660    3.9800 hc        1 XU5      0.185500
     51 H28        -2.8350    2.3240    2.1070 ha        1 XU5      0.009000
     52 H28A       -2.9500    1.7410    1.7670 ha        1 XU5      0.009000
     53 H29        -2.9260    3.9150    7.1750 ha        1 XU5      0.157000
     54 H31        -0.5220   -0.4320    7.6590 ha        1 XU5      0.150000
     55 H32        -1.3850    0.2520    5.4330 ha        1 XU5      0.157000
     56 H34        -2.0600    3.2180    9.4000 ha        1 XU5      0.150000
     57 H35         0.1450    0.2480    9.9120 hc        1 XU5      0.097667
     58 H35A       -0.4490    1.8070   10.6280 hc        1 XU5      0.097667
     59 H35B       -1.5510    0.3700   10.5410 hc        1 XU5      0.097667
     60 C35        -0.7400    0.9250   10.0040 c3        1 XU5     -0.194000
     61 H321        1.4770    6.6710    3.8590 hn        1 XU5      0.264000
     62 S14        -0.1690   -0.1080    2.2450 s6        1 XU5      2.869000
     63 C24        -1.9150    3.5960    4.1560 c2        1 XU5      0.367000
     64 H26        -4.8740    2.3470    5.4760 hc        1 XU5      0.185500
@<TRIPOS>BOND
     1    1   16 1   
     2    2    3 1   
     3    2   11 1   
     4    2   14 1   
     5    3    4 1   
     6    3    7 1   
     7    4    5 1   
     8    4   34 1   
     9    4   61 1   
    10    5    6 1   
    11    5    8 1   
    12    5    9 1   
    13    6   10 1   
    14    8    9 1   
    15    8   36 1   
    16    8   37 1   
    17    9   38 1   
    18    9   39 1   
    19   10   35 1   
    20   10   40 1   
    21   11   12 1   
    22   11   33 1   
    23   11   63 1   
    24   12   13 1   
    25   13   43 1   
    26   13   45 1   
    27   13   62 1   
    28   14   44 1   
    29   15   16 1   
    30   15   20 1   
    31   15   62 1   
    32   16   17 1   
    33   16   46 1   
    34   17   18 1   
    35   18   47 1   
    36   19   20 1   
    37   19   48 1   
    38   19   49 1   
    39   21   62 1   
    40   22   62 1   
    41   23   63 1   
    42   24   25 1   
    43   24   26 1   
    44   24   50 1   
    45   24   64 1   
    46   25   26 1   
    47   25   31 1   
    48   25   63 1   
    49   27   28 1   
    50   27   32 1   
    51   27   56 1   
    52   28   29 1   
    53   28   60 1   
    54   29   30 1   
    55   29   54 1   
    56   30   31 1   
    57   30   55 1   
    58   31   32 1   
    59   32   53 1   
    60   41   42 1   
    61   51   52 1   
    62   57   60 1   
    63   58   60 1   
    64   59   60 1   
@<TRIPOS>SUBSTRUCTURE
     1 XU5         1 TEMP              0 ****  ****    0 ROOT
