@<TRIPOS>MOLECULE
XU5
   63    67     1     0     0
SMALL
bcc


@<TRIPOS>ATOM
      1 CL         -2.8080   -2.8170    1.9780 cl        1 XU5     -0.066400
      2 C1         -0.3230    1.4160   -0.9410 c3        1 XU5      0.035700
      3 C2         -1.1710    2.6340   -0.4870 c         1 XU5      0.657100
      4 N3         -0.4770    3.8030   -0.2900 n         1 XU5     -0.514900
      5 C4         -1.0700    5.0470    0.0790 cx        1 XU5      0.000100
      6 C5         -0.1150    6.2140    0.1190 c2        1 XU5      0.450200
      7 O6         -2.4030    2.5260   -0.3230 o         1 XU5     -0.628100
      8 C7         -2.4870    5.4420   -0.3280 cx        1 XU5     -0.128900
      9 C8         -2.1960    5.1200    1.1060 cx        1 XU5     -0.128900
     10 N9          0.8050    6.3960   -0.7480 n2        1 XU5     -0.755100
     11 N10         0.5840    0.9650    0.1060 n         1 XU5     -0.455800
     12 C11         0.1890   -0.3330    0.6190 c3        1 XU5      0.127000
     13 C12        -1.0580   -0.7970   -0.1640 c3        1 XU5     -0.296900
     14 C13        -1.2310    0.2190   -1.2930 c3        1 XU5     -0.055400
     15 S14        -0.9370   -2.4400   -0.6890 sy        1 XU5      1.368300
     16 C15        -2.5720   -2.8680   -0.7160 ca        1 XU5     -0.367500
     17 C16        -3.3980   -3.0600    0.4030 ca        1 XU5      0.127400
     18 C17        -4.7340   -3.4550    0.2670 ca        1 XU5     -0.152000
     19 C18        -5.2690   -3.6620   -1.0020 ca        1 XU5     -0.056000
     20 C19        -4.4700   -3.4750   -2.1310 ca        1 XU5     -0.152000
     21 C20        -3.1440   -3.0850   -1.9820 ca        1 XU5     -0.024000
     22 O22        -0.4370   -2.4850   -2.0010 o         1 XU5     -0.643300
     23 O23        -0.2280   -3.1790    0.2650 o         1 XU5     -0.643300
     24 C24         1.8780    1.4570    0.2030 c         1 XU5      0.703100
     25 O25         2.2020    2.4780   -0.4370 o         1 XU5     -0.608100
     26 C26         3.5290    1.6500    2.1580 cx        1 XU5     -0.104400
     27 C27         2.8470    0.7690    1.1310 cx        1 XU5     -0.146700
     28 C28         2.4960    0.6620    2.5980 cx        1 XU5     -0.104400
     29 C29         5.2140   -0.9070   -1.2690 ca        1 XU5     -0.130000
     30 C30         5.1360   -2.2480   -0.8730 ca        1 XU5     -0.067300
     31 C31         4.2930   -2.5970    0.1890 ca        1 XU5     -0.130000
     32 C32         3.5430   -1.6240    0.8450 ca        1 XU5     -0.111000
     33 C33         3.6240   -0.2840    0.4500 ca        1 XU5     -0.077300
     34 C34         4.4640    0.0660   -0.6170 ca        1 XU5     -0.111000
     35 H1          0.2700    1.7350   -1.8510 h1        1 XU5      0.092700
     36 HN3         0.5000    3.8170   -0.5050 hn        1 XU5      0.358500
     37 H5         -0.3350    6.8980    0.9700 h4        1 XU5     -0.032200
     38 H7         -2.6640    6.4910   -0.6260 hc        1 XU5      0.083700
     39 H7A        -3.0930    4.7280   -0.9160 hc        1 XU5      0.083700
     40 H8         -2.5960    4.1750    1.5190 hc        1 XU5      0.083700
     41 H8A        -2.1730    5.9300    1.8550 hc        1 XU5      0.083700
     42 HN9         1.3580    7.2190   -0.6230 hn        1 XU5      0.391400
     43 H11         1.0310   -1.0780    0.5160 h1        1 XU5      0.067700
     44 H11A       -0.0560   -0.2350    1.7140 h1        1 XU5      0.067700
     45 H12        -1.9380   -0.6720    0.5280 h1        1 XU5      0.130700
     46 H13        -2.2980    0.5450   -1.3810 hc        1 XU5      0.087700
     47 H13A       -0.9040   -0.2150   -2.2740 hc        1 XU5      0.087700
     48 H17        -5.3590   -3.6030    1.1610 ha        1 XU5      0.157000
     49 H18        -6.3200   -3.9710   -1.1110 ha        1 XU5      0.146000
     50 H19        -4.8870   -3.6370   -3.1370 ha        1 XU5      0.149000
     51 H20        -2.5150   -2.9470   -2.8830 ha        1 XU5      0.172000
     52 H26         4.5930    1.4590    2.3860 hc        1 XU5      0.083200
     53 H26A        3.2880    2.7290    2.1600 hc        1 XU5      0.083200
     54 H28         2.8140   -0.2390    3.1530 hc        1 XU5      0.083200
     55 H28A        1.5080    1.0280    2.9340 hc        1 XU5      0.083200
     56 H29         5.8710   -0.6220   -2.1050 ha        1 XU5      0.135500
     57 H31         4.2170   -3.6480    0.5040 ha        1 XU5      0.135500
     58 H32         2.8810   -1.9180    1.6750 ha        1 XU5      0.143500
     59 H34         4.5160    1.1190   -0.9380 ha        1 XU5      0.143500
     60 H35         6.1960   -4.1200   -0.8890 hc        1 XU5      0.046033
     61 H35A        5.3100   -3.7160   -2.4180 hc        1 XU5      0.046033
     62 H35B        6.8550   -2.8590   -2.0140 hc        1 XU5      0.046033
     63 C35         5.9180   -3.2870   -1.5810 c3        1 XU5     -0.055800
@<TRIPOS>BOND
     1    1   17 1   
     2    2    3 1   
     3    2   11 1   
     4    2   14 1   
     5    2   35 1   
     6    3    4 1   
     7    3    7 2   
     8    4    5 1   
     9    4   36 1   
    10    5    6 1   
    11    5    8 1   
    12    5    9 1   
    13    6   10 2   
    14    6   37 1   
    15    8    9 1   
    16    8   38 1   
    17    8   39 1   
    18    9   40 1   
    19    9   41 1   
    20   10   42 1   
    21   11   12 1   
    22   11   24 1   
    23   12   13 1   
    24   12   43 1   
    25   12   44 1   
    26   13   14 1   
    27   13   15 1   
    28   13   45 1   
    29   14   46 1   
    30   14   47 1   
    31   15   16 1   
    32   15   22 2   
    33   15   23 2   
    34   16   17 ar  
    35   16   21 ar  
    36   17   18 ar  
    37   18   19 ar  
    38   18   48 1   
    39   19   20 ar  
    40   19   49 1   
    41   20   21 ar  
    42   20   50 1   
    43   21   51 1   
    44   24   25 2   
    45   24   27 1   
    46   26   27 1   
    47   26   28 1   
    48   26   52 1   
    49   26   53 1   
    50   27   28 1   
    51   27   33 1   
    52   28   54 1   
    53   28   55 1   
    54   29   30 ar  
    55   29   34 ar  
    56   29   56 1   
    57   30   31 ar  
    58   30   63 1   
    59   31   32 ar  
    60   31   57 1   
    61   32   33 ar  
    62   32   58 1   
    63   33   34 ar  
    64   34   59 1   
    65   60   63 1   
    66   61   63 1   
    67   62   63 1   
@<TRIPOS>SUBSTRUCTURE
     1 XU5         1 TEMP              0 ****  ****    0 ROOT
