@<TRIPOS>MOLECULE
XU5
   64    68     1     0     0
SMALL
bcc


@<TRIPOS>ATOM
      1 CL          1.8230   -1.6710    2.3220 cl        1 XU5     -0.060400
      2 C1         -0.0370    3.4900    3.0400 c2        1 XU5     -0.408200
      3 C2          0.3420    4.6060    3.7810 c2        1 XU5      0.574300
      4 N3          1.5440    5.3930    3.2840 n4        1 XU5     -0.616800
      5 C4          1.1970    6.5680    2.4600 cx        1 XU5     -0.080100
      6 C5          0.9260    7.8280    3.2400 c2        1 XU5      0.440200
      7 O6         -0.1350    5.0370    4.8510 o         1 XU5     -0.645300
      8 C7          1.8640    6.7300    1.0990 cx        1 XU5     -0.095900
      9 C8          0.4090    6.3960    1.1680 cx        1 XU5     -0.095900
     10 N9          0.3130    7.9960    4.3360 n2        1 XU5     -0.713100
     11 N10        -0.8410    2.4450    3.6790 n4        1 XU5     -0.409000
     12 C11        -0.2330    1.1450    3.1770 c3        1 XU5      0.163800
     13 C12         0.8650    1.5040    2.1580 c3        1 XU5     -0.282900
     14 C13         0.5080    2.9500    1.7620 c3        1 XU5      0.038800
     15 S14         2.4870    1.4560    2.8310 sy        1 XU5      1.378300
     16 C15         3.2830    0.5170    1.7170 ca        1 XU5     -0.412500
     17 C16         3.0530   -0.8520    1.4870 ca        1 XU5      0.131400
     18 C17         3.8200   -1.5790    0.5730 ca        1 XU5     -0.141000
     19 C18         4.8380   -0.9450   -0.1380 ca        1 XU5     -0.031000
     20 C19         5.0840    0.4150    0.0660 ca        1 XU5     -0.145000
     21 C20         4.3170    1.1260    0.9790 ca        1 XU5     -0.017000
     22 O22         2.9840    2.7870    2.7990 o         1 XU5     -0.662800
     23 O23         2.4110    0.8880    4.1050 o         1 XU5     -0.662800
     24 C24        -2.3030    2.5780    3.3040 c         1 XU5      0.603100
     25 O25        -2.6080    2.3560    2.1390 o         1 XU5     -0.452100
     26 C26        -3.8220    4.3670    4.3300 cx        1 XU5     -0.072900
     27 C27        -3.2240    2.9700    4.4070 cx        1 XU5     -0.185700
     28 C28        -4.6780    3.1880    4.0140 cx        1 XU5     -0.072900
     29 C29        -3.2050    0.5970    7.3370 ca        1 XU5     -0.129000
     30 C30        -2.3910    1.2760    8.2520 ca        1 XU5     -0.039300
     31 C31        -1.8450    2.5150    7.8900 ca        1 XU5     -0.129000
     32 C32        -2.1070    3.0660    6.6390 ca        1 XU5     -0.117000
     33 C33        -2.9180    2.3800    5.7240 ca        1 XU5     -0.133300
     34 C34        -3.4710    1.1440    6.0840 ca        1 XU5     -0.117000
     35 H1         -0.7550    2.5120    4.7040 hn        1 XU5      0.469800
     36 HN3         2.0500    5.7250    4.1170 hn        1 XU5      0.469300
     37 H5          1.3200    8.7320    2.7240 h4        1 XU5      0.045800
     38 H7          2.1830    7.7470    0.8020 hc        1 XU5      0.104700
     39 H7A         2.5770    5.9600    0.7480 hc        1 XU5      0.104700
     40 H8          0.0680    5.3850    0.8730 hc        1 XU5      0.104700
     41 H8A        -0.3440    7.1710    0.9280 hc        1 XU5      0.104700
     42 HN9        -0.0610    7.2090    4.8260 hn        1 XU5      0.425400
     43 H11         0.1810    0.5810    4.0610 hx        1 XU5      0.117700
     44 H11A       -1.0380    0.5370    2.6820 hx        1 XU5      0.117700
     45 H12         0.7590    0.8310    1.2680 h1        1 XU5      0.141700
     46 H13        -0.2840    2.9430    0.9650 hc        1 XU5      0.076200
     47 H13A        1.3870    3.5090    1.3590 hc        1 XU5      0.076200
     48 H17         3.6250   -2.6540    0.4180 ha        1 XU5      0.173000
     49 H18         5.4460   -1.5180   -0.8570 ha        1 XU5      0.164000
     50 H19         5.8890    0.9200   -0.4920 ha        1 XU5      0.162000
     51 H20         4.5300    2.2000    1.1430 ha        1 XU5      0.165000
     52 H26        -3.9630    4.9090    5.2850 hc        1 XU5      0.100450
     53 H26A       -3.5020    5.0370    3.5120 hc        1 XU5      0.100450
     54 H28        -5.4530    2.8650    4.7350 hc        1 XU5      0.100450
     55 H28A       -4.9710    2.9980    2.9640 hc        1 XU5      0.100450
     56 H31        -1.2110    3.0620    8.6050 ha        1 XU5      0.150000
     57 H32        -1.6870    4.0510    6.3710 ha        1 XU5      0.149500
     58 H34        -4.1290    0.6110    5.3810 ha        1 XU5      0.149500
     59 H35        -1.1230    1.0150    9.9700 hc        1 XU5      0.059033
     60 H35A       -2.9020    1.0670   10.3160 hc        1 XU5      0.059033
     61 H35B       -2.1700   -0.4130    9.5670 hc        1 XU5      0.059033
     62 C35        -2.1280    0.7040    9.5910 c3        1 XU5     -0.068800
     63 H321        2.1710    4.7610    2.7610 hn        1 XU5      0.469300
     64 H29        -3.6460   -0.3740    7.6140 ha        1 XU5      0.150000
@<TRIPOS>BOND
     1    1   17 1   
     2    2    3 2   
     3    2   11 1   
     4    2   14 1   
     5    3    4 1   
     6    3    7 1   
     7    4    5 1   
     8    4   36 1   
     9    4   63 1   
    10    5    6 1   
    11    5    8 1   
    12    5    9 1   
    13    6   10 2   
    14    6   37 1   
    15    8    9 1   
    16    8   38 1   
    17    8   39 1   
    18    9   40 1   
    19    9   41 1   
    20   10   42 1   
    21   11   12 1   
    22   11   24 1   
    23   11   35 1   
    24   12   13 1   
    25   12   43 1   
    26   12   44 1   
    27   13   14 1   
    28   13   15 1   
    29   13   45 1   
    30   14   46 1   
    31   14   47 1   
    32   15   16 1   
    33   15   22 2   
    34   15   23 2   
    35   16   17 ar  
    36   16   21 ar  
    37   17   18 ar  
    38   18   19 ar  
    39   18   48 1   
    40   19   20 ar  
    41   19   49 1   
    42   20   21 ar  
    43   20   50 1   
    44   21   51 1   
    45   24   25 2   
    46   24   27 1   
    47   26   27 1   
    48   26   28 1   
    49   26   52 1   
    50   26   53 1   
    51   27   28 1   
    52   27   33 1   
    53   28   54 1   
    54   28   55 1   
    55   29   30 ar  
    56   29   34 ar  
    57   29   64 1   
    58   30   31 ar  
    59   30   62 1   
    60   31   32 ar  
    61   31   56 1   
    62   32   33 ar  
    63   32   57 1   
    64   33   34 ar  
    65   34   58 1   
    66   59   62 1   
    67   60   62 1   
    68   61   62 1   
@<TRIPOS>SUBSTRUCTURE
     1 XU5         1 TEMP              0 ****  ****    0 ROOT
