@<TRIPOS>MOLECULE
XUA
   38    40     1     0     0
SMALL
bcc


@<TRIPOS>ATOM
      1 P          -3.4380   -0.9920   -1.3960 p5        1 XUA      1.347900
      2 N1          5.2760   -2.2950    0.0120 nb        1 XUA     -0.801000
      3 C2          5.0160   -1.1810    0.7540 ca        1 XUA      0.627900
      4 N3          3.8910   -0.4400    0.8540 nb        1 XUA     -0.714000
      5 C4          2.8680   -0.9140    0.0800 ca        1 XUA      0.425800
      6 C5          3.0040   -2.0940   -0.7790 ca        1 XUA     -0.189200
      7 C6          4.2660   -2.7570   -0.7900 ca        1 XUA      0.674200
      8 N6          4.4800   -3.8310   -1.6650 nh        1 XUA     -0.922500
      9 N7          1.7900   -2.3440   -1.4330 nc        1 XUA     -0.605100
     10 C8          0.9450   -1.3860   -1.0140 cd        1 XUA      0.469700
     11 N9          1.5510   -0.4710   -0.1080 na        1 XUA     -0.278000
     12 C1'         0.9520    0.6550    0.5980 c3        1 XUA      0.270800
     13 OP1        -2.0230   -1.4150   -1.7460 o         1 XUA     -0.922833
     14 C2'         0.2460    1.6550   -0.3550 c3        1 XUA     -0.006600
     15 SE2'        0.8000    3.2680    0.1880 ss        1 XUA     -0.351200
     16 OP2        -3.6600    0.4600   -1.7470 o         1 XUA     -0.922833
     17 C3'        -1.2280    1.2530   -0.2520 c3        1 XUA      0.113100
     18 O3'        -2.1160    2.3410   -0.2950 oh        1 XUA     -0.659800
     19 OP3        -4.5350   -1.9840   -1.5900 o         1 XUA     -0.922833
     20 C4'        -1.3560    0.4610    1.0660 c3        1 XUA      0.065100
     21 O4'        -0.0140    0.2130    1.5480 os        1 XUA     -0.428600
     22 C5'        -2.0720   -0.9020    0.8940 c3        1 XUA      0.221400
     23 O5'        -3.3070   -0.7860    0.3200 os        1 XUA     -0.570200
     24 CA'        -0.0270    4.3930   -0.8750 c3        1 XUA     -0.027000
     25 HN6         3.6350   -4.2560   -1.9810 hn        1 XUA      0.400300
     26 HN6A        5.1810   -4.4780   -1.3830 hn        1 XUA      0.400300
     27 H1'         1.7700    1.1510    1.2030 h2        1 XUA      0.095700
     28 H2'         0.5730    1.5470   -1.4180 h1        1 XUA      0.082700
     29 H3'        -1.4730    0.5390   -1.1170 h1        1 XUA      0.154700
     30 HO3'       -2.9230    1.9870   -0.7440 ho        1 XUA      0.496000
     31 H4'        -1.8540    1.0780    1.8570 h1        1 XUA      0.054700
     32 H5'        -1.4020   -1.5860    0.3010 h1        1 XUA      0.000200
     33 H5''       -2.1900   -1.3300    1.9340 h1        1 XUA      0.000200
     34 HA1        -1.1070    4.1350   -0.9810 h1        1 XUA      0.060700
     35 HA2         0.0730    5.3990   -0.4100 h1        1 XUA      0.060700
     36 HA3         0.4380    4.4060   -1.8850 h1        1 XUA      0.060700
     37 H2          5.8650   -0.8360    1.3770 h5        1 XUA      0.022100
     38 H8         -0.1510   -1.3080   -1.3290 h5        1 XUA      0.215800
@<TRIPOS>BOND
     1    1   13 1   
     2    1   16 1   
     3    1   19 1   
     4    1   23 1   
     5    2    3 ar  
     6    2    7 ar  
     7    3    4 ar  
     8    3   37 1   
     9    4    5 ar  
    10    5    6 ar  
    11    5   11 1   
    12    6    7 ar  
    13    6    9 1   
    14    7    8 1   
    15    8   25 1   
    16    8   26 1   
    17    9   10 2   
    18   10   11 1   
    19   10   38 1   
    20   11   12 1   
    21   12   14 1   
    22   12   21 1   
    23   12   27 1   
    24   14   15 1   
    25   14   17 1   
    26   14   28 1   
    27   15   24 1   
    28   17   18 1   
    29   17   20 1   
    30   17   29 1   
    31   18   30 1   
    32   20   21 1   
    33   20   22 1   
    34   20   31 1   
    35   22   23 1   
    36   22   32 1   
    37   22   33 1   
    38   24   34 1   
    39   24   35 1   
    40   24   36 1   
@<TRIPOS>SUBSTRUCTURE
     1 XUA         1 TEMP              0 ****  ****    0 ROOT
