@<TRIPOS>MOLECULE
XUG
   39    41     1     0     0
SMALL
bcc


@<TRIPOS>ATOM
      1 O6        -20.7970   30.3690  -11.3370 o         1 XUG     -0.704500
      2 C6        -20.7300   31.6000  -11.5580 c         1 XUG      0.728700
      3 C5        -20.6000   32.6870  -10.6140 cc        1 XUG     -0.048600
      4 N7        -20.5190   32.6970   -9.2280 ne        1 XUG     -0.606000
      5 C8        -20.4130   33.9960   -8.8500 c1        1 XUG      0.003400
      6 N1        -20.7860   31.9950  -12.9130 n         1 XUG     -0.477400
      7 C2        -20.7390   33.3500  -13.3070 cc        1 XUG      0.492800
      8 N2        -20.8330   33.5810  -14.7390 nh        1 XUG     -0.856800
      9 N3        -20.6220   34.3830  -12.4620 nd        1 XUG     -0.575300
     10 C4        -20.5510   34.0440  -11.1270 cd        1 XUG      0.030500
     11 N9        -20.4300   34.8520   -9.9830 nh        1 XUG     -0.123600
     12 C1'       -20.3590   36.2860   -9.9890 c3        1 XUG      0.276800
     13 O4'       -19.2040   36.7320  -10.7460 os        1 XUG     -0.428600
     14 C2'       -20.2470   36.9270   -8.5780 c3        1 XUG     -0.021600
     15 SE2'      -21.8390   37.3740   -7.9230 ss        1 XUG     -0.287200
     16 CA'       -22.3290   35.9010   -7.1010 c3        1 XUG     -0.073000
     17 C3'       -19.2640   38.0930   -8.7490 c3        1 XUG      0.155100
     18 O3'       -19.8990   39.3450   -8.5900 oh        1 XUG     -0.623800
     19 C4'       -18.7100   37.9540  -10.1880 c3        1 XUG      0.082100
     20 C5'       -17.1740   37.9240  -10.2570 c3        1 XUG      0.193400
     21 O5'       -16.6590   39.1250  -10.7490 os        1 XUG     -0.583200
     22 P         -16.0530   40.1900   -9.6470 p5        1 XUG      1.437800
     23 OP1       -17.0900   40.3390   -8.6020 o         1 XUG     -0.847000
     24 OP2       -14.8220   39.2750   -9.0780 oh        1 XUG     -0.785400
     25 OP3       -15.3540   41.2720  -10.3700 o         1 XUG     -0.847000
     26 H8        -14.0050   39.4760   -9.5180 ho        1 XUG      0.422000
     27 HN1       -20.8880   31.2910  -13.6050 hn        1 XUG      0.308500
     28 HN21      -19.9080   33.7490  -15.0920 hn        1 XUG      0.358800
     29 HN22      -21.3900   34.4000  -14.9060 hn        1 XUG      0.358800
     30 H1'       -21.2660   36.6950  -10.5310 h2        1 XUG      0.056700
     31 H2'       -19.7860   36.1830   -7.8720 h1        1 XUG      0.117700
     32 HA'1      -23.3950   35.7040   -7.3500 h1        1 XUG      0.069033
     33 HA'2      -21.7110   35.0160   -7.4160 h1        1 XUG      0.069033
     34 HA'3      -22.2340   36.0320   -6.0000 h1        1 XUG      0.069033
     35 H3'       -18.4340   37.9990   -7.9940 h1        1 XUG      0.063700
     36 HO3'      -19.1810   39.9890   -8.4570 ho        1 XUG      0.456000
     37 H4'       -19.1030   38.7950  -10.8250 h1        1 XUG      0.064700
     38 H5'       -16.7360   37.7120   -9.2430 h1        1 XUG      0.036200
     39 H5''      -16.8680   37.1090  -10.9720 h1        1 XUG      0.036200
@<TRIPOS>BOND
     1    1    2 2   
     2    2    3 1   
     3    2    6 1   
     4    3    4 1   
     5    3   10 2   
     6    4    5 2   
     7    5   11 2   
     8    6    7 1   
     9    6   27 1   
    10    7    8 1   
    11    7    9 2   
    12    8   28 1   
    13    8   29 1   
    14    9   10 1   
    15   10   11 1   
    16   11   12 1   
    17   12   13 1   
    18   12   14 1   
    19   12   30 1   
    20   13   19 1   
    21   14   15 1   
    22   14   17 1   
    23   14   31 1   
    24   15   16 1   
    25   16   32 1   
    26   16   33 1   
    27   16   34 1   
    28   17   18 1   
    29   17   19 1   
    30   17   35 1   
    31   18   36 1   
    32   19   20 1   
    33   19   37 1   
    34   20   21 1   
    35   20   38 1   
    36   20   39 1   
    37   21   22 1   
    38   22   23 1   
    39   22   24 1   
    40   22   25 1   
    41   24   26 1   
@<TRIPOS>SUBSTRUCTURE
     1 XUG         1 TEMP              0 ****  ****    0 ROOT
