@<TRIPOS>MOLECULE
XUG
   39    37     1     0     0
SMALL
bcc


@<TRIPOS>ATOM
      1 O6         -4.4100   -0.8580   -3.0660 o         1 XUG     -0.379000
      2 C6         -3.2170   -0.6560   -2.9580 c1        1 XUG      0.393000
      3 C5         -2.6730   -0.0040   -1.7120 c1        1 XUG     -0.107500
      4 N7         -3.2680    0.4030   -0.5670 n2        1 XUG     -0.115000
      5 C8         -2.3120    0.9320    0.2390 c1        1 XUG     -0.055000
      6 N1         -2.3540   -0.9760   -4.0120 n3        1 XUG     -0.337000
      7 C2         -0.9650   -0.6850   -3.9080 c2        1 XUG      0.143000
      8 N2         -0.0910   -1.0090   -4.9770 n3        1 XUG     -0.304000
      9 N3         -0.4460   -0.0610   -2.7160 n1        1 XUG     -0.181000
     10 C4         -1.3420    0.2730   -1.6160 c1        1 XUG     -0.107500
     11 N9         -1.1230    0.8500   -0.4110 n2        1 XUG     -0.115000
     12 C1'         0.1140    0.9330   -0.1000 c2        1 XUG      0.159000
     13 O4'         0.7160   -0.4490    0.0330 os        1 XUG     -0.261000
     14 C2'         0.2850    1.6300    1.3550 c3        1 XUG     -0.330000
     15 SE2'        1.7430    3.0220    1.2940 ss        1 XUG     -0.024000
     16 CA'         1.1340    4.6210    2.1500 c3        1 XUG     -0.290000
     17 C3'         0.6080    0.7010    2.1170 c3        1 XUG      0.224000
     18 O3'         1.5340    1.1950    3.1510 oh        1 XUG     -0.671000
     19 C4'         1.3640   -0.4270    1.1700 c3        1 XUG     -0.094000
     20 C5'         1.3030   -1.7550    1.8160 c3        1 XUG      0.039000
     21 O5'         1.6860   -2.7450    0.8900 os        1 XUG     -0.745000
     22 P           1.8920   -4.2230    1.4100 p5        1 XUG      1.577500
     23 OP1         2.9160   -4.2290    2.5190 o         1 XUG     -0.731167
     24 OP2         0.5810   -4.7600    1.9320 o         1 XUG     -0.731167
     25 OP3         2.3760   -5.0930    0.2740 o         1 XUG     -0.731167
     26 H8         -2.4540    1.3020    1.1310 DU        1 XUG      0.233000
     27 HN1        -2.6800   -1.3850   -4.7600 hn        1 XUG      0.235000
     28 HN21        0.8000   -0.8150   -4.9140 hn        1 XUG      0.175500
     29 HN22       -0.4190   -1.4110   -5.7300 hn        1 XUG      0.175500
     30 H1'         0.5980    1.4460   -0.7770 h4        1 XUG      0.130000
     31 H2'        -0.5600    2.0300    1.6430 h1        1 XUG      0.105000
     32 HA'1        1.9040    5.1300    2.4790 h1        1 XUG      0.098667
     33 HA'2        0.6330    5.1660    1.5070 h1        1 XUG      0.098667
     34 HA'3        0.5510    4.3880    2.9030 h1        1 XUG      0.098667
     35 H3'        -0.1880    0.3140    2.5340 h1        1 XUG     -0.047000
     36 HO3'        1.1720    1.0770    3.9540 ho        1 XUG      0.228000
     37 H4'         2.2950   -0.1690    1.0200 h1        1 XUG      0.108000
     38 H5'         0.3880   -1.9290    2.1200 h1        1 XUG      0.066500
     39 H5''        1.9110   -1.7730    2.5830 h1        1 XUG      0.066500
@<TRIPOS>BOND
     1    1    2 1   
     2    2    6 1   
     3    3    4 1   
     4    3   10 1   
     5    4    5 1   
     6    5   11 1   
     7    6    7 1   
     8    6   27 1   
     9    7    8 1   
    10    7    9 1   
    11    8   28 1   
    12    8   29 1   
    13   10   11 1   
    14   12   13 1   
    15   12   14 1   
    16   12   30 1   
    17   13   19 1   
    18   14   15 1   
    19   14   17 1   
    20   14   31 1   
    21   15   16 1   
    22   16   32 1   
    23   16   33 1   
    24   16   34 1   
    25   17   18 1   
    26   17   19 1   
    27   17   35 1   
    28   18   36 1   
    29   19   20 1   
    30   19   37 1   
    31   20   21 1   
    32   20   38 1   
    33   20   39 1   
    34   21   22 1   
    35   22   23 1   
    36   22   24 1   
    37   22   25 1   
@<TRIPOS>SUBSTRUCTURE
     1 XUG         1 TEMP              0 ****  ****    0 ROOT
