@<TRIPOS>MOLECULE
XUL
   20    19     1     0     0
SMALL
bcc


@<TRIPOS>ATOM
      1 C1          1.0180    0.9410   -1.8400 c3        1 XUL      0.038400
      2 C2         -0.1350    0.0820   -1.3900 c         1 XUL      0.505100
      3 C3         -0.7110    0.3730   -0.0200 c3        1 XUL      0.017100
      4 C4          0.2250   -0.1420    1.0930 c3        1 XUL      0.075100
      5 C5          0.4170    0.9230    2.1790 c3        1 XUL      0.102400
      6 O1          1.2270    0.8880   -3.2320 oh        1 XUL     -0.580800
      7 O2         -0.5890   -0.8230   -2.0970 o         1 XUL     -0.513100
      8 O3         -1.9920   -0.2050    0.1390 oh        1 XUL     -0.587800
      9 O4         -0.2870   -1.3280    1.6700 oh        1 XUL     -0.594800
     10 O5          1.3180    0.4770    3.1680 oh        1 XUL     -0.590800
     11 H11         0.8200    2.0250   -1.6140 h1        1 XUL      0.073700
     12 H12         1.9470    0.6090   -1.2980 h1        1 XUL      0.073700
     13 H3         -0.8840    1.4820    0.0870 h1        1 XUL      0.099700
     14 H4          1.2270   -0.4480    0.6790 h1        1 XUL      0.090700
     15 H51        -0.5740    1.1770    2.6430 h1        1 XUL      0.053700
     16 H52         0.8850    1.8490    1.7520 h1        1 XUL      0.053700
     17 HO1         1.1130   -0.0310   -3.5150 ho        1 XUL      0.422000
     18 HO3        -1.9660   -1.0930   -0.2500 ho        1 XUL      0.432000
     19 HO4        -1.1850   -1.1390    1.9800 ho        1 XUL      0.419000
     20 HO5         1.0290   -0.4050    3.4410 ho        1 XUL      0.415000
@<TRIPOS>BOND
     1    1    2 1   
     2    1    6 1   
     3    1   11 1   
     4    1   12 1   
     5    2    3 1   
     6    2    7 2   
     7    3    4 1   
     8    3    8 1   
     9    3   13 1   
    10    4    5 1   
    11    4    9 1   
    12    4   14 1   
    13    5   10 1   
    14    5   15 1   
    15    5   16 1   
    16    6   17 1   
    17    8   18 1   
    18    9   19 1   
    19   10   20 1   
@<TRIPOS>SUBSTRUCTURE
     1 XUL         1 TEMP              0 ****  ****    0 ROOT
