@<TRIPOS>MOLECULE
XV1
   31    33     1     0     0
SMALL
bcc


@<TRIPOS>ATOM
      1 CAA         1.3920   -1.1190   -0.4400 ca        1 XV1     -0.110300
      2 CAB         1.0310   -1.4030   -1.8590 c3        1 XV1      0.016200
      3 CAC         1.3700    0.1780    0.0650 ca        1 XV1      0.093800
      4 CAD        -0.3930   -1.8200   -2.0090 ca        1 XV1     -0.105300
      5 CAE         1.7490    0.4470    1.4290 ca        1 XV1      0.334600
      6 CAF         1.7760   -2.1870    0.4040 ca        1 XV1     -0.082000
      7 NAG         1.7340    1.7420    1.9140 nb        1 XV1     -0.677000
      8 CAH        -1.4050   -0.8560   -2.0250 ca        1 XV1     -0.097000
      9 CAI         2.1350   -0.6590    2.2460 ca        1 XV1     -0.113300
     10 CAJ         2.1380   -1.9690    1.7100 ca        1 XV1     -0.149000
     11 OAK         0.9680    1.1720   -0.7950 oh        1 XV1     -0.503100
     12 CAL        -0.7500   -3.1780   -2.1540 ca        1 XV1      0.120900
     13 CAM         2.0870    1.9380    3.1700 ca        1 XV1      0.413200
     14 CAN        -2.7390   -1.2210   -2.1860 ca        1 XV1     -0.144000
     15 CAO         2.5080   -0.3940    3.5970 ca        1 XV1     -0.082000
     16 CAP        -2.0990   -3.5470   -2.3200 ca        1 XV1     -0.166000
     17 CAQ         2.4860    0.8940    4.0650 ca        1 XV1     -0.243300
     18 CAR        -3.0830   -2.5660   -2.3340 ca        1 XV1     -0.109000
     19 FAS         0.2010   -4.1450   -2.1380 f         1 XV1     -0.146900
     20 HAB         1.7040   -2.2130   -2.2530 hc        1 XV1      0.069700
     21 HABA        1.2090   -0.4820   -2.4800 hc        1 XV1      0.069700
     22 HAF         1.7730   -3.2060   -0.0170 ha        1 XV1      0.146000
     23 HAH        -1.1270    0.2040   -1.9000 ha        1 XV1      0.152000
     24 HAJ         2.4350   -2.8060    2.3600 ha        1 XV1      0.138000
     25 HOAK        1.0600    2.0310   -0.3560 ho        1 XV1      0.446000
     26 HAM         2.0640    2.9850    3.5260 h4        1 XV1      0.023100
     27 HAN        -3.5220   -0.4490   -2.1960 ha        1 XV1      0.136000
     28 HAO         2.8060   -1.2360    4.2390 ha        1 XV1      0.142000
     29 HAP        -2.3570   -4.6100   -2.4340 ha        1 XV1      0.146000
     30 HAQ         2.7640    1.1460    5.0960 ha        1 XV1      0.146000
     31 HAR        -4.1370   -2.8540   -2.4630 ha        1 XV1      0.135000
@<TRIPOS>BOND
     1    1    2 1   
     2    1    3 ar  
     3    1    6 ar  
     4    2    4 1   
     5    2   20 1   
     6    2   21 1   
     7    3    5 ar  
     8    3   11 1   
     9    4    8 ar  
    10    4   12 ar  
    11    5    7 ar  
    12    5    9 ar  
    13    6   10 ar  
    14    6   22 1   
    15    7   13 ar  
    16    8   14 ar  
    17    8   23 1   
    18    9   10 ar  
    19    9   15 ar  
    20   10   24 1   
    21   11   25 1   
    22   12   16 ar  
    23   12   19 1   
    24   13   17 ar  
    25   13   26 1   
    26   14   18 ar  
    27   14   27 1   
    28   15   17 ar  
    29   15   28 1   
    30   16   18 ar  
    31   16   29 1   
    32   17   30 1   
    33   18   31 1   
@<TRIPOS>SUBSTRUCTURE
     1 XV1         1 TEMP              0 ****  ****    0 ROOT
