@<TRIPOS>MOLECULE
XV1
   31    33     1     0     0
SMALL
bcc


@<TRIPOS>ATOM
      1 CAA         0.0240    0.7410   -0.1030 ca        1 XV1     -0.110300
      2 CAB        -1.3280    1.2550    0.2630 c3        1 XV1      0.016200
      3 CAC         0.9110    0.2890    0.8680 ca        1 XV1      0.093800
      4 CAD        -2.3850    0.2110    0.1380 ca        1 XV1     -0.105300
      5 CAE         2.2260   -0.1780    0.5080 ca        1 XV1      0.334600
      6 CAF         0.4140    0.7270   -1.4630 ca        1 XV1     -0.082000
      7 NAG         3.1030   -0.6140    1.4840 nb        1 XV1     -0.677000
      8 CAH        -2.5540   -0.7360    1.1530 ca        1 XV1     -0.097000
      9 CAI         2.5820   -0.1720   -0.8750 ca        1 XV1     -0.113300
     10 CAJ         1.6570    0.2840   -1.8430 ca        1 XV1     -0.149000
     11 OAK         0.4690    0.3060    2.1690 oh        1 XV1     -0.503100
     12 CAL        -3.2410    0.1610   -0.9820 ca        1 XV1      0.120900
     13 CAM         4.2950   -1.0350    1.1070 ca        1 XV1      0.413200
     14 CAN        -3.5480   -1.7070    1.0680 ca        1 XV1     -0.144000
     15 CAO         3.8830   -0.6370   -1.2320 ca        1 XV1     -0.082000
     16 CAP        -4.2490   -0.8200   -1.0670 ca        1 XV1     -0.166000
     17 CAQ         4.7400   -1.0680   -0.2540 ca        1 XV1     -0.243300
     18 CAR        -4.3940   -1.7460   -0.0410 ca        1 XV1     -0.109000
     19 FAS        -3.1070    1.0570   -1.9920 f         1 XV1     -0.146900
     20 HAB        -1.3090    1.6310    1.3240 hc        1 XV1      0.069700
     21 HABA       -1.5810    2.1270   -0.4020 hc        1 XV1      0.069700
     22 HAF        -0.3120    1.0800   -2.2140 ha        1 XV1      0.146000
     23 HAH        -1.8760   -0.7040    2.0230 ha        1 XV1      0.152000
     24 HAJ         1.9510    0.2760   -2.9030 ha        1 XV1      0.138000
     25 HOAK        1.1920    0.0360    2.7560 ho        1 XV1      0.446000
     26 HAM         4.9710   -1.3770    1.9120 h4        1 XV1      0.023100
     27 HAN        -3.6660   -2.4440    1.8760 ha        1 XV1      0.136000
     28 HAO         4.1710   -0.6390   -2.2940 ha        1 XV1      0.142000
     29 HAP        -4.9080   -0.8410   -1.9470 ha        1 XV1      0.146000
     30 HAQ         5.7500   -1.4340   -0.4810 ha        1 XV1      0.146000
     31 HAR        -5.1810   -2.5130   -0.1070 ha        1 XV1      0.135000
@<TRIPOS>BOND
     1    1    2 1   
     2    1    3 ar  
     3    1    6 ar  
     4    2    4 1   
     5    2   20 1   
     6    2   21 1   
     7    3    5 ar  
     8    3   11 1   
     9    4    8 ar  
    10    4   12 ar  
    11    5    7 ar  
    12    5    9 ar  
    13    6   10 ar  
    14    6   22 1   
    15    7   13 ar  
    16    8   14 ar  
    17    8   23 1   
    18    9   10 ar  
    19    9   15 ar  
    20   10   24 1   
    21   11   25 1   
    22   12   16 ar  
    23   12   19 1   
    24   13   17 ar  
    25   13   26 1   
    26   14   18 ar  
    27   14   27 1   
    28   15   17 ar  
    29   15   28 1   
    30   16   18 ar  
    31   16   29 1   
    32   17   30 1   
    33   18   31 1   
@<TRIPOS>SUBSTRUCTURE
     1 XV1         1 TEMP              0 ****  ****    0 ROOT
