@<TRIPOS>MOLECULE
XV1
   31    33     1     0     0
SMALL
bcc


@<TRIPOS>ATOM
      1 CAA         1.3900   -1.0520   -0.4570 ca        1 XV1     -0.110300
      2 CAB         1.0230   -1.3040   -1.8810 c3        1 XV1      0.016200
      3 CAC         1.3070    0.2220    0.0960 ca        1 XV1      0.093800
      4 CAD        -0.3780   -1.7920   -2.0270 ca        1 XV1     -0.105300
      5 CAE         1.6920    0.4610    1.4630 ca        1 XV1      0.334600
      6 CAF         1.8460   -2.1280    0.3400 ca        1 XV1     -0.082000
      7 NAG         1.6150    1.7340    1.9970 nb        1 XV1     -0.677000
      8 CAH        -1.4420   -0.8850   -1.9920 ca        1 XV1     -0.097000
      9 CAI         2.1500   -0.6510    2.2330 ca        1 XV1     -0.113300
     10 CAJ         2.2160   -1.9380    1.6490 ca        1 XV1     -0.149000
     11 OAK         0.8380    1.2230   -0.7200 oh        1 XV1     -0.503100
     12 CAL        -0.6640   -3.1610   -2.2180 ca        1 XV1      0.120900
     13 CAM         1.9770    1.9040    3.2540 ca        1 XV1      0.413200
     14 CAN        -2.7570   -1.3170   -2.1470 ca        1 XV1     -0.144000
     15 CAO         2.5300   -0.4160    3.5880 ca        1 XV1     -0.082000
     16 CAP        -1.9930   -3.5980   -2.3780 ca        1 XV1     -0.166000
     17 CAQ         2.4460    0.8510    4.1040 ca        1 XV1     -0.243300
     18 CAR        -3.0300   -2.6710   -2.3420 ca        1 XV1     -0.109000
     19 FAS         0.3380   -4.0750   -2.2520 f         1 XV1     -0.146900
     20 HAB         1.7330   -2.0610   -2.3140 hc        1 XV1      0.069700
     21 HABA        1.1400   -0.3510   -2.4700 hc        1 XV1      0.069700
     22 HAF         1.8910   -3.1300   -0.1180 ha        1 XV1      0.146000
     23 HAH        -1.2190    0.1830   -1.8300 ha        1 XV1      0.152000
     24 HAJ         2.5680   -2.7810    2.2620 ha        1 XV1      0.138000
     25 HOAK        0.8890    2.0690   -0.2500 ho        1 XV1      0.446000
     26 HAM         1.9030    2.9340    3.6500 h4        1 XV1      0.023100
     27 HAN        -3.5800   -0.5890   -2.1160 ha        1 XV1      0.136000
     28 HAO         2.8840   -1.2630    4.1940 ha        1 XV1      0.142000
     29 HAP        -2.1960   -4.6670   -2.5290 ha        1 XV1      0.146000
     30 HAQ         2.7270    1.0800    5.1400 ha        1 XV1      0.146000
     31 HAR        -4.0680   -3.0120   -2.4660 ha        1 XV1      0.135000
@<TRIPOS>BOND
     1    1    2 1   
     2    1    3 ar  
     3    1    6 ar  
     4    2    4 1   
     5    2   20 1   
     6    2   21 1   
     7    3    5 ar  
     8    3   11 1   
     9    4    8 ar  
    10    4   12 ar  
    11    5    7 ar  
    12    5    9 ar  
    13    6   10 ar  
    14    6   22 1   
    15    7   13 ar  
    16    8   14 ar  
    17    8   23 1   
    18    9   10 ar  
    19    9   15 ar  
    20   10   24 1   
    21   11   25 1   
    22   12   16 ar  
    23   12   19 1   
    24   13   17 ar  
    25   13   26 1   
    26   14   18 ar  
    27   14   27 1   
    28   15   17 ar  
    29   15   28 1   
    30   16   18 ar  
    31   16   29 1   
    32   17   30 1   
    33   18   31 1   
@<TRIPOS>SUBSTRUCTURE
     1 XV1         1 TEMP              0 ****  ****    0 ROOT
