@<TRIPOS>MOLECULE
XVE
   42    43     1     0     0
SMALL
bcc


@<TRIPOS>ATOM
      1 C91         0.1600    0.0530    0.2380 c3        1 XVE     -0.082000
      2 Cl          0.4950    1.6830   -0.2760 cl        1 XVE     -0.093400
      3 C1         -1.8870   -0.0190    1.7810 c3        1 XVE      0.016500
      4 C2         -2.4890    1.3440    1.3940 c3        1 XVE     -0.049100
      5 N3         -2.3030   -0.4120    3.1750 ny        1 XVE     -0.637800
      6 C92        -0.3590    0.0410    1.6440 c         1 XVE      0.559100
      7 C5         -3.9630    1.3680    1.5800 ca        1 XVE     -0.162300
      8 C6         -2.4990   -1.8860    3.3440 c         1 XVE      0.616100
      9 O8          0.3570    0.0610    2.6440 o         1 XVE     -0.479100
     10 C9         -4.5200    2.0110    2.6940 ca        1 XVE     -0.130500
     11 C10        -4.8050    0.7880    0.6240 ca        1 XVE     -0.130500
     12 O11        -2.6160   -2.1880    4.6440 os        1 XVE     -0.405900
     13 O12        -2.5490   -2.6740    2.4090 o         1 XVE     -0.438000
     14 C14        -5.9040    2.0650    2.8510 ca        1 XVE     -0.113500
     15 C15        -6.1890    0.8430    0.7850 ca        1 XVE     -0.113500
     16 C16        -2.7960   -3.6250    4.9560 c3        1 XVE      0.218700
     17 C17        -6.7400    1.4790    1.8980 ca        1 XVE     -0.097000
     18 C18        -2.9180   -3.6810    6.4310 ca        1 XVE     -0.151300
     19 C19        -4.1830   -3.6420    7.0320 ca        1 XVE     -0.088000
     20 C20        -1.7710   -3.8080    7.2250 ca        1 XVE     -0.088000
     21 C21        -4.2970   -3.7430    8.4170 ca        1 XVE     -0.129500
     22 C22        -1.8920   -3.9070    8.6100 ca        1 XVE     -0.129500
     23 C23        -3.1530   -3.8750    9.2060 ca        1 XVE     -0.083000
     24 H911        1.1240   -0.5200    0.1900 h1        1 XVE      0.112700
     25 H912       -0.5760   -0.3870   -0.4780 h1        1 XVE      0.112700
     26 H1         -2.2880   -0.8120    1.0750 hx        1 XVE      0.146700
     27 H21C       -2.0000    2.1620    1.9900 hc        1 XVE      0.099200
     28 H22C       -2.2320    1.5200    0.3120 hc        1 XVE      0.099200
     29 H3         -3.1940    0.0590    3.4090 hn        1 XVE      0.487800
     30 H9         -3.8700    2.5160    3.4250 ha        1 XVE      0.138000
     31 H10        -4.3760    0.3020   -0.2660 ha        1 XVE      0.138000
     32 H14        -6.3380    2.5840    3.7200 ha        1 XVE      0.157000
     33 H15        -6.8480    0.3930    0.0250 ha        1 XVE      0.157000
     34 H161       -1.8900   -4.1590    4.5660 h1        1 XVE      0.083200
     35 H162       -3.7200   -3.9650    4.4210 h1        1 XVE      0.083200
     36 H17        -7.8340    1.5310    2.0190 ha        1 XVE      0.158000
     37 H19        -5.0860   -3.5440    6.4110 ha        1 XVE      0.137000
     38 H20        -0.7760   -3.8390    6.7560 ha        1 XVE      0.137000
     39 H21        -5.2920   -3.7220    8.8880 ha        1 XVE      0.152500
     40 H22        -0.9900   -4.0150    9.2330 ha        1 XVE      0.152500
     41 H23        -3.2470   -3.9570   10.3010 ha        1 XVE      0.153000
     42 H32        -1.5790   -0.1040    3.8470 hn        1 XVE      0.487800
@<TRIPOS>BOND
     1    1    2 1   
     2    1    6 1   
     3    1   24 1   
     4    1   25 1   
     5    3    4 1   
     6    3    5 1   
     7    3    6 1   
     8    3   26 1   
     9    4    7 1   
    10    4   27 1   
    11    4   28 1   
    12    5    8 1   
    13    5   29 1   
    14    5   42 1   
    15    6    9 2   
    16    7   10 ar  
    17    7   11 ar  
    18    8   12 1   
    19    8   13 2   
    20   10   14 ar  
    21   10   30 1   
    22   11   15 ar  
    23   11   31 1   
    24   12   16 1   
    25   14   17 ar  
    26   14   32 1   
    27   15   17 ar  
    28   15   33 1   
    29   16   18 1   
    30   16   34 1   
    31   16   35 1   
    32   17   36 1   
    33   18   19 ar  
    34   18   20 ar  
    35   19   21 ar  
    36   19   37 1   
    37   20   22 ar  
    38   20   38 1   
    39   21   23 ar  
    40   21   39 1   
    41   22   23 ar  
    42   22   40 1   
    43   23   41 1   
@<TRIPOS>SUBSTRUCTURE
     1 XVE         1 TEMP              0 ****  ****    0 ROOT
