@<TRIPOS>MOLECULE
XVE
   41    42     1     0     0
SMALL
bcc


@<TRIPOS>ATOM
      1 C91        -2.9580   -2.4840    0.9950 c3        1 XVE     -0.083000
      2 CL         -4.2630   -1.8840    1.9960 cl        1 XVE     -0.161400
      3 C1         -2.1370   -0.2800   -0.0290 c3        1 XVE      0.014700
      4 C2         -2.9080    0.7760   -0.8380 c3        1 XVE     -0.051100
      5 N3         -0.7380   -0.3630   -0.3940 n         1 XVE     -0.520900
      6 C92        -2.8160   -1.6430   -0.2420 c         1 XVE      0.558100
      7 C5         -2.3080    2.1290   -0.7090 ca        1 XVE     -0.097300
      8 C6          0.1930   -0.6730    0.5800 c         1 XVE      0.733100
      9 O8         -3.1930   -2.0220   -1.3490 o         1 XVE     -0.494100
     10 C9         -1.4740    2.6310   -1.7150 ca        1 XVE     -0.126000
     11 C10        -2.5790    2.9180    0.4150 ca        1 XVE     -0.126000
     12 O11         1.4860   -0.3840    0.2000 os        1 XVE     -0.434900
     13 O12        -0.0090   -1.2150    1.6820 o         1 XVE     -0.597000
     14 C14        -0.9170    3.9040   -1.5970 ca        1 XVE     -0.124500
     15 C15        -2.0210    4.1900    0.5310 ca        1 XVE     -0.124500
     16 C16         2.4980   -0.8040    1.1400 c3        1 XVE      0.197700
     17 C17        -1.1890    4.6840   -0.4730 ca        1 XVE     -0.124000
     18 C18         3.8200   -0.4160    0.5720 ca        1 XVE     -0.098300
     19 C19         4.8250    0.0380    1.4350 ca        1 XVE     -0.110500
     20 C20         4.0810   -0.5310   -0.7970 ca        1 XVE     -0.110500
     21 C21         6.0830    0.3630    0.9290 ca        1 XVE     -0.132000
     22 C22         5.3390   -0.1980   -1.2990 ca        1 XVE     -0.132000
     23 C23         6.3410    0.2460   -0.4370 ca        1 XVE     -0.123000
     24 H911       -2.0160   -2.4370    1.6020 h1        1 XVE      0.106700
     25 H912       -3.2020   -3.5420    0.7330 h1        1 XVE      0.106700
     26 H1         -2.2190   -0.0220    1.0730 h1        1 XVE      0.087700
     27 H21C       -2.9480    0.4620   -1.9160 hc        1 XVE      0.075700
     28 H22C       -3.9640    0.7850   -0.4530 hc        1 XVE      0.075700
     29 H3         -0.4360    0.2040   -1.1560 hn        1 XVE      0.333500
     30 H9         -1.2640    2.0230   -2.6090 ha        1 XVE      0.133500
     31 H10        -3.2370    2.5310    1.2080 ha        1 XVE      0.133500
     32 H14        -0.2630    4.2920   -2.3920 ha        1 XVE      0.135000
     33 H15        -2.2390    4.8050    1.4170 ha        1 XVE      0.135000
     34 H161        2.2980   -0.3040    2.1250 h1        1 XVE      0.065200
     35 H162        2.4240   -1.9180    1.2680 h1        1 XVE      0.065200
     36 H17        -0.7490    5.6880   -0.3800 ha        1 XVE      0.135000
     37 H19         4.6230    0.1370    2.5110 ha        1 XVE      0.138500
     38 H20         3.2850   -0.8770   -1.4730 ha        1 XVE      0.138500
     39 H21         6.8720    0.7140    1.6110 ha        1 XVE      0.133500
     40 H22         5.5390   -0.2870   -2.3770 ha        1 XVE      0.133500
     41 H23         7.3340    0.5050   -0.8330 ha        1 XVE      0.133000
@<TRIPOS>BOND
     1    1    2 1   
     2    1    6 1   
     3    1   24 1   
     4    1   25 1   
     5    3    4 1   
     6    3    5 1   
     7    3    6 1   
     8    3   26 1   
     9    4    7 1   
    10    4   27 1   
    11    4   28 1   
    12    5    8 1   
    13    5   29 1   
    14    6    9 2   
    15    7   10 ar  
    16    7   11 ar  
    17    8   12 1   
    18    8   13 2   
    19   10   14 ar  
    20   10   30 1   
    21   11   15 ar  
    22   11   31 1   
    23   12   16 1   
    24   14   17 ar  
    25   14   32 1   
    26   15   17 ar  
    27   15   33 1   
    28   16   18 1   
    29   16   34 1   
    30   16   35 1   
    31   17   36 1   
    32   18   19 ar  
    33   18   20 ar  
    34   19   21 ar  
    35   19   37 1   
    36   20   22 ar  
    37   20   38 1   
    38   21   23 ar  
    39   21   39 1   
    40   22   23 ar  
    41   22   40 1   
    42   23   41 1   
@<TRIPOS>SUBSTRUCTURE
     1 XVE         1 TEMP              0 ****  ****    0 ROOT
