@<TRIPOS>MOLECULE
XVE
   42    43     1     0     0
SMALL
bcc


@<TRIPOS>ATOM
      1 C91         0.1670    0.0930    0.2500 c3        1 XVE     -0.082000
      2 CL          0.4910    1.7280   -0.2550 cl        1 XVE     -0.093400
      3 C1         -1.8830   -0.0020    1.7880 c3        1 XVE      0.016500
      4 C2         -2.4940    1.3590    1.4080 c3        1 XVE     -0.049100
      5 N3         -2.2980   -0.4050    3.1790 n4        1 XVE     -0.637800
      6 C92        -0.3550    0.0700    1.6550 c         1 XVE      0.559100
      7 C5         -3.9680    1.3710    1.5910 ca        1 XVE     -0.162300
      8 C6         -2.4850   -1.8810    3.3400 c         1 XVE      0.616100
      9 O8          0.3590    0.0900    2.6560 o         1 XVE     -0.479100
     10 C9         -4.5320    2.0050    2.7070 ca        1 XVE     -0.130500
     11 C10        -4.8050    0.7900    0.6310 ca        1 XVE     -0.130500
     12 O11        -2.6070   -2.1910    4.6380 os        1 XVE     -0.405900
     13 O12        -2.5250   -2.6650    2.4010 o         1 XVE     -0.438000
     14 C14        -5.9160    2.0490    2.8620 ca        1 XVE     -0.113500
     15 C15        -6.1890    0.8340    0.7900 ca        1 XVE     -0.113500
     16 C16        -2.7790   -3.6300    4.9420 c3        1 XVE      0.218700
     17 C17        -6.7460    1.4610    1.9050 ca        1 XVE     -0.097000
     18 C18        -2.9120   -3.6940    6.4160 ca        1 XVE     -0.151300
     19 C19        -4.1830   -3.6680    7.0060 ca        1 XVE     -0.088000
     20 C20        -1.7710   -3.8150    7.2190 ca        1 XVE     -0.088000
     21 C21        -4.3080   -3.7760    8.3900 ca        1 XVE     -0.129500
     22 C22        -1.9030   -3.9210    8.6020 ca        1 XVE     -0.129500
     23 C23        -3.1700   -3.9020    9.1880 ca        1 XVE     -0.083000
     24 H911        1.1340   -0.4720    0.2010 h1        1 XVE      0.112700
     25 H912       -0.5650   -0.3480   -0.4700 h1        1 XVE      0.112700
     26 H1         -2.2770   -0.7950    1.0770 hx        1 XVE      0.146700
     27 H21C       -2.2360    1.5420    0.3260 hc        1 XVE      0.099200
     28 H22C       -2.0120    2.1770    2.0080 hc        1 XVE      0.099200
     29 H3         -1.5770   -0.0970    3.8550 hn        1 XVE      0.487800
     30 H9         -3.8860    2.5110    3.4420 ha        1 XVE      0.138000
     31 H10        -4.3710    0.3110   -0.2610 ha        1 XVE      0.138000
     32 H14        -6.3560    2.5600    3.7330 ha        1 XVE      0.157000
     33 H15        -6.8430    0.3830    0.0270 ha        1 XVE      0.157000
     34 H161       -3.6960   -3.9750    4.3980 h1        1 XVE      0.083200
     35 H162       -1.8660   -4.1550    4.5580 h1        1 XVE      0.083200
     36 H17        -7.8410    1.5050    2.0240 ha        1 XVE      0.158000
     37 H19        -5.0820   -3.5740    6.3790 ha        1 XVE      0.137000
     38 H20        -0.7720   -3.8360    6.7580 ha        1 XVE      0.137000
     39 H21        -5.3070   -3.7650    8.8530 ha        1 XVE      0.152500
     40 H22        -1.0060   -4.0240    9.2320 ha        1 XVE      0.152500
     41 H23        -3.2710   -3.9890   10.2810 ha        1 XVE      0.153000
     42 H32        -3.1930    0.0590    3.4150 hn        1 XVE      0.487800
@<TRIPOS>BOND
     1    1    2 1   
     2    1    6 1   
     3    1   24 1   
     4    1   25 1   
     5    3    4 1   
     6    3    5 1   
     7    3    6 1   
     8    3   26 1   
     9    4    7 1   
    10    4   27 1   
    11    4   28 1   
    12    5    8 1   
    13    5   29 1   
    14    5   42 1   
    15    6    9 2   
    16    7   10 ar  
    17    7   11 ar  
    18    8   12 1   
    19    8   13 2   
    20   10   14 ar  
    21   10   30 1   
    22   11   15 ar  
    23   11   31 1   
    24   12   16 1   
    25   14   17 ar  
    26   14   32 1   
    27   15   17 ar  
    28   15   33 1   
    29   16   18 1   
    30   16   34 1   
    31   16   35 1   
    32   17   36 1   
    33   18   19 ar  
    34   18   20 ar  
    35   19   21 ar  
    36   19   37 1   
    37   20   22 ar  
    38   20   38 1   
    39   21   23 ar  
    40   21   39 1   
    41   22   23 ar  
    42   22   40 1   
    43   23   41 1   
@<TRIPOS>SUBSTRUCTURE
     1 XVE         1 TEMP              0 ****  ****    0 ROOT
