@<TRIPOS>MOLECULE
XVE
   42    43     1     0     0
SMALL
bcc


@<TRIPOS>ATOM
      1 C91         0.1600    0.0560    0.2410 c3        1 XVE     -0.082000
      2 CL          0.4920    1.6850   -0.2760 cl        1 XVE     -0.093400
      3 C1         -1.8890   -0.0190    1.7800 c3        1 XVE      0.016500
      4 C2         -2.4940    1.3420    1.3910 c3        1 XVE     -0.049100
      5 N3         -2.3060   -0.4110    3.1750 n4        1 XVE     -0.637800
      6 C92        -0.3610    0.0440    1.6460 c         1 XVE      0.559100
      7 C5         -3.9680    1.3630    1.5750 ca        1 XVE     -0.162300
      8 C6         -2.4980   -1.8850    3.3460 c         1 XVE      0.616100
      9 O8          0.3530    0.0680    2.6470 o         1 XVE     -0.479100
     10 C9         -4.5280    2.0070    2.6870 ca        1 XVE     -0.130500
     11 C10        -4.8080    0.7800    0.6190 ca        1 XVE     -0.130500
     12 O11        -2.6140   -2.1860    4.6460 os        1 XVE     -0.405900
     13 O12        -2.5450   -2.6750    2.4120 o         1 XVE     -0.438000
     14 C14        -5.9130    2.0580    2.8420 ca        1 XVE     -0.113500
     15 C15        -6.1920    0.8320    0.7780 ca        1 XVE     -0.113500
     16 C16        -2.7890   -3.6230    4.9600 c3        1 XVE      0.218700
     17 C17        -6.7460    1.4680    1.8890 ca        1 XVE     -0.097000
     18 C18        -2.9110   -3.6770    6.4350 ca        1 XVE     -0.151300
     19 C19        -4.1760   -3.6430    7.0360 ca        1 XVE     -0.088000
     20 C20        -1.7640   -3.7980    7.2300 ca        1 XVE     -0.088000
     21 C21        -4.2910   -3.7410    8.4210 ca        1 XVE     -0.129500
     22 C22        -1.8850   -3.8960    8.6150 ca        1 XVE     -0.129500
     23 C23        -3.1470   -3.8670    9.2110 ca        1 XVE     -0.083000
     24 H911        1.1250   -0.5150    0.1950 h1        1 XVE      0.112700
     25 H912       -0.5740   -0.3880   -0.4760 h1        1 XVE      0.112700
     26 H1         -2.2880   -0.8140    1.0750 hx        1 XVE      0.146700
     27 H21C       -2.2360    1.5170    0.3090 hc        1 XVE      0.099200
     28 H22C       -2.0070    2.1620    1.9860 hc        1 XVE      0.099200
     29 H3         -1.5840   -0.1000    3.8480 hn        1 XVE      0.487800
     30 H9         -3.8800    2.5140    3.4190 ha        1 XVE      0.138000
     31 H10        -4.3770    0.2940   -0.2700 ha        1 XVE      0.138000
     32 H14        -6.3490    2.5770    3.7100 ha        1 XVE      0.157000
     33 H15        -6.8480    0.3790    0.0180 ha        1 XVE      0.157000
     34 H161       -3.7130   -3.9660    4.4260 h1        1 XVE      0.083200
     35 H162       -1.8820   -4.1540    4.5720 h1        1 XVE      0.083200
     36 H17        -7.8400    1.5180    2.0090 ha        1 XVE      0.158000
     37 H19        -5.0800   -3.5490    6.4150 ha        1 XVE      0.137000
     38 H20        -0.7690   -3.8260    6.7610 ha        1 XVE      0.137000
     39 H21        -5.2860   -3.7230    8.8920 ha        1 XVE      0.152500
     40 H22        -0.9830   -3.9980    9.2380 ha        1 XVE      0.152500
     41 H23        -3.2400   -3.9480   10.3060 ha        1 XVE      0.153000
     42 H32        -3.1990    0.0580    3.4070 hn        1 XVE      0.487800
@<TRIPOS>BOND
     1    1    2 1   
     2    1    6 1   
     3    1   24 1   
     4    1   25 1   
     5    3    4 1   
     6    3    5 1   
     7    3    6 1   
     8    3   26 1   
     9    4    7 1   
    10    4   27 1   
    11    4   28 1   
    12    5    8 1   
    13    5   29 1   
    14    5   42 1   
    15    6    9 2   
    16    7   10 ar  
    17    7   11 ar  
    18    8   12 1   
    19    8   13 2   
    20   10   14 ar  
    21   10   30 1   
    22   11   15 ar  
    23   11   31 1   
    24   12   16 1   
    25   14   17 ar  
    26   14   32 1   
    27   15   17 ar  
    28   15   33 1   
    29   16   18 1   
    30   16   34 1   
    31   16   35 1   
    32   17   36 1   
    33   18   19 ar  
    34   18   20 ar  
    35   19   21 ar  
    36   19   37 1   
    37   20   22 ar  
    38   20   38 1   
    39   21   23 ar  
    40   21   39 1   
    41   22   23 ar  
    42   22   40 1   
    43   23   41 1   
@<TRIPOS>SUBSTRUCTURE
     1 XVE         1 TEMP              0 ****  ****    0 ROOT
