@<TRIPOS>MOLECULE
XW1
   30    29     1     0     0
SMALL
bcc


@<TRIPOS>ATOM
      1 C1          3.1440    0.4600    0.9900 c         1 XW1      0.636100
      2 N          -3.5540    1.3970    0.5500 n3        1 XW1     -0.892800
      3 CA         -2.9850    0.5640   -0.5020 c3        1 XW1      0.017500
      4 C13        -1.6820   -0.1240   -0.0920 c3        1 XW1     -0.063400
      5 C14        -0.5630    0.8650    0.1510 c3        1 XW1     -0.075400
      6 C15         0.7390    0.1510    0.4580 c3        1 XW1     -0.077400
      7 C17         1.8570    1.1530    0.6710 c3        1 XW1     -0.125400
      8 C          -3.9590   -0.5280   -1.0600 c         1 XW1      0.887600
      9 O          -5.1320   -0.5720   -0.5920 o         1 XW1     -0.843800
     10 O91         3.5820    0.0890    2.0820 o         1 XW1     -0.560000
     11 O92         3.9240    0.2400   -0.1150 os        1 XW1     -0.443900
     12 C93         5.1580   -0.4620    0.0960 c3        1 XW1      0.138400
     13 C94         5.7870   -0.6370   -1.2660 c3        1 XW1     -0.099100
     14 OXT        -3.5210   -1.2910   -1.9650 o         1 XW1     -0.843800
     15 HA         -2.7600    1.2550   -1.3670 h1        1 XW1      0.039700
     16 H13        -1.8450   -0.7430    0.8280 hc        1 XW1      0.048200
     17 H13A       -1.4040   -0.8250   -0.9240 hc        1 XW1      0.048200
     18 H14        -0.4310    1.5100   -0.7570 hc        1 XW1      0.038700
     19 H14A       -0.8300    1.5420    1.0040 hc        1 XW1      0.038700
     20 H15         0.6180   -0.4810    1.3760 hc        1 XW1      0.049700
     21 H9          1.0040   -0.5320   -0.3910 hc        1 XW1      0.049700
     22 H17         1.6090    1.8310    1.5300 hc        1 XW1      0.073700
     23 H111        1.9880    1.7780   -0.2510 hc        1 XW1      0.073700
     24 H93         5.8050    0.1460    0.7810 h1        1 XW1      0.045700
     25 H11         4.9380   -1.4480    0.5840 h1        1 XW1      0.045700
     26 H94         5.1090   -1.2160   -1.9370 hc        1 XW1      0.044033
     27 H94A        5.9820    0.3550   -1.7370 hc        1 XW1      0.044033
     28 H141        6.7520   -1.1870   -1.1550 hc        1 XW1      0.044033
     29 HN         -4.5000    1.6110    0.2790 hn        1 XW1      0.330800
     30 H2         -3.6220    0.8480    1.3890 hn        1 XW1      0.330800
@<TRIPOS>BOND
     1    1    7 1   
     2    1   10 2   
     3    1   11 1   
     4    2    3 1   
     5    2   29 1   
     6    2   30 1   
     7    3    4 1   
     8    3    8 1   
     9    3   15 1   
    10    4    5 1   
    11    4   16 1   
    12    4   17 1   
    13    5    6 1   
    14    5   18 1   
    15    5   19 1   
    16    6    7 1   
    17    6   20 1   
    18    6   21 1   
    19    7   22 1   
    20    7   23 1   
    21    8    9 1   
    22    8   14 1   
    23   11   12 1   
    24   12   13 1   
    25   12   24 1   
    26   12   25 1   
    27   13   26 1   
    28   13   27 1   
    29   13   28 1   
@<TRIPOS>SUBSTRUCTURE
     1 XW1         1 TEMP              0 ****  ****    0 ROOT
