@<TRIPOS>MOLECULE
XWG
   67    72     1     0     0
SMALL
bcc


@<TRIPOS>ATOM
      1 CL1        -7.0980    3.0390   -0.6540 cl        1 XWG      0.000600
      2 C25        -5.5670    2.4740   -0.3110 cc        1 XWG     -0.023700
      3 C24        -4.5520    3.2240    0.2690 cd        1 XWG     -0.158000
      4 C22        -3.3690    2.4580    0.4310 cd        1 XWG     -0.105000
      5 S1         -5.0740    0.9070   -0.6340 ss        1 XWG      0.130200
      6 C20        -3.5290    1.1540   -0.0290 cc        1 XWG     -0.213600
      7 C17        -2.5350    0.1400   -0.0010 cc        1 XWG      0.379200
      8 C16        -2.5300   -1.2360   -0.1600 cd        1 XWG     -0.347600
      9 O10        -1.1920    0.5430    0.2520 os        1 XWG     -0.135100
     10 N9         -0.3990   -0.5110    0.2570 nc        1 XWG     -0.391300
     11 C4         -1.1300   -1.6160    0.0090 cd        1 XWG      0.342600
     12 C1         -0.6270   -3.0300   -0.0440 c3        1 XWG      0.158200
     13 N3         -0.0330   -3.4020    1.2500 n3        1 XWG     -0.696600
     14 C7          1.4020   -3.7130    1.0630 c3        1 XWG      0.174500
     15 C14         1.6790   -5.1420    1.5720 c3        1 XWG     -0.091400
     16 C15         0.3550   -5.6650    2.1140 c3        1 XWG     -0.100400
     17 C8         -0.6660   -4.5300    1.9340 c3        1 XWG      0.149800
     18 C5          1.7640   -3.5240   -0.4180 c3        1 XWG     -0.148700
     19 C2          0.4340   -3.2350   -1.1590 c3        1 XWG     -0.154700
     20 C6          0.7090   -1.9870   -1.9940 c         1 XWG      0.718500
     21 O13        -0.0090   -1.4880   -2.8610 o         1 XWG     -0.557500
     22 C11         2.6100   -2.2760   -0.6600 c         1 XWG      0.720500
     23 O18         3.6710   -1.9660   -0.1040 o         1 XWG     -0.616500
     24 N12         1.9930   -1.4860   -1.6560 n         1 XWG     -0.511400
     25 C19         2.4850   -0.1990   -2.0530 c3        1 XWG      0.110000
     26 C21         2.3360    0.8750   -0.9630 c3        1 XWG     -0.133400
     27 C23         3.4450    1.9060   -1.1150 c3        1 XWG      0.117800
     28 N29         3.5830    2.8330    0.0560 n4        1 XWG     -0.599800
     29 C34         3.9170    2.0900    1.3190 c3        1 XWG      0.113800
     30 C35         4.9420    0.9570    1.1980 c3        1 XWG      0.104400
     31 O36         6.0930    1.4560    0.5400 oh        1 XWG     -0.630800
     32 C31         2.3120    3.6340    0.2660 c3        1 XWG      0.112800
     33 C33         2.7080    5.0480    0.6970 c3        1 XWG     -0.102400
     34 C32         4.1900    5.2000    0.3840 c3        1 XWG     -0.102400
     35 C30         4.6490    3.8760   -0.2310 c3        1 XWG      0.112800
     36 H24        -4.6440    4.2710    0.5700 ha        1 XWG      0.174000
     37 H22        -2.4490    2.8450    0.8730 ha        1 XWG      0.158000
     38 H16        -3.3570   -1.9070   -0.3650 ha        1 XWG      0.185000
     39 H1         -1.5240   -3.6760   -0.2890 h1        1 XWG      0.080700
     40 H7          1.9800   -2.9750    1.6900 h1        1 XWG      0.088700
     41 H82        -0.9970   -4.1420    2.9380 h1        1 XWG      0.059200
     42 H81        -1.5790   -4.9060    1.3970 h1        1 XWG      0.059200
     43 H5          2.3020   -4.4100   -0.8370 hc        1 XWG      0.112700
     44 H2          0.1300   -4.0710   -1.8360 hc        1 XWG      0.111700
     45 H141        2.0630   -5.8010    0.7550 hc        1 XWG      0.059200
     46 H142        2.4570   -5.1120    2.3740 hc        1 XWG      0.059200
     47 H151        0.0280   -6.5780    1.5590 hc        1 XWG      0.060700
     48 H152        0.4430   -5.9380    3.1940 hc        1 XWG      0.060700
     49 H191        3.5770   -0.3200   -2.3160 h1        1 XWG      0.077200
     50 H192        1.9210    0.1220   -2.9760 h1        1 XWG      0.077200
     51 H211        1.3280    1.3610   -1.0500 hc        1 XWG      0.081200
     52 H212        2.3840    0.3910    0.0500 hc        1 XWG      0.081200
     53 H231        4.4470    1.3980   -1.2440 hx        1 XWG      0.101700
     54 H232        3.2450    2.5350   -2.0300 hx        1 XWG      0.101700
     55 H341        4.2900    2.8580    2.0540 hx        1 XWG      0.101200
     56 H342        2.9680    1.6290    1.7220 hx        1 XWG      0.101200
     57 H311        1.7500    3.6650   -0.7090 hx        1 XWG      0.107950
     58 H312        1.6610    3.1280    1.0280 hx        1 XWG      0.107950
     59 H301        5.6350    3.5330    0.1910 hx        1 XWG      0.107950
     60 H302        4.7580    3.9780   -1.3460 hx        1 XWG      0.107950
     61 H351        5.1940    0.6280    2.2440 h1        1 XWG      0.079200
     62 H352        4.5240    0.0800    0.6280 h1        1 XWG      0.079200
     63 H36         6.7840    0.7860    0.6260 ho        1 XWG      0.443000
     64 H331        2.0930    5.7990    0.1400 hc        1 XWG      0.086700
     65 H332        2.5130    5.1940    1.7900 hc        1 XWG      0.086700
     66 H321        4.3710    6.0360   -0.3380 hc        1 XWG      0.086700
     67 H322        4.7730    5.4220    1.3130 hc        1 XWG      0.086700
@<TRIPOS>BOND
     1    1    2 1   
     2    2    3 2   
     3    2    5 1   
     4    3    4 1   
     5    3   36 1   
     6    4    6 2   
     7    4   37 1   
     8    5    6 1   
     9    6    7 1   
    10    7    8 2   
    11    7    9 1   
    12    8   11 1   
    13    8   38 1   
    14    9   10 1   
    15   10   11 2   
    16   11   12 1   
    17   12   13 1   
    18   12   19 1   
    19   12   39 1   
    20   13   14 1   
    21   13   17 1   
    22   14   15 1   
    23   14   18 1   
    24   14   40 1   
    25   15   16 1   
    26   15   45 1   
    27   15   46 1   
    28   16   17 1   
    29   16   47 1   
    30   16   48 1   
    31   17   41 1   
    32   17   42 1   
    33   18   19 1   
    34   18   22 1   
    35   18   43 1   
    36   19   20 1   
    37   19   44 1   
    38   20   21 2   
    39   20   24 1   
    40   22   23 2   
    41   22   24 1   
    42   24   25 1   
    43   25   26 1   
    44   25   49 1   
    45   25   50 1   
    46   26   27 1   
    47   26   51 1   
    48   26   52 1   
    49   27   28 1   
    50   27   53 1   
    51   27   54 1   
    52   28   29 1   
    53   28   32 1   
    54   28   35 1   
    55   29   30 1   
    56   29   55 1   
    57   29   56 1   
    58   30   31 1   
    59   30   61 1   
    60   30   62 1   
    61   31   63 1   
    62   32   33 1   
    63   32   57 1   
    64   32   58 1   
    65   33   34 1   
    66   33   64 1   
    67   33   65 1   
    68   34   35 1   
    69   34   66 1   
    70   34   67 1   
    71   35   59 1   
    72   35   60 1   
@<TRIPOS>SUBSTRUCTURE
     1 XWG         1 TEMP              0 ****  ****    0 ROOT
