@<TRIPOS>MOLECULE
XWG
   67    68     1     0     0
SMALL
bcc


@<TRIPOS>ATOM
      1 CL1        -7.8390   -0.0380    4.9520 cl        1 XWG     -0.008400
      2 C25        -7.0230   -1.0440    3.8450 c2        1 XWG     -0.109100
      3 C24        -7.3840   -2.4480    3.5080 c1        1 XWG     -0.092900
      4 C22        -6.3000   -3.0150    2.4940 c1        1 XWG     -0.038900
      5 S1         -5.7440   -0.6920    3.0830 ss        1 XWG      0.165800
      6 C20        -5.3220   -1.9730    2.2400 ce        1 XWG     -0.194500
      7 C17        -4.1920   -2.0580    1.3030 ce        1 XWG      0.047000
      8 C16        -4.1970   -1.6480    0.0100 c1        1 XWG     -0.158900
      9 O10        -2.9680   -2.6290    1.5640 os        1 XWG     -0.005600
     10 N9         -2.2120   -2.5640    0.4050 n2        1 XWG     -0.352900
     11 C4         -2.9630   -1.9630   -0.5470 c1        1 XWG      0.130400
     12 C1         -2.5970   -1.7740   -1.8870 c2        1 XWG      0.319200
     13 N3         -1.9020   -2.9610   -2.3770 nh        1 XWG     -0.235100
     14 C7         -0.7510   -2.5680   -2.8590 c3        1 XWG     -0.003000
     15 C14        -0.7050   -3.1060   -4.3180 c3        1 XWG     -0.091400
     16 C15        -1.8470   -4.0630   -4.4300 c3        1 XWG     -0.100400
     17 C8         -2.2760   -4.2520   -3.1510 c3        1 XWG     -0.027700
     18 C5         -0.7190   -0.8900   -2.8410 c3        1 XWG     -0.148700
     19 C2         -1.5980   -0.5470   -2.0080 c3        1 XWG     -0.228000
     20 C6         -0.8170   -0.1150   -0.5950 c         1 XWG      0.733500
     21 O13        -1.3170    0.1130    0.3950 o         1 XWG     -0.622500
     22 C11         0.6010   -0.4810   -2.2620 c         1 XWG      0.715500
     23 O18         1.7570   -0.4380   -2.8960 o         1 XWG     -0.560500
     24 N12         0.3960   -0.4330   -0.7580 n         1 XWG     -0.515400
     25 C19         1.5060   -0.3310    0.2990 c3        1 XWG      0.106000
     26 C21         2.3070    0.9870    0.0960 c3        1 XWG     -0.124400
     27 C23         3.1300    1.2800    1.3560 c3        1 XWG      0.114800
     28 N29         3.7030    2.6380    1.2700 n4        1 XWG     -0.600800
     29 C34         2.6780    3.6170    1.4480 c3        1 XWG      0.115800
     30 C35         2.1640    3.5470    2.8770 c3        1 XWG      0.103400
     31 O36         2.1650    4.8920    3.4630 oh        1 XWG     -0.630800
     32 C31         4.4350    2.8310   -0.1640 c3        1 XWG      0.113800
     33 C33         5.3400    3.7870    0.0120 c3        1 XWG     -0.102400
     34 C32         5.6960    3.7220    1.4880 c3        1 XWG     -0.102400
     35 C30         4.5960    2.7810    2.1510 c3        1 XWG      0.113800
     36 H24        -8.1810   -2.9530    3.8590 DU        1 XWG      0.175333
     37 H22        -6.2940   -3.9700    2.0850 DU        1 XWG      0.175333
     38 H16        -5.0130   -1.1600   -0.4990 DU        1 XWG      0.175333
     39 H1         -3.4310   -1.6000   -2.4570 h4        1 XWG     -0.017200
     40 H7          0.0000   -2.9490   -2.3170 h1        1 XWG      0.099700
     41 H82        -3.3030   -4.3840   -3.1370 h1        1 XWG      0.059200
     42 H81        -1.7900   -5.0960   -2.7190 h1        1 XWG      0.059200
     43 H5         -0.8820   -0.4830   -3.7640 hc        1 XWG      0.108700
     44 H2         -2.0780    0.2190   -2.3520 hc        1 XWG      0.104700
     45 H141        0.1640   -3.5780   -4.4890 hc        1 XWG      0.060200
     46 H142       -0.8210   -2.3730   -4.9500 hc        1 XWG      0.060200
     47 H151       -1.5530   -4.8830   -4.8030 hc        1 XWG      0.059700
     48 H152       -2.5390   -3.6900   -4.9590 hc        1 XWG      0.059700
     49 H191        2.1120   -1.0940    0.2130 h1        1 XWG      0.079700
     50 H192        1.1240   -0.3320    1.1480 h1        1 XWG      0.079700
     51 H211        2.9480    0.8820   -0.7160 hc        1 XWG      0.073700
     52 H212        1.6850    1.7270   -0.0680 hc        1 XWG      0.073700
     53 H231        3.8130    0.6640    1.4260 hx        1 XWG      0.105700
     54 H232        2.5410    1.2180    2.1640 hx        1 XWG      0.105700
     55 H341        3.0500    4.5290    1.2730 hx        1 XWG      0.098700
     56 H342        1.9120    3.4310    0.7980 hx        1 XWG      0.098700
     57 H311        3.7260    3.1240   -0.8980 hx        1 XWG      0.107200
     58 H312        4.8760    1.9880   -0.4370 hx        1 XWG      0.107200
     59 H301        4.9720    1.9350    2.3790 hx        1 XWG      0.107200
     60 H302        4.1940    3.2420    2.9990 hx        1 XWG      0.107200
     61 H351        1.2780    3.1980    2.8810 h1        1 XWG      0.081200
     62 H352        2.7580    2.9500    3.4120 h1        1 XWG      0.081200
     63 H36         1.5410    4.9670    3.9560 ho        1 XWG      0.444000
     64 H331        6.1090    3.6160   -0.5160 hc        1 XWG      0.087950
     65 H332        4.9540    4.6800   -0.2130 hc        1 XWG      0.087950
     66 H321        5.6600    4.7060    1.9250 hc        1 XWG      0.087950
     67 H322        6.6690    3.3010    1.6120 hc        1 XWG      0.087950
@<TRIPOS>BOND
     1    1    2 1   
     2    2    3 2   
     3    2    5 1   
     4    3    4 2   
     5    4    6 2   
     6    5    6 1   
     7    6    7 1   
     8    7    8 2   
     9    7    9 1   
    10    8   11 2   
    11    9   10 1   
    12   10   11 2   
    13   12   13 2   
    14   12   19 1   
    15   12   39 1   
    16   13   14 1   
    17   13   17 1   
    18   14   15 1   
    19   14   18 1   
    20   14   40 1   
    21   15   16 1   
    22   15   45 1   
    23   15   46 1   
    24   16   17 1   
    25   16   47 1   
    26   16   48 1   
    27   17   41 1   
    28   17   42 1   
    29   18   19 1   
    30   18   22 1   
    31   18   43 1   
    32   19   20 1   
    33   19   44 1   
    34   20   21 2   
    35   20   24 1   
    36   22   23 2   
    37   22   24 1   
    38   24   25 1   
    39   25   26 1   
    40   25   49 1   
    41   25   50 1   
    42   26   27 1   
    43   26   51 1   
    44   26   52 1   
    45   27   28 1   
    46   27   53 1   
    47   27   54 1   
    48   28   29 1   
    49   28   32 1   
    50   28   35 1   
    51   29   30 1   
    52   29   55 1   
    53   29   56 1   
    54   30   31 1   
    55   30   61 1   
    56   30   62 1   
    57   31   63 1   
    58   32   33 1   
    59   32   57 1   
    60   32   58 1   
    61   33   34 1   
    62   33   64 1   
    63   33   65 1   
    64   34   35 1   
    65   34   66 1   
    66   34   67 1   
    67   35   59 1   
    68   35   60 1   
@<TRIPOS>SUBSTRUCTURE
     1 XWG         1 TEMP              0 ****  ****    0 ROOT
