@<TRIPOS>MOLECULE
XWG
   67    72     1     0     0
SMALL
bcc


@<TRIPOS>ATOM
      1 Cl1         0.7710    0.6610    1.1510 cl        1 XWG      0.000600
      2 C25         2.3620    0.2560    0.8580 cc        1 XWG     -0.023700
      3 C24         3.1860   -0.4280    1.7420 cd        1 XWG     -0.158000
      4 C22         4.4830   -0.6200    1.2000 cd        1 XWG     -0.105000
      5 S1          3.1580    0.6370   -0.5650 ss        1 XWG      0.130200
      6 C20         4.5970   -0.0760   -0.0770 cc        1 XWG     -0.213600
      7 C17         5.7620   -0.1090   -0.8880 cc        1 XWG      0.379200
      8 C16         6.0350    0.1270   -2.2250 cd        1 XWG     -0.347600
      9 O10         6.9900   -0.4660   -0.2600 os        1 XWG     -0.135100
     10 N9          7.9660   -0.4610   -1.1460 nc        1 XWG     -0.391300
     11 C4          7.4710   -0.1060   -2.3490 cd        1 XWG      0.342600
     12 C1          8.2350   -0.0040   -3.6380 c3        1 XWG      0.158200
     13 N3          8.8240   -1.3100   -3.9780 n3        1 XWG     -0.696600
     14 C7         10.3000   -1.1940   -4.0040 c3        1 XWG      0.174500
     15 C14        10.8160   -1.6380   -5.3870 c3        1 XWG     -0.091400
     16 C15         9.5900   -2.0660   -6.1820 c3        1 XWG     -0.100400
     17 C8          8.3830   -1.8880   -5.2480 c3        1 XWG      0.149800
     18 C5         10.6920    0.2490   -3.6510 c3        1 XWG     -0.148700
     19 C2          9.3700    1.0540   -3.5660 c3        1 XWG     -0.154700
     20 C6          9.4450    1.7980   -2.2360 c         1 XWG      0.718500
     21 O13         8.6890    2.6780   -1.8230 o         1 XWG     -0.557500
     22 C11        11.2970    0.3680   -2.2540 c         1 XWG      0.720500
     23 O18        12.2510   -0.2690   -1.7910 o         1 XWG     -0.616500
     24 N12        10.5920    1.3530   -1.5280 n         1 XWG     -0.511400
     25 C19        10.8510    1.6470   -0.1490 c3        1 XWG      0.110000
     26 C21        10.4460    0.5100    0.8040 c3        1 XWG     -0.133400
     27 C23        11.3450    0.5350    2.0300 c3        1 XWG      0.117800
     28 N29        11.2470   -0.6930    2.8870 n4        1 XWG     -0.599800
     29 C34        11.6520   -1.9300    2.1350 c3        1 XWG      0.113800
     30 C35        12.8790   -1.8090    1.2250 c3        1 XWG      0.104400
     31 O36        13.9450   -1.2520    1.9720 oh        1 XWG     -0.630800
     32 C31         9.8390   -0.8690    3.4210 c3        1 XWG      0.112800
     33 C33         9.9370   -1.4030    4.8520 c3        1 XWG     -0.102400
     34 C32        11.3770   -1.1900    5.2980 c3        1 XWG     -0.102400
     35 C30        12.1090   -0.5310    4.1270 c3        1 XWG      0.112800
     36 H24         2.8820   -0.7820    2.7310 ha        1 XWG      0.174000
     37 H22         5.2900   -1.1400    1.7210 ha        1 XWG      0.158000
     38 H16         5.3610    0.4200   -3.0230 ha        1 XWG      0.185000
     39 H1          7.4900    0.3310   -4.4210 h1        1 XWG      0.080700
     40 H7         10.6950   -1.8950   -3.2140 h1        1 XWG      0.088700
     41 H82         7.9350   -2.8900   -4.9960 h1        1 XWG      0.059200
     42 H81         7.5860   -1.2760   -5.7500 h1        1 XWG      0.059200
     43 H5         11.4090    0.6840   -4.3920 hc        1 XWG      0.112700
     44 H2          9.2640    1.7930   -4.3970 hc        1 XWG      0.111700
     45 H141       11.5330   -2.4870   -5.2660 hc        1 XWG      0.059200
     46 H142       11.3590   -0.8110   -5.9060 hc        1 XWG      0.059200
     47 H151        9.6740   -3.1330   -6.5060 hc        1 XWG      0.060700
     48 H152        9.4710   -1.4410   -7.1010 hc        1 XWG      0.060700
     49 H191       10.2820    2.5830    0.1220 h1        1 XWG      0.077200
     50 H192       11.9570    1.8480   -0.0470 h1        1 XWG      0.077200
     51 H211        9.3700    0.6310    1.0980 hc        1 XWG      0.081200
     52 H212       10.5340   -0.4760    0.2700 hc        1 XWG      0.081200
     53 H231       12.4310    0.6300    1.7280 hx        1 XWG      0.101700
     54 H232       11.0760    1.4240    2.6710 hx        1 XWG      0.101700
     55 H341       11.8360   -2.7290    2.9090 hx        1 XWG      0.101200
     56 H342       10.7900   -2.2470    1.4800 hx        1 XWG      0.101200
     57 H311        9.3300    0.1350    3.4120 hx        1 XWG      0.107950
     58 H312        9.2580   -1.5600    2.7530 hx        1 XWG      0.107950
     59 H301       13.1190   -0.9930    3.9460 hx        1 XWG      0.107950
     60 H302       12.2520    0.5670    4.3210 hx        1 XWG      0.107950
     61 H351       13.1360   -2.8490    0.8790 h1        1 XWG      0.079200
     62 H352       12.6630   -1.1660    0.3250 h1        1 XWG      0.079200
     63 H36        14.7450   -1.3420    1.4370 ho        1 XWG      0.443000
     64 H331        9.6640   -2.4880    4.8860 hc        1 XWG      0.086700
     65 H332        9.2200   -0.8520    5.5110 hc        1 XWG      0.086700
     66 H321       11.8610   -2.1650    5.5620 hc        1 XWG      0.086700
     67 H322       11.4320   -0.5300    6.1990 hc        1 XWG      0.086700
@<TRIPOS>BOND
     1    1    2 1   
     2    2    3 2   
     3    2    5 1   
     4    3    4 1   
     5    3   36 1   
     6    4    6 2   
     7    4   37 1   
     8    5    6 1   
     9    6    7 1   
    10    7    8 2   
    11    7    9 1   
    12    8   11 1   
    13    8   38 1   
    14    9   10 1   
    15   10   11 2   
    16   11   12 1   
    17   12   13 1   
    18   12   19 1   
    19   12   39 1   
    20   13   14 1   
    21   13   17 1   
    22   14   15 1   
    23   14   18 1   
    24   14   40 1   
    25   15   16 1   
    26   15   45 1   
    27   15   46 1   
    28   16   17 1   
    29   16   47 1   
    30   16   48 1   
    31   17   41 1   
    32   17   42 1   
    33   18   19 1   
    34   18   22 1   
    35   18   43 1   
    36   19   20 1   
    37   19   44 1   
    38   20   21 2   
    39   20   24 1   
    40   22   23 2   
    41   22   24 1   
    42   24   25 1   
    43   25   26 1   
    44   25   49 1   
    45   25   50 1   
    46   26   27 1   
    47   26   51 1   
    48   26   52 1   
    49   27   28 1   
    50   27   53 1   
    51   27   54 1   
    52   28   29 1   
    53   28   32 1   
    54   28   35 1   
    55   29   30 1   
    56   29   55 1   
    57   29   56 1   
    58   30   31 1   
    59   30   61 1   
    60   30   62 1   
    61   31   63 1   
    62   32   33 1   
    63   32   57 1   
    64   32   58 1   
    65   33   34 1   
    66   33   64 1   
    67   33   65 1   
    68   34   35 1   
    69   34   66 1   
    70   34   67 1   
    71   35   59 1   
    72   35   60 1   
@<TRIPOS>SUBSTRUCTURE
     1 XWG         1 TEMP              0 ****  ****    0 ROOT
