@<TRIPOS>MOLECULE
XWG
   67    72     1     0     0
SMALL
bcc


@<TRIPOS>ATOM
      1 CL1         0.7760    0.6910    1.1570 cl        1 XWG      0.000600
      2 C25         2.3650    0.2810    0.8620 cc        1 XWG     -0.023700
      3 C24         3.1860   -0.4090    1.7450 cd        1 XWG     -0.158000
      4 C22         4.4830   -0.6040    1.2010 cd        1 XWG     -0.105000
      5 S1          3.1620    0.6620   -0.5600 ss        1 XWG      0.130200
      6 C20         4.5980   -0.0570   -0.0740 cc        1 XWG     -0.213600
      7 C17         5.7630   -0.0920   -0.8850 cc        1 XWG      0.379200
      8 C16         6.0370    0.1470   -2.2210 cd        1 XWG     -0.347600
      9 O10         6.9900   -0.4560   -0.2590 os        1 XWG     -0.135100
     10 N9          7.9660   -0.4520   -1.1450 nc        1 XWG     -0.391300
     11 C4          7.4720   -0.0910   -2.3470 cd        1 XWG      0.342600
     12 C1          8.2360    0.0120   -3.6350 c3        1 XWG      0.158200
     13 N3          8.8190   -1.2950   -3.9800 n3        1 XWG     -0.696600
     14 C7         10.2950   -1.1860   -4.0060 c3        1 XWG      0.174500
     15 C14        10.8100   -1.6270   -5.3910 c3        1 XWG     -0.091400
     16 C15         9.5820   -2.0490   -6.1870 c3        1 XWG     -0.100400
     17 C8          8.3750   -1.8680   -5.2520 c3        1 XWG      0.149800
     18 C5         10.6940    0.2550   -3.6500 c3        1 XWG     -0.148700
     19 C2          9.3750    1.0640   -3.5610 c3        1 XWG     -0.154700
     20 C6          9.4530    1.8040   -2.2280 c         1 XWG      0.718500
     21 O13         8.7010    2.6860   -1.8120 o         1 XWG     -0.557500
     22 C11        11.3000    0.3660   -2.2520 c         1 XWG      0.720500
     23 O18        12.2510   -0.2760   -1.7910 o         1 XWG     -0.616500
     24 N12        10.5990    1.3530   -1.5230 n         1 XWG     -0.511400
     25 C19        10.8600    1.6410   -0.1420 c3        1 XWG      0.110000
     26 C21        10.4500    0.5020    0.8060 c3        1 XWG     -0.133400
     27 C23        11.3500    0.5200    2.0330 c3        1 XWG      0.117800
     28 N29        11.2470   -0.7100    2.8850 n4        1 XWG     -0.599800
     29 C34        11.6480   -1.9470    2.1300 c3        1 XWG      0.113800
     30 C35        12.8740   -1.8280    1.2190 c3        1 XWG      0.104400
     31 O36        13.9430   -1.2780    1.9680 oh        1 XWG     -0.630800
     32 C31         9.8380   -0.8830    3.4200 c3        1 XWG      0.112800
     33 C33         9.9350   -1.4220    4.8480 c3        1 XWG     -0.102400
     34 C32        11.3760   -1.2160    5.2950 c3        1 XWG     -0.102400
     35 C30        12.1100   -0.5560    4.1260 c3        1 XWG      0.112800
     36 H24         2.8820   -0.7640    2.7330 ha        1 XWG      0.174000
     37 H22         5.2880   -1.1280    1.7210 ha        1 XWG      0.158000
     38 H16         5.3640    0.4450   -3.0190 ha        1 XWG      0.185000
     39 H1          7.4920    0.3530   -4.4180 h1        1 XWG      0.080700
     40 H7         10.6880   -1.8910   -3.2200 h1        1 XWG      0.088700
     41 H82         7.9230   -2.8680   -5.0030 h1        1 XWG      0.059200
     42 H81         7.5810   -1.2510   -5.7520 h1        1 XWG      0.059200
     43 H5         11.4120    0.6890   -4.3890 hc        1 XWG      0.112700
     44 H2          9.2720    1.8070   -4.3900 hc        1 XWG      0.111700
     45 H141       11.3550   -0.8000   -5.9080 hc        1 XWG      0.059200
     46 H142       11.5230   -2.4800   -5.2730 hc        1 XWG      0.059200
     47 H151        9.4640   -1.4200   -7.1040 hc        1 XWG      0.060700
     48 H152        9.6610   -3.1140   -6.5140 hc        1 XWG      0.060700
     49 H191       10.2960    2.5780    0.1320 h1        1 XWG      0.077200
     50 H192       11.9660    1.8370   -0.0400 h1        1 XWG      0.077200
     51 H211        9.3750    0.6260    1.1010 hc        1 XWG      0.081200
     52 H212       10.5340   -0.4820    0.2700 hc        1 XWG      0.081200
     53 H231       11.0850    1.4070    2.6770 hx        1 XWG      0.101700
     54 H232       12.4360    0.6110    1.7300 hx        1 XWG      0.101700
     55 H341       11.8280   -2.7490    2.9010 hx        1 XWG      0.101200
     56 H342       10.7830   -2.2590    1.4740 hx        1 XWG      0.101200
     57 H311        9.3340    0.1240    3.4140 hx        1 XWG      0.107950
     58 H312        9.2540   -1.5700    2.7490 hx        1 XWG      0.107950
     59 H301       12.2580    0.5410    4.3240 hx        1 XWG      0.107950
     60 H302       13.1180   -1.0210    3.9430 hx        1 XWG      0.107950
     61 H351       12.6610   -1.1810    0.3220 h1        1 XWG      0.079200
     62 H352       13.1270   -2.8680    0.8710 h1        1 XWG      0.079200
     63 H36        14.7430   -1.3690    1.4330 ho        1 XWG      0.443000
     64 H331        9.2200   -0.8710    5.5100 hc        1 XWG      0.086700
     65 H332        9.6570   -2.5060    4.8790 hc        1 XWG      0.086700
     66 H321       11.4340   -0.5590    6.1990 hc        1 XWG      0.086700
     67 H322       11.8560   -2.1940    5.5560 hc        1 XWG      0.086700
@<TRIPOS>BOND
     1    1    2 1   
     2    2    3 2   
     3    2    5 1   
     4    3    4 1   
     5    3   36 1   
     6    4    6 2   
     7    4   37 1   
     8    5    6 1   
     9    6    7 1   
    10    7    8 2   
    11    7    9 1   
    12    8   11 1   
    13    8   38 1   
    14    9   10 1   
    15   10   11 2   
    16   11   12 1   
    17   12   13 1   
    18   12   19 1   
    19   12   39 1   
    20   13   14 1   
    21   13   17 1   
    22   14   15 1   
    23   14   18 1   
    24   14   40 1   
    25   15   16 1   
    26   15   45 1   
    27   15   46 1   
    28   16   17 1   
    29   16   47 1   
    30   16   48 1   
    31   17   41 1   
    32   17   42 1   
    33   18   19 1   
    34   18   22 1   
    35   18   43 1   
    36   19   20 1   
    37   19   44 1   
    38   20   21 2   
    39   20   24 1   
    40   22   23 2   
    41   22   24 1   
    42   24   25 1   
    43   25   26 1   
    44   25   49 1   
    45   25   50 1   
    46   26   27 1   
    47   26   51 1   
    48   26   52 1   
    49   27   28 1   
    50   27   53 1   
    51   27   54 1   
    52   28   29 1   
    53   28   32 1   
    54   28   35 1   
    55   29   30 1   
    56   29   55 1   
    57   29   56 1   
    58   30   31 1   
    59   30   61 1   
    60   30   62 1   
    61   31   63 1   
    62   32   33 1   
    63   32   57 1   
    64   32   58 1   
    65   33   34 1   
    66   33   64 1   
    67   33   65 1   
    68   34   35 1   
    69   34   66 1   
    70   34   67 1   
    71   35   59 1   
    72   35   60 1   
@<TRIPOS>SUBSTRUCTURE
     1 XWG         1 TEMP              0 ****  ****    0 ROOT
