@<TRIPOS>MOLECULE
XWW
   50    53     1     0     0
SMALL
bcc


@<TRIPOS>ATOM
      1 C1         -0.1030   -0.3200    0.1350 c3        1 XWW     -0.127100
      2 C2          1.4240   -0.2310    0.1350 c3        1 XWW      0.191200
      3 C3          1.8920   -0.3070    1.6060 ca        1 XWW      0.625300
      4 N1          2.3650    0.8530    2.1610 nb        1 XWW     -0.671000
      5 C4          2.7500    0.8010    3.4460 ca        1 XWW      0.404700
      6 C5          2.6790   -0.3980    4.2030 ca        1 XWW     -0.109700
      7 C6          2.1730   -1.5470    3.5390 ca        1 XWW      0.404700
      8 N2          1.7810   -1.5070    2.2560 nb        1 XWW     -0.671000
      9 F1          3.0700   -0.4430    5.4900 f         1 XWW     -0.116900
     10 N3          2.0980   -1.2490   -0.6470 nh        1 XWW     -0.822900
     11 C7          2.1230   -1.1630   -2.0520 ca        1 XWW      0.928900
     12 N4          1.9210    0.0690   -2.6510 nb        1 XWW     -0.838000
     13 C8          2.0780    0.0760   -4.0250 ca        1 XWW      0.925900
     14 N5          2.3650   -1.0350   -4.8000 nb        1 XWW     -0.846000
     15 C9          2.5600   -2.2140   -4.0990 ca        1 XWW      0.933900
     16 N6          2.4120   -2.3380   -2.7270 nb        1 XWW     -0.849000
     17 N7          2.9930   -3.3520   -4.8240 nh        1 XWW     -0.725300
     18 C10         2.7800   -3.3470   -6.2640 c3        1 XWW      0.165800
     19 C11         3.4500   -4.5350   -6.9670 c3        1 XWW      0.118400
     20 O1          3.1290   -5.7740   -6.3480 os        1 XWW     -0.412600
     21 C12         3.5020   -5.7840   -4.9770 c3        1 XWW      0.118400
     22 C13         2.8340   -4.6510   -4.1880 c3        1 XWW      0.165800
     23 N8          2.0240    1.3130   -4.7110 nh        1 XWW     -0.760600
     24 C14         1.3140    2.3890   -4.1490 cc        1 XWW      0.477200
     25 C15         1.5790    3.0150   -2.9050 cd        1 XWW     -0.204600
     26 N9          0.6880    4.0850   -2.8140 na        1 XWW     -0.211900
     27 C16        -0.0800    4.0810   -3.9890 cd        1 XWW      0.399400
     28 N10         0.2640    3.0760   -4.8120 nc        1 XWW     -0.683000
     29 C17         0.5590    4.9790   -1.7140 c3        1 XWW      0.026600
     30 H11C       -0.4560   -1.3150    0.4960 hc        1 XWW      0.053367
     31 H12C       -0.4910   -0.1530   -0.8990 hc        1 XWW      0.053367
     32 H13C       -0.5160    0.4730    0.8030 hc        1 XWW      0.053367
     33 H2          1.7240    0.7830   -0.2730 h1        1 XWW      0.111700
     34 H3          2.0200   -2.1800   -0.2890 hn        1 XWW      0.441800
     35 H4          3.1320    1.7360    3.8940 h4        1 XWW      0.045600
     36 H6          2.0870   -2.5170    4.0620 h4        1 XWW      0.045600
     37 H8          1.9120    1.2270   -5.7060 hn        1 XWW      0.447800
     38 H101        1.6770   -3.3640   -6.4960 h1        1 XWW      0.064200
     39 H102        3.2200   -2.4060   -6.7000 h1        1 XWW      0.064200
     40 H131        1.7390   -4.8930   -4.0630 h1        1 XWW      0.064200
     41 H132        3.3100   -4.6240   -3.1680 h1        1 XWW      0.064200
     42 H111        3.0510   -4.6280   -8.0110 h1        1 XWW      0.057700
     43 H112        4.5650   -4.4040   -6.9900 h1        1 XWW      0.057700
     44 H121        3.1400   -6.7740   -4.5930 h1        1 XWW      0.057700
     45 H122        4.6190   -5.7220   -4.8910 h1        1 XWW      0.057700
     46 H15         2.2890    2.7620   -2.1190 h4        1 XWW      0.198000
     47 H16        -0.8590    4.8250   -4.1870 h5        1 XWW      0.061100
     48 H171        1.5690    5.1850   -1.2680 h1        1 XWW      0.054700
     49 H172        0.1060    5.9450   -2.0640 h1        1 XWW      0.054700
     50 H173       -0.1020    4.5320   -0.9220 h1        1 XWW      0.054700
@<TRIPOS>BOND
     1    1    2 1   
     2    1   30 1   
     3    1   31 1   
     4    1   32 1   
     5    2    3 1   
     6    2   10 1   
     7    2   33 1   
     8    3    4 ar  
     9    3    8 ar  
    10    4    5 ar  
    11    5    6 ar  
    12    5   35 1   
    13    6    7 ar  
    14    6    9 1   
    15    7    8 ar  
    16    7   36 1   
    17   10   11 1   
    18   10   34 1   
    19   11   12 ar  
    20   11   16 ar  
    21   12   13 ar  
    22   13   14 ar  
    23   13   23 1   
    24   14   15 ar  
    25   15   16 ar  
    26   15   17 1   
    27   17   18 1   
    28   17   22 1   
    29   18   19 1   
    30   18   38 1   
    31   18   39 1   
    32   19   20 1   
    33   19   42 1   
    34   19   43 1   
    35   20   21 1   
    36   21   22 1   
    37   21   44 1   
    38   21   45 1   
    39   22   40 1   
    40   22   41 1   
    41   23   24 1   
    42   23   37 1   
    43   24   25 2   
    44   24   28 1   
    45   25   26 1   
    46   25   46 1   
    47   26   27 1   
    48   26   29 1   
    49   27   28 2   
    50   27   47 1   
    51   29   48 1   
    52   29   49 1   
    53   29   50 1   
@<TRIPOS>SUBSTRUCTURE
     1 XWW         1 TEMP              0 ****  ****    0 ROOT
