@<TRIPOS>MOLECULE
XWW
   50    53     1     0     0
SMALL
bcc


@<TRIPOS>ATOM
      1 C1         -0.0900   -0.3360    0.1490 c3        1 XWW     -0.127100
      2 C2          1.4350   -0.2340    0.1370 c3        1 XWW      0.191200
      3 C3          1.9150   -0.3030    1.6060 ca        1 XWW      0.625300
      4 N1          2.3810    0.8610    2.1560 nb        1 XWW     -0.671000
      5 C4          2.7760    0.8150    3.4380 ca        1 XWW      0.404700
      6 C5          2.7200   -0.3840    4.1970 ca        1 XWW     -0.109700
      7 C6          2.2200   -1.5380    3.5380 ca        1 XWW      0.404700
      8 N2          1.8190   -1.5030    2.2580 nb        1 XWW     -0.671000
      9 F1          3.1210   -0.4240    5.4810 f         1 XWW     -0.116900
     10 N3          2.1130   -1.2460   -0.6480 nu        1 XWW     -0.822900
     11 C7          2.1270   -1.1610   -2.0530 ca        1 XWW      0.928900
     12 N4          1.9110    0.0670   -2.6520 nb        1 XWW     -0.838000
     13 C8          2.0580    0.0740   -4.0270 ca        1 XWW      0.925900
     14 N5          2.3490   -1.0340   -4.8030 nb        1 XWW     -0.846000
     15 C9          2.5590   -2.2110   -4.1020 ca        1 XWW      0.933900
     16 N6          2.4210   -2.3350   -2.7280 nb        1 XWW     -0.849000
     17 N7          2.9960   -3.3460   -4.8290 nh        1 XWW     -0.725300
     18 C10         2.7740   -3.3450   -6.2670 c3        1 XWW      0.165800
     19 C11         3.4490   -4.5270   -6.9740 c3        1 XWW      0.118400
     20 O1          3.1420   -5.7680   -6.3510 os        1 XWW     -0.412600
     21 C12         3.5250   -5.7740   -4.9820 c3        1 XWW      0.118400
     22 C13         2.8520   -4.6460   -4.1910 c3        1 XWW      0.165800
     23 N8          1.9890    1.3100   -4.7140 nu        1 XWW     -0.760600
     24 C14         1.2740    2.3810   -4.1470 cc        1 XWW      0.477200
     25 C15         1.5440    3.0110   -2.9060 cd        1 XWW     -0.204600
     26 N9          0.6450    4.0730   -2.8090 na        1 XWW     -0.211900
     27 C16        -0.1320    4.0620   -3.9790 cd        1 XWW      0.399400
     28 N10         0.2130    3.0580   -4.8040 nc        1 XWW     -0.683000
     29 C17         0.5170    4.9680   -1.7100 c3        1 XWW      0.026600
     30 H11C       -0.4870   -0.1730   -0.8830 hc        1 XWW      0.053367
     31 H12C       -0.4330   -1.3330    0.5130 hc        1 XWW      0.053367
     32 H13C       -0.5070    0.4540    0.8190 hc        1 XWW      0.053367
     33 H2          1.7230    0.7830   -0.2730 h1        1 XWW      0.111700
     34 H3          2.0450   -2.1780   -0.2880 hn        1 XWW      0.441800
     35 H4          3.1530    1.7540    3.8820 h4        1 XWW      0.045600
     36 H6          2.1460   -2.5080    4.0620 h4        1 XWW      0.045600
     37 H8          1.8700    1.2220   -5.7080 hn        1 XWW      0.447800
     38 H101        3.2020   -2.4010   -6.7070 h1        1 XWW      0.064200
     39 H102        1.6690   -3.3720   -6.4920 h1        1 XWW      0.064200
     40 H131        1.7610   -4.8970   -4.0570 h1        1 XWW      0.064200
     41 H132        3.3350   -4.6140   -3.1730 h1        1 XWW      0.064200
     42 H111        4.5620   -4.3870   -7.0050 h1        1 XWW      0.057700
     43 H112        3.0430   -4.6250   -8.0150 h1        1 XWW      0.057700
     44 H121        3.1740   -6.7670   -4.5950 h1        1 XWW      0.057700
     45 H122        4.6420   -5.7020   -4.9040 h1        1 XWW      0.057700
     46 H15         2.2620    2.7650   -2.1260 h4        1 XWW      0.198000
     47 H16        -0.9190    4.7990   -4.1720 h5        1 XWW      0.061100
     48 H171       -0.1340    4.5170   -0.9120 h1        1 XWW      0.054700
     49 H172        0.0530    5.9290   -2.0570 h1        1 XWW      0.054700
     50 H173        1.5290    5.1830   -1.2720 h1        1 XWW      0.054700
@<TRIPOS>BOND
     1    1    2 1   
     2    1   30 1   
     3    1   31 1   
     4    1   32 1   
     5    2    3 1   
     6    2   10 1   
     7    2   33 1   
     8    3    4 ar  
     9    3    8 ar  
    10    4    5 ar  
    11    5    6 ar  
    12    5   35 1   
    13    6    7 ar  
    14    6    9 1   
    15    7    8 ar  
    16    7   36 1   
    17   10   11 1   
    18   10   34 1   
    19   11   12 ar  
    20   11   16 ar  
    21   12   13 ar  
    22   13   14 ar  
    23   13   23 1   
    24   14   15 ar  
    25   15   16 ar  
    26   15   17 1   
    27   17   18 1   
    28   17   22 1   
    29   18   19 1   
    30   18   38 1   
    31   18   39 1   
    32   19   20 1   
    33   19   42 1   
    34   19   43 1   
    35   20   21 1   
    36   21   22 1   
    37   21   44 1   
    38   21   45 1   
    39   22   40 1   
    40   22   41 1   
    41   23   24 1   
    42   23   37 1   
    43   24   25 2   
    44   24   28 1   
    45   25   26 1   
    46   25   46 1   
    47   26   27 1   
    48   26   29 1   
    49   27   28 2   
    50   27   47 1   
    51   29   48 1   
    52   29   49 1   
    53   29   50 1   
@<TRIPOS>SUBSTRUCTURE
     1 XWW         1 TEMP              0 ****  ****    0 ROOT
