@<TRIPOS>MOLECULE
XWW
   50    53     1     0     0
SMALL
bcc


@<TRIPOS>ATOM
      1 C1         -2.1120   -0.4380   -2.3000 c3        1 XWW     -0.128100
      2 C2         -2.0240   -0.5940   -0.7800 c3        1 XWW      0.190200
      3 C3         -3.2460   -1.4290   -0.3330 ca        1 XWW      0.625300
      4 N1         -4.2480   -0.7540    0.3110 nb        1 XWW     -0.671000
      5 C4         -5.3240   -1.4660    0.6810 ca        1 XWW      0.404700
      6 C5         -5.4270   -2.8590    0.4230 ca        1 XWW     -0.109700
      7 C6         -4.3370   -3.4680   -0.2530 ca        1 XWW      0.404700
      8 N2         -3.2570   -2.7660   -0.6310 nb        1 XWW     -0.671000
      9 F1         -6.5070   -3.5680    0.8000 f         1 XWW     -0.116900
     10 N3         -0.8030   -1.2060   -0.2950 nh        1 XWW     -0.822900
     11 C7          0.3990   -0.4740   -0.2830 ca        1 XWW      0.928900
     12 N4          0.3420    0.9090   -0.2990 nb        1 XWW     -0.835000
     13 C8          1.5660    1.5400   -0.1780 ca        1 XWW      0.922900
     14 N5          2.7820    0.8960   -0.0310 nb        1 XWW     -0.845000
     15 C9          2.7280   -0.4880   -0.0350 ca        1 XWW      0.933900
     16 N6          1.5630   -1.2210   -0.1970 nb        1 XWW     -0.849000
     17 N7          3.9280   -1.1980    0.2150 nh        1 XWW     -0.725300
     18 C10         5.1810   -0.4930   -0.0130 c3        1 XWW      0.166300
     19 C11         6.4040   -1.2870    0.4640 c3        1 XWW      0.118400
     20 O1          6.4030   -2.6200   -0.0300 os        1 XWW     -0.412600
     21 C12         5.2270   -3.3180    0.3570 c3        1 XWW      0.118400
     22 C13         3.9530   -2.6130   -0.1260 c3        1 XWW      0.166300
     23 N8          1.6210    2.9510   -0.3150 nh        1 XWW     -0.757600
     24 C14         0.5170    3.7230    0.0940 cc        1 XWW      0.477200
     25 C15        -0.8070    3.6420   -0.4050 cd        1 XWW     -0.206600
     26 N9         -1.5240    4.6510    0.2360 na        1 XWW     -0.210900
     27 C16        -0.6270    5.3190    1.0840 cd        1 XWW      0.402400
     28 N10         0.6060    4.7850    1.0320 nc        1 XWW     -0.684000
     29 C17        -2.9020    4.9530    0.0430 c3        1 XWW      0.025600
     30 H11C       -1.3140    0.2580   -2.6550 hc        1 XWW      0.053033
     31 H12C       -1.9930   -1.4180   -2.8200 hc        1 XWW      0.053033
     32 H13C       -3.1070   -0.0080   -2.5680 hc        1 XWW      0.053033
     33 H2         -2.1150    0.4330   -0.3080 h1        1 XWW      0.112700
     34 H3         -0.6970   -2.1770   -0.5120 hn        1 XWW      0.442800
     35 H4         -6.1330   -0.9220    1.2020 h4        1 XWW      0.045600
     36 H6         -4.3430   -4.5480   -0.4900 h4        1 XWW      0.045600
     37 H8          2.5060    3.3470   -0.0450 hn        1 XWW      0.444800
     38 H101        5.3040   -0.2610   -1.1100 h1        1 XWW      0.064450
     39 H102        5.1680    0.4790    0.5560 h1        1 XWW      0.064450
     40 H131        3.0770   -3.1270    0.3630 h1        1 XWW      0.064450
     41 H132        3.8650   -2.7480   -1.2420 h1        1 XWW      0.064450
     42 H111        7.3370   -0.8300    0.0400 h1        1 XWW      0.057950
     43 H112        6.4550   -1.3000    1.5850 h1        1 XWW      0.057950
     44 H121        5.3150   -4.3190   -0.1420 h1        1 XWW      0.057950
     45 H122        5.2120   -3.4420    1.4720 h1        1 XWW      0.057950
     46 H15        -1.2600    2.9490   -1.1120 h4        1 XWW      0.194000
     47 H16        -0.9240    6.1670    1.7090 h5        1 XWW      0.062100
     48 H171       -3.5070    4.0060    0.0510 h1        1 XWW      0.054367
     49 H172       -3.2600    5.6270    0.8660 h1        1 XWW      0.054367
     50 H173       -3.0530    5.4710   -0.9440 h1        1 XWW      0.054367
@<TRIPOS>BOND
     1    1    2 1   
     2    1   30 1   
     3    1   31 1   
     4    1   32 1   
     5    2    3 1   
     6    2   10 1   
     7    2   33 1   
     8    3    4 ar  
     9    3    8 ar  
    10    4    5 ar  
    11    5    6 ar  
    12    5   35 1   
    13    6    7 ar  
    14    6    9 1   
    15    7    8 ar  
    16    7   36 1   
    17   10   11 1   
    18   10   34 1   
    19   11   12 ar  
    20   11   16 ar  
    21   12   13 ar  
    22   13   14 ar  
    23   13   23 1   
    24   14   15 ar  
    25   15   16 ar  
    26   15   17 1   
    27   17   18 1   
    28   17   22 1   
    29   18   19 1   
    30   18   38 1   
    31   18   39 1   
    32   19   20 1   
    33   19   42 1   
    34   19   43 1   
    35   20   21 1   
    36   21   22 1   
    37   21   44 1   
    38   21   45 1   
    39   22   40 1   
    40   22   41 1   
    41   23   24 1   
    42   23   37 1   
    43   24   25 2   
    44   24   28 1   
    45   25   26 1   
    46   25   46 1   
    47   26   27 1   
    48   26   29 1   
    49   27   28 2   
    50   27   47 1   
    51   29   48 1   
    52   29   49 1   
    53   29   50 1   
@<TRIPOS>SUBSTRUCTURE
     1 XWW         1 TEMP              0 ****  ****    0 ROOT
