@<TRIPOS>MOLECULE
XWW
   52    55     1     0     0
SMALL
bcc


@<TRIPOS>ATOM
      1 C1          0.5560   -1.7960    0.3790 c3        1 XWW     -0.132100
      2 C2          1.8020   -0.9810    0.6790 c3        1 XWW      0.129200
      3 C3          2.0940   -1.0430    2.1830 ca        1 XWW      0.530300
      4 N1          1.6250    0.0030    2.9260 nb        1 XWW     -0.666500
      5 C4          1.7960   -0.0810    4.2560 ca        1 XWW      0.411200
      6 C5          2.4420   -1.1980    4.8600 ca        1 XWW     -0.031700
      7 C6          2.9130   -2.2240    3.9910 ca        1 XWW      0.411200
      8 N2          2.7410   -2.1500    2.6620 nb        1 XWW     -0.666500
      9 F1          2.6050   -1.2780    6.1860 f         1 XWW     -0.069900
     10 N3          3.0150   -1.4980   -0.0840 n4        1 XWW     -0.754700
     11 C7          2.9560   -1.1380   -1.5340 ca        1 XWW      0.835900
     12 N4          3.2620    0.1740   -1.8400 nb        1 XWW     -0.769000
     13 C8          3.1590    0.4310   -3.1920 ca        1 XWW      0.855900
     14 N5          2.8480   -0.4310   -4.1820 nb        1 XWW     -0.743000
     15 C9          2.5870   -1.7620   -3.7620 ca        1 XWW      0.947900
     16 N6          2.6140   -2.1250   -2.3910 nb        1 XWW     -0.751000
     17 N7          2.3230   -2.7150   -4.6980 nh        1 XWW     -0.648300
     18 C10         2.1490   -2.3570   -6.1060 c3        1 XWW      0.152300
     19 C11         2.3980   -3.5260   -7.0720 c3        1 XWW      0.110400
     20 O1          1.7200   -4.6970   -6.6490 os        1 XWW     -0.371600
     21 C12         2.1790   -5.1270   -5.3790 c3        1 XWW      0.110400
     22 C13         1.9160   -4.0640   -4.3000 c3        1 XWW      0.152300
     23 N8          3.4050    1.8600   -3.5970 n4        1 XWW     -0.673400
     24 C14         2.1560    2.5870   -3.6770 cc        1 XWW      0.264200
     25 C15         1.8480    3.6380   -4.5860 cd        1 XWW     -0.135600
     26 N9          0.5660    4.0350   -4.2620 na        1 XWW     -0.154900
     27 C16         0.1290    3.2290   -3.1910 cd        1 XWW      0.453400
     28 N10         1.0650    2.3380   -2.8150 nc        1 XWW     -0.642000
     29 C17        -0.1730    5.1020   -4.8760 c3        1 XWW     -0.004400
     30 H11C        0.2850   -1.7410   -0.7030 hc        1 XWW      0.088700
     31 H12C       -0.2880   -1.3620    0.9760 hc        1 XWW      0.088700
     32 H13C        0.6760   -2.8680    0.6760 hc        1 XWW      0.088700
     33 H2          1.6520    0.0980    0.3640 hx        1 XWW      0.143700
     34 H3          3.0590   -2.5270    0.0160 hn        1 XWW      0.490300
     35 H4          1.4100    0.7610    4.8670 h4        1 XWW      0.079100
     36 H6          3.4340   -3.1180    4.3880 h4        1 XWW      0.079100
     37 H8          3.8660    1.8830   -4.5190 hn        1 XWW      0.489800
     38 H101        1.0880   -1.9920   -6.2320 h1        1 XWW      0.090200
     39 H102        2.8560   -1.5290   -6.3940 h1        1 XWW      0.090200
     40 H131        0.8100   -4.0300   -4.0770 h1        1 XWW      0.090200
     41 H132        2.4670   -4.3860   -3.3730 h1        1 XWW      0.090200
     42 H111        1.9500   -3.2800   -8.0730 h1        1 XWW      0.089700
     43 H112        3.4970   -3.7270   -7.1760 h1        1 XWW      0.089700
     44 H121        1.5720   -6.0450   -5.1490 h1        1 XWW      0.089700
     45 H122        3.2710   -5.3850   -5.4250 h1        1 XWW      0.089700
     46 H15         2.4340    4.0950   -5.3880 h4        1 XWW      0.219000
     47 H16        -0.8680    3.3370   -2.7340 h5        1 XWW      0.107100
     48 H171        0.0890    6.0790   -4.3830 h1        1 XWW      0.092367
     49 H172        0.0760    5.1590   -5.9700 h1        1 XWW      0.092367
     50 H173       -1.2730    4.9090   -4.7540 h1        1 XWW      0.092367
     51 H32         3.8680   -1.0890    0.3260 hn        1 XWW      0.490300
     52 H82         4.0090    2.3120   -2.8880 hn        1 XWW      0.489800
@<TRIPOS>BOND
     1    1    2 1   
     2    1   30 1   
     3    1   31 1   
     4    1   32 1   
     5    2    3 1   
     6    2   10 1   
     7    2   33 1   
     8    3    4 ar  
     9    3    8 ar  
    10    4    5 ar  
    11    5    6 ar  
    12    5   35 1   
    13    6    7 ar  
    14    6    9 1   
    15    7    8 ar  
    16    7   36 1   
    17   10   11 1   
    18   10   34 1   
    19   10   51 1   
    20   11   12 ar  
    21   11   16 ar  
    22   12   13 ar  
    23   13   14 ar  
    24   13   23 1   
    25   14   15 ar  
    26   15   16 ar  
    27   15   17 1   
    28   17   18 1   
    29   17   22 1   
    30   18   19 1   
    31   18   38 1   
    32   18   39 1   
    33   19   20 1   
    34   19   42 1   
    35   19   43 1   
    36   20   21 1   
    37   21   22 1   
    38   21   44 1   
    39   21   45 1   
    40   22   40 1   
    41   22   41 1   
    42   23   24 1   
    43   23   37 1   
    44   23   52 1   
    45   24   25 2   
    46   24   28 1   
    47   25   26 1   
    48   25   46 1   
    49   26   27 1   
    50   26   29 1   
    51   27   28 2   
    52   27   47 1   
    53   29   48 1   
    54   29   49 1   
    55   29   50 1   
@<TRIPOS>SUBSTRUCTURE
     1 XWW         1 TEMP              0 ****  ****    0 ROOT
