@<TRIPOS>MOLECULE
XX1
   34    35     1     0     0
SMALL
bcc


@<TRIPOS>ATOM
      1 O          -7.0740   -0.3400    0.3450 o         1 XX1     -0.843800
      2 C          -5.9990   -0.5600   -0.2820 c         1 XX1      0.887600
      3 CA         -4.8310    0.4710   -0.1260 c3        1 XX1      0.017500
      4 N          -5.1080    1.5610    0.8010 n3        1 XX1     -0.891800
      5 CB         -3.5590   -0.3050    0.2160 c3        1 XX1     -0.064400
      6 CG         -2.3090    0.5360    0.0750 c3        1 XX1     -0.073400
      7 CD         -1.0710   -0.3150    0.2700 c3        1 XX1     -0.093400
      8 CE          0.1880    0.5360    0.1120 c3        1 XX1      0.190800
      9 NZ          1.4000   -0.2480    0.2350 nh        1 XX1     -0.837900
     10 C6          2.6430    0.3200   -0.0270 ca        1 XX1      0.704200
     11 C5          3.8100   -0.5150   -0.0510 ca        1 XX1     -0.377800
     12 N7          4.0270   -1.8890    0.0610 na        1 XX1     -0.258300
     13 C8          5.4150   -2.0690   -0.0320 cc        1 XX1      0.423700
     14 N1          2.8200    1.6650   -0.1860 nb        1 XX1     -0.752000
     15 C2          4.0970    2.1210   -0.3460 ca        1 XX1      0.649900
     16 N3          5.2650    1.4490   -0.3910 nb        1 XX1     -0.678000
     17 C4          5.1240    0.0970   -0.2380 ca        1 XX1      0.570300
     18 N9          6.1040   -0.9290   -0.2250 nd        1 XX1     -0.637700
     19 OXT        -5.8050   -1.5480   -1.0440 o         1 XX1     -0.843800
     20 HA         -4.6920    0.9450   -1.1410 h1        1 XX1      0.040700
     21 H          -6.0520    1.8660    0.6260 hn        1 XX1      0.330800
     22 H2         -5.1040    1.1920    1.7360 hn        1 XX1      0.330800
     23 HB2        -3.6240   -0.7110    1.2590 hc        1 XX1      0.047200
     24 HB3        -3.5140   -1.1830   -0.4840 hc        1 XX1      0.047200
     25 HG2        -2.2870    1.0080   -0.9420 hc        1 XX1      0.042200
     26 HG3        -2.3200    1.3690    0.8260 hc        1 XX1      0.042200
     27 HD2        -1.0940   -0.7810    1.2900 hc        1 XX1      0.040700
     28 HD3        -1.0740   -1.1480   -0.4810 hc        1 XX1      0.040700
     29 HE2         0.1510    1.0630   -0.8860 h1        1 XX1      0.057200
     30 HE3         0.2100    1.3300    0.9120 h1        1 XX1      0.057200
     31 HZ          1.3110   -1.1950   -0.0640 hn        1 XX1      0.406800
     32 HN7         3.3560   -2.5640    0.3110 hn        1 XX1      0.309700
     33 H8          5.8710   -3.0650    0.0300 h5        1 XX1      0.067800
     34 HC2         4.1740    3.2230   -0.4640 h5        1 XX1      0.049100
@<TRIPOS>BOND
     1    1    2 1   
     2    2    3 1   
     3    2   19 1   
     4    3    4 1   
     5    3    5 1   
     6    3   20 1   
     7    4   21 1   
     8    4   22 1   
     9    5    6 1   
    10    5   23 1   
    11    5   24 1   
    12    6    7 1   
    13    6   25 1   
    14    6   26 1   
    15    7    8 1   
    16    7   27 1   
    17    7   28 1   
    18    8    9 1   
    19    8   29 1   
    20    8   30 1   
    21    9   10 1   
    22    9   31 1   
    23   10   11 ar  
    24   10   14 ar  
    25   11   12 1   
    26   11   17 ar  
    27   12   13 1   
    28   12   32 1   
    29   13   18 2   
    30   13   33 1   
    31   14   15 ar  
    32   15   16 ar  
    33   15   34 1   
    34   16   17 ar  
    35   17   18 1   
@<TRIPOS>SUBSTRUCTURE
     1 XX1         1 TEMP              0 ****  ****    0 ROOT
