@<TRIPOS>MOLECULE
XX3
   18    17     1     0     0
SMALL
bcc


@<TRIPOS>ATOM
      1 O8          2.3010    0.3470    0.4640 oh        1 XX3     -0.314000
      2 C2          0.9020    0.3060    0.6060 c3        1 XX3      0.134000
      3 O12         0.7800    0.3130    2.0290 os        1 XX3     -0.138000
      4 O13         1.9410    1.0360    2.5640 oh        1 XX3     -0.170000
      5 C1          0.2560    1.6180   -0.0000 c2        1 XX3      0.233000
      6 O7          0.7910    2.6930    0.1830 o         1 XX3     -0.245000
      7 C6         -1.0170    1.5440   -0.8020 c2        1 XX3     -0.196000
      8 C5         -1.5100    0.2350   -1.3020 c1        1 XX3     -0.052000
      9 C3          0.3480   -1.0230    0.0320 c2        1 XX3     -0.032000
     10 C4         -0.9380   -1.0330   -0.7750 c1        1 XX3     -0.117000
     11 N9         -1.6000   -2.2620   -1.0270 no        1 XX3      0.566000
     12 O10        -1.2930   -2.9860   -2.1440 o         1 XX3     -0.343000
     13 O11        -2.4490   -2.6700   -0.2480 o         1 XX3     -0.343000
     14 HO8         2.5130    0.2950   -0.3980 ho        1 XX3      0.253000
     15 HO13        2.0080    0.8840    3.4370 ho        1 XX3      0.213000
     16 H6         -1.4020    2.3650   -1.1620 ha        1 XX3      0.174000
     17 H5         -2.3370    0.2050   -1.8200 ha        1 XX3      0.182000
     18 H31         0.7060   -1.8680    0.3650 ha        1 XX3      0.194000
@<TRIPOS>BOND
     1    1    2 1   
     2    1   14 1   
     3    2    3 1   
     4    2    5 1   
     5    2    9 1   
     6    3    4 1   
     7    4   15 1   
     8    5    6 1   
     9    5    7 1   
    10    7    8 1   
    11    7   16 1   
    12    8   17 1   
    13    9   10 1   
    14    9   18 1   
    15   10   11 1   
    16   11   12 1   
    17   11   13 1   
@<TRIPOS>SUBSTRUCTURE
     1 XX3         1 TEMP              0 ****  ****    0 ROOT
