@<TRIPOS>MOLECULE
XX3
   18    18     1     0     0
SMALL
bcc


@<TRIPOS>ATOM
      1 O8          1.1990   -0.1430    0.1830 oh        1 XX3     -0.564800
      2 C2         -0.2020   -0.2020    0.0530 c3        1 XX3      0.234800
      3 O12        -0.6040   -0.3630    1.4460 os        1 XX3     -0.208800
      4 O13        -1.6710    0.2780    1.7570 oh        1 XX3     -0.381000
      5 C1         -0.7540    1.0990   -0.5510 c         1 XX3      0.546300
      6 O7         -0.6480    2.1400    0.1040 o         1 XX3     -0.508100
      7 C6         -1.3650    1.0240   -1.8780 ce        1 XX3     -0.228200
      8 C5         -1.5700   -0.1440   -2.5100 cf        1 XX3     -0.036000
      9 C3         -0.5350   -1.4580   -0.7010 c2        1 XX3     -0.020200
     10 C4         -1.1730   -1.4040   -1.8910 cf        1 XX3     -0.157100
     11 N9         -1.4990   -2.6620   -2.6270 no        1 XX3      0.295100
     12 O10        -2.0520   -2.5790   -3.6900 o         1 XX3     -0.193500
     13 O11        -1.1980   -3.7130   -2.1350 o         1 XX3     -0.193500
     14 HO8         1.3990    0.5650    0.8150 ho        1 XX3      0.440000
     15 HO13       -1.4060    1.1650    2.1050 ho        1 XX3      0.420000
     16 H6         -1.6620    1.9870   -2.3270 ha        1 XX3      0.173000
     17 H5         -2.0450   -0.1890   -3.5080 ha        1 XX3      0.183000
     18 H31        -0.2220   -2.4000   -0.2140 ha        1 XX3      0.199000
@<TRIPOS>BOND
     1    1    2 1   
     2    1   14 1   
     3    2    3 1   
     4    2    5 1   
     5    2    9 1   
     6    3    4 1   
     7    4   15 1   
     8    5    6 2   
     9    5    7 1   
    10    7    8 2   
    11    7   16 1   
    12    8   10 1   
    13    8   17 1   
    14    9   10 2   
    15    9   18 1   
    16   10   11 1   
    17   11   12 1   
    18   11   13 1   
@<TRIPOS>SUBSTRUCTURE
     1 XX3         1 TEMP              0 ****  ****    0 ROOT
