@<TRIPOS>MOLECULE
XX3
   18    18     1     0     0
SMALL
bcc


@<TRIPOS>ATOM
      1 O8          0.1030   -2.1710   -3.6800 oh        1 XX3     -0.580800
      2 C2          0.6790   -0.9430   -3.2990 c3        1 XX3      0.223800
      3 O12         0.4370   -0.1020   -4.4620 os        1 XX3     -0.214800
      4 O13        -0.5950    0.6510   -4.3670 oh        1 XX3     -0.367000
      5 C1         -0.0760   -0.4680   -2.0480 c         1 XX3      0.580300
      6 O7         -1.2850   -0.2480   -2.1250 o         1 XX3     -0.469100
      7 C6          0.7070   -0.2940   -0.8200 ce        1 XX3     -0.213200
      8 C5          2.0400   -0.4510   -0.7780 cf        1 XX3     -0.054000
      9 C3          2.1730   -1.0400   -3.1640 c2        1 XX3     -0.073200
     10 C4          2.7810   -0.8150   -1.9800 cf        1 XX3     -0.133100
     11 N9          4.2660   -0.9380   -1.8610 no        1 XX3      0.292100
     12 O10         4.7810   -0.7040   -0.8030 o         1 XX3     -0.192500
     13 O11         4.8940   -1.2700   -2.8280 o         1 XX3     -0.192500
     14 HO8         0.4660   -2.4110   -4.5460 ho        1 XX3      0.432000
     15 HO13       -1.4060    0.0980   -4.4730 ho        1 XX3      0.420000
     16 H6          0.1270   -0.0180    0.0770 ha        1 XX3      0.175000
     17 H5          2.6130   -0.3080    0.1570 ha        1 XX3      0.182000
     18 H31         2.7240   -1.3050   -4.0840 ha        1 XX3      0.185000
@<TRIPOS>BOND
     1    1    2 1   
     2    1   14 1   
     3    2    3 1   
     4    2    5 1   
     5    2    9 1   
     6    3    4 1   
     7    4   15 1   
     8    5    6 2   
     9    5    7 1   
    10    7    8 2   
    11    7   16 1   
    12    8   10 1   
    13    8   17 1   
    14    9   10 2   
    15    9   18 1   
    16   10   11 1   
    17   11   12 1   
    18   11   13 1   
@<TRIPOS>SUBSTRUCTURE
     1 XX3         1 TEMP              0 ****  ****    0 ROOT
