@<TRIPOS>MOLECULE
XX4
   63    66     1     0     0
SMALL
bcc


@<TRIPOS>ATOM
      1 C01        -0.7670    0.8820    0.2470 c3        1 XX4      0.082100
      2 N02         0.3890   -0.0410    0.1280 n4        1 XX4     -0.594200
      3 C03         1.1520    0.1900   -1.1530 c         1 XX4      0.578100
      4 O04         1.2990    1.3490   -1.5320 o         1 XX4     -0.490100
      5 C05         1.6770   -1.0380   -1.8430 c3        1 XX4     -0.168400
      6 C06         2.3840   -0.6840   -3.1570 c3        1 XX4      0.157800
      7 N07         1.4520   -0.1730   -4.1610 nh        1 XX4     -0.708600
      8 C08         0.8730   -1.2120   -5.0260 c3        1 XX4      0.203100
      9 C09         1.6140   -1.4620   -6.3050 ca        1 XX4     -0.130300
     10 C10         1.5160   -2.6720   -6.9730 ca        1 XX4     -0.075000
     11 C11         2.1550   -2.8430   -8.2150 ca        1 XX4     -0.084600
     12 C12         1.9740   -4.1460   -8.9250 c         1 XX4      0.581300
     13 O13         0.9070   -4.7550   -8.7840 o         1 XX4     -0.498100
     14 C14         3.0730   -4.6380   -9.7670 ca        1 XX4     -0.192600
     15 C15         2.7630   -5.4650  -10.8570 ca        1 XX4     -0.082000
     16 C16         3.7820   -5.9640  -11.6670 ca        1 XX4     -0.133500
     17 C17         5.1120   -5.6570  -11.3860 ca        1 XX4     -0.079000
     18 C18         5.4270   -4.8470  -10.2910 ca        1 XX4     -0.133500
     19 C19         4.4130   -4.3370   -9.4850 ca        1 XX4     -0.082000
     20 C20         2.8810   -1.7920   -8.7790 ca        1 XX4     -0.091000
     21 C21         2.9940   -0.5660   -8.1210 ca        1 XX4     -0.034000
     22 C22         2.3650   -0.3920   -6.8720 ca        1 XX4      0.066400
     23 N23         2.4350    0.8450   -6.2110 ne        1 XX4     -0.456100
     24 C24         2.0140    0.8940   -4.9690 c2        1 XX4      0.546100
     25 N25         1.9940    2.2400   -4.3150 n4        1 XX4     -0.779600
     26 C26         1.3380    0.0430    1.3230 c3        1 XX4      0.134500
     27 C27         1.6840    1.4820    1.7130 c3        1 XX4     -0.097400
     28 C28         2.7350    1.4540    2.8090 c3        1 XX4     -0.080400
     29 C29         2.2520    0.6750    4.0140 c3        1 XX4     -0.094400
     30 C30         1.8190   -0.7250    3.6350 c3        1 XX4     -0.080400
     31 C31         0.7710   -0.7080    2.5350 c3        1 XX4     -0.097400
     32 H011       -1.2470    0.7430    1.2550 hx        1 XX4      0.113367
     33 H012       -1.5110    0.6520   -0.5610 hx        1 XX4      0.113367
     34 H013       -0.4160    1.9450    0.1450 hx        1 XX4      0.113367
     35 H051        2.4240   -1.5490   -1.1710 hc        1 XX4      0.120700
     36 H052        0.8330   -1.7580   -2.0350 hc        1 XX4      0.120700
     37 H061        2.9030   -1.6240   -3.5140 h1        1 XX4      0.084200
     38 H062        3.1870    0.0750   -2.9350 h1        1 XX4      0.084200
     39 H081       -0.1720   -0.8620   -5.2820 h1        1 XX4      0.094700
     40 H082        0.7850   -2.1670   -4.4330 h1        1 XX4      0.094700
     41 H10         0.9180   -3.5040   -6.5630 ha        1 XX4      0.176000
     42 H15         1.7090   -5.7190  -11.0630 ha        1 XX4      0.141000
     43 H16         3.5320   -6.6080  -12.5250 ha        1 XX4      0.152500
     44 H17         5.9180   -6.0560  -12.0230 ha        1 XX4      0.155000
     45 H18         6.4790   -4.6170  -10.0630 ha        1 XX4      0.152500
     46 H19         4.6680   -3.7130   -8.6160 ha        1 XX4      0.141000
     47 H20         3.3660   -1.9270   -9.7630 ha        1 XX4      0.186000
     48 H21         3.5720    0.2540   -8.5800 ha        1 XX4      0.176000
     49 H251        1.0270    2.5850   -4.3180 hn        1 XX4      0.477467
     50 H252        2.3210    2.1640   -3.3450 hn        1 XX4      0.477467
     51 H26         2.2830   -0.4840    0.9860 hx        1 XX4      0.089700
     52 H271        2.0720    2.0460    0.8250 hc        1 XX4      0.067200
     53 H272        0.7700    2.0110    2.0940 hc        1 XX4      0.067200
     54 H281        2.9650    2.5110    3.1110 hc        1 XX4      0.072950
     55 H282        3.6830    1.0020    2.4170 hc        1 XX4      0.072950
     56 H291        1.3970    1.2180    4.4980 hc        1 XX4      0.077200
     57 H292        3.0790    0.6140    4.7730 hc        1 XX4      0.077200
     58 H301        2.7080   -1.3230    3.3020 hc        1 XX4      0.072950
     59 H302        1.3840   -1.2420    4.5320 hc        1 XX4      0.072950
     60 H311        0.5060   -1.7630    2.2610 hc        1 XX4      0.067200
     61 H312       -0.1540   -0.1990    2.9120 hc        1 XX4      0.067200
     62 H021        0.0250   -1.0050    0.1110 hn        1 XX4      0.457800
     63 H253        2.5920    2.8970   -4.8360 hn        1 XX4      0.477467
@<TRIPOS>BOND
     1    1    2 1   
     2    1   32 1   
     3    1   33 1   
     4    1   34 1   
     5    2    3 1   
     6    2   26 1   
     7    2   62 1   
     8    3    4 2   
     9    3    5 1   
    10    5    6 1   
    11    5   35 1   
    12    5   36 1   
    13    6    7 1   
    14    6   37 1   
    15    6   38 1   
    16    7    8 1   
    17    7   24 1   
    18    8    9 1   
    19    8   39 1   
    20    8   40 1   
    21    9   10 ar  
    22    9   22 ar  
    23   10   11 ar  
    24   10   41 1   
    25   11   12 1   
    26   11   20 ar  
    27   12   13 2   
    28   12   14 1   
    29   14   15 ar  
    30   14   19 ar  
    31   15   16 ar  
    32   15   42 1   
    33   16   17 ar  
    34   16   43 1   
    35   17   18 ar  
    36   17   44 1   
    37   18   19 ar  
    38   18   45 1   
    39   19   46 1   
    40   20   21 ar  
    41   20   47 1   
    42   21   22 ar  
    43   21   48 1   
    44   22   23 1   
    45   23   24 2   
    46   24   25 1   
    47   25   49 1   
    48   25   50 1   
    49   25   63 1   
    50   26   27 1   
    51   26   31 1   
    52   26   51 1   
    53   27   28 1   
    54   27   52 1   
    55   27   53 1   
    56   28   29 1   
    57   28   54 1   
    58   28   55 1   
    59   29   30 1   
    60   29   56 1   
    61   29   57 1   
    62   30   31 1   
    63   30   58 1   
    64   30   59 1   
    65   31   60 1   
    66   31   61 1   
@<TRIPOS>SUBSTRUCTURE
     1 XX4         1 TEMP              0 ****  ****    0 ROOT
