@<TRIPOS>MOLECULE
XX4
   63    66     1     0     0
SMALL
bcc


@<TRIPOS>ATOM
      1 C01        -0.7790    0.8200    0.2650 c3        1 XX4      0.082100
      2 N02         0.4040   -0.0670    0.1400 n4        1 XX4     -0.594200
      3 C03         1.1450    0.1780   -1.1510 c         1 XX4      0.578100
      4 O04         1.2530    1.3380   -1.5400 o         1 XX4     -0.490100
      5 C05         1.7000   -1.0380   -1.8390 c3        1 XX4     -0.168400
      6 C06         2.3800   -0.6720   -3.1640 c3        1 XX4      0.157800
      7 N07         1.4210   -0.1960   -4.1590 nh        1 XX4     -0.708600
      8 C08         0.8630   -1.2580   -5.0100 c3        1 XX4      0.203100
      9 C09         1.5960   -1.4960   -6.2970 ca        1 XX4     -0.130300
     10 C10         1.5260   -2.7120   -6.9560 ca        1 XX4     -0.075000
     11 C11         2.1550   -2.8730   -8.2040 ca        1 XX4     -0.085600
     12 C12         2.0030   -4.1860   -8.9030 c         1 XX4      0.581300
     13 O13         0.9580   -4.8270   -8.7430 o         1 XX4     -0.498100
     14 C14         3.1050   -4.6500   -9.7570 ca        1 XX4     -0.192600
     15 C15         2.8050   -5.4920  -10.8380 ca        1 XX4     -0.082000
     16 C16         3.8280   -5.9650  -11.6590 ca        1 XX4     -0.133500
     17 C17         5.1530   -5.6170  -11.3980 ca        1 XX4     -0.079000
     18 C18         5.4570   -4.7920  -10.3120 ca        1 XX4     -0.133500
     19 C19         4.4390   -4.3080   -9.4950 ca        1 XX4     -0.082000
     20 C20         2.8410   -1.8050   -8.7840 ca        1 XX4     -0.091000
     21 C21         2.9260   -0.5710   -8.1350 ca        1 XX4     -0.034000
     22 C22         2.3070   -0.4080   -6.8800 ca        1 XX4      0.066400
     23 N23         2.3480    0.8350   -6.2280 ne        1 XX4     -0.456100
     24 C24         1.9420    0.8800   -4.9820 c2        1 XX4      0.546100
     25 N25         1.8900    2.2300   -4.3370 n4        1 XX4     -0.779600
     26 C26         1.3620    0.0560    1.3240 c3        1 XX4      0.134500
     27 C27         1.6660    1.5080    1.7000 c3        1 XX4     -0.097400
     28 C28         2.7290    1.5220    2.7840 c3        1 XX4     -0.080400
     29 C29         2.2850    0.7370    4.0000 c3        1 XX4     -0.094400
     30 C30         1.8930   -0.6780    3.6350 c3        1 XX4     -0.080400
     31 C31         0.8340   -0.7040    2.5470 c3        1 XX4     -0.097400
     32 H011       -1.2440    0.6740    1.2790 hx        1 XX4      0.113367
     33 H012       -0.4630    1.8930    0.1500 hx        1 XX4      0.113367
     34 H013       -1.5240    0.5600   -0.5340 hx        1 XX4      0.113367
     35 H051        2.4690   -1.5210   -1.1720 hc        1 XX4      0.120700
     36 H052        0.8760   -1.7850   -2.0160 hc        1 XX4      0.120700
     37 H061        3.1620    0.1120   -2.9560 h1        1 XX4      0.084200
     38 H062        2.9230   -1.5990   -3.5210 h1        1 XX4      0.084200
     39 H081        0.8110   -2.2110   -4.4100 h1        1 XX4      0.094200
     40 H082       -0.1950   -0.9420   -5.2560 h1        1 XX4      0.094200
     41 H10         0.9580   -3.5590   -6.5320 ha        1 XX4      0.176000
     42 H15         1.7580   -5.7790  -11.0280 ha        1 XX4      0.141000
     43 H16         3.5870   -6.6210  -12.5110 ha        1 XX4      0.152500
     44 H17         5.9610   -5.9950  -12.0440 ha        1 XX4      0.155000
     45 H18         6.5050   -4.5290  -10.1000 ha        1 XX4      0.152500
     46 H19         4.6870   -3.6710   -8.6330 ha        1 XX4      0.141000
     47 H20         3.3180   -1.9320   -9.7730 ha        1 XX4      0.186000
     48 H21         3.4740    0.2620   -8.6070 ha        1 XX4      0.176000
     49 H251        0.9130    2.5470   -4.3310 hn        1 XX4      0.477467
     50 H252        2.2290    2.1710   -3.3690 hn        1 XX4      0.477467
     51 H26         2.3200   -0.4430    0.9800 hx        1 XX4      0.089700
     52 H271        0.7410    2.0110    2.0870 hc        1 XX4      0.067200
     53 H272        2.0260    2.0780    0.8030 hc        1 XX4      0.067200
     54 H281        3.6880    1.0990    2.3840 hc        1 XX4      0.072950
     55 H282        2.9290    2.5880    3.0760 hc        1 XX4      0.072950
     56 H291        3.1210    0.7090    4.7500 hc        1 XX4      0.077200
     57 H292        1.4180    1.2560    4.4900 hc        1 XX4      0.077200
     58 H301        2.7970   -1.2500    3.2980 hc        1 XX4      0.072950
     59 H302        1.4840   -1.2020    4.5420 hc        1 XX4      0.072950
     60 H311       -0.1040   -0.2210    2.9300 hc        1 XX4      0.067200
     61 H312        0.5990   -1.7680    2.2840 hc        1 XX4      0.067200
     62 H021        0.0710   -1.0420    0.1340 hn        1 XX4      0.457800
     63 H253        2.4620    2.9010   -4.8680 hn        1 XX4      0.477467
@<TRIPOS>BOND
     1    1    2 1   
     2    1   32 1   
     3    1   33 1   
     4    1   34 1   
     5    2    3 1   
     6    2   26 1   
     7    2   62 1   
     8    3    4 2   
     9    3    5 1   
    10    5    6 1   
    11    5   35 1   
    12    5   36 1   
    13    6    7 1   
    14    6   37 1   
    15    6   38 1   
    16    7    8 1   
    17    7   24 1   
    18    8    9 1   
    19    8   39 1   
    20    8   40 1   
    21    9   10 ar  
    22    9   22 ar  
    23   10   11 ar  
    24   10   41 1   
    25   11   12 1   
    26   11   20 ar  
    27   12   13 2   
    28   12   14 1   
    29   14   15 ar  
    30   14   19 ar  
    31   15   16 ar  
    32   15   42 1   
    33   16   17 ar  
    34   16   43 1   
    35   17   18 ar  
    36   17   44 1   
    37   18   19 ar  
    38   18   45 1   
    39   19   46 1   
    40   20   21 ar  
    41   20   47 1   
    42   21   22 ar  
    43   21   48 1   
    44   22   23 1   
    45   23   24 2   
    46   24   25 1   
    47   25   49 1   
    48   25   50 1   
    49   25   63 1   
    50   26   27 1   
    51   26   31 1   
    52   26   51 1   
    53   27   28 1   
    54   27   52 1   
    55   27   53 1   
    56   28   29 1   
    57   28   54 1   
    58   28   55 1   
    59   29   30 1   
    60   29   56 1   
    61   29   57 1   
    62   30   31 1   
    63   30   58 1   
    64   30   59 1   
    65   31   60 1   
    66   31   61 1   
@<TRIPOS>SUBSTRUCTURE
     1 XX4         1 TEMP              0 ****  ****    0 ROOT
