@<TRIPOS>MOLECULE
XX4
   61    64     1     0     0
SMALL
bcc


@<TRIPOS>ATOM
      1 C01         4.3630    0.4790    1.7340 c3        1 XX4      0.080300
      2 N02         4.6120   -0.1070    0.4500 n         1 XX4     -0.472800
      3 C03         3.6580   -0.0300   -0.5550 c         1 XX4      0.663100
      4 O04         3.8810   -0.4920   -1.6940 o         1 XX4     -0.619100
      5 C05         2.3270    0.6180   -0.2220 c3        1 XX4     -0.186400
      6 C06         1.4520    0.6640   -1.4770 c3        1 XX4      0.210800
      7 N07         0.1420    1.2520   -1.3110 nh        1 XX4     -0.758600
      8 C08        -0.8650    0.3310   -0.8040 c3        1 XX4      0.260100
      9 C09        -2.0960    0.9630   -0.2360 ca        1 XX4     -0.179300
     10 C10        -3.1520    0.1580    0.1820 ca        1 XX4     -0.062000
     11 C11        -4.3060    0.7350    0.7190 ca        1 XX4     -0.195600
     12 C12        -5.4360   -0.0890    1.1920 c         1 XX4      0.592300
     13 O13        -6.1780    0.3000    2.1060 o         1 XX4     -0.534100
     14 C14        -5.6560   -1.4010    0.5410 ca        1 XX4     -0.165600
     15 C15        -6.1290   -2.4730    1.3100 ca        1 XX4     -0.088000
     16 C16        -6.3600   -3.7120    0.7160 ca        1 XX4     -0.143000
     17 C17        -6.1380   -3.8840   -0.6500 ca        1 XX4     -0.108000
     18 C18        -5.6830   -2.8150   -1.4230 ca        1 XX4     -0.143000
     19 C19        -5.4390   -1.5770   -0.8310 ca        1 XX4     -0.088000
     20 C20        -4.3830    2.1320    0.8420 ca        1 XX4     -0.062000
     21 C21        -3.3410    2.9460    0.4230 ca        1 XX4     -0.139000
     22 C22        -2.1680    2.3720   -0.1240 ca        1 XX4      0.217400
     23 N23        -1.1190    3.1970   -0.5300 ne        1 XX4     -0.703100
     24 C24        -0.0050    2.6360   -1.0130 c2        1 XX4      0.809100
     25 N25         1.1010    3.4940   -1.2600 nh        1 XX4     -0.884800
     26 C26         5.9210   -0.6830    0.1780 c3        1 XX4      0.098700
     27 C27         7.0690    0.3300    0.3420 c3        1 XX4     -0.087900
     28 C28         8.3830   -0.3000   -0.0680 c3        1 XX4     -0.076400
     29 C29         8.6740   -1.5520    0.7330 c3        1 XX4     -0.079400
     30 C30         7.5340   -2.5440    0.6250 c3        1 XX4     -0.076400
     31 C31         6.2170   -1.9230    1.0410 c3        1 XX4     -0.087900
     32 H011        4.2850    1.5980    1.6560 h1        1 XX4      0.039700
     33 H012        3.4020    0.0860    2.1650 h1        1 XX4      0.039700
     34 H013        5.1970    0.2290    2.4410 h1        1 XX4      0.039700
     35 H051        1.8180    0.0220    0.5820 hc        1 XX4      0.078700
     36 H052        2.5010    1.6530    0.1750 hc        1 XX4      0.078700
     37 H061        2.0090    1.2110   -2.2910 h1        1 XX4      0.073700
     38 H062        1.3080   -0.3930   -1.8490 h1        1 XX4      0.073700
     39 H081       -1.1560   -0.3290   -1.6760 h1        1 XX4      0.046700
     40 H082       -0.4120   -0.3390   -0.0120 h1        1 XX4      0.046700
     41 H10        -3.0750   -0.9380    0.0920 ha        1 XX4      0.140000
     42 H15        -6.3220   -2.3210    2.3840 ha        1 XX4      0.146500
     43 H16        -6.7260   -4.5520    1.3250 ha        1 XX4      0.135500
     44 H17        -6.3270   -4.8610   -1.1200 ha        1 XX4      0.134000
     45 H18        -5.5180   -2.9470   -2.5020 ha        1 XX4      0.135500
     46 H19        -5.0830   -0.7330   -1.4420 ha        1 XX4      0.146500
     47 H20        -5.2890    2.5780    1.2850 ha        1 XX4      0.152000
     48 H21        -3.4210    4.0400    0.5220 ha        1 XX4      0.152000
     49 H251        1.6270    3.2670   -2.0760 hn        1 XX4      0.410300
     50 H252        0.8710    4.4660   -1.2060 hn        1 XX4      0.410300
     51 H26         5.9170   -1.0190   -0.9060 h1        1 XX4      0.093700
     52 H271        6.8740    1.2320   -0.2940 hc        1 XX4      0.044200
     53 H272        7.1310    0.6710    1.4080 hc        1 XX4      0.044200
     54 H281        8.3520   -0.5530   -1.1610 hc        1 XX4      0.044200
     55 H282        9.2100    0.4420    0.0820 hc        1 XX4      0.044200
     56 H291        9.6200   -2.0250    0.3610 hc        1 XX4      0.041200
     57 H292        8.8330   -1.2800    1.8090 hc        1 XX4      0.041200
     58 H301        7.4580   -2.9140   -0.4310 hc        1 XX4      0.044200
     59 H302        7.7460   -3.4310    1.2780 hc        1 XX4      0.044200
     60 H311        6.2620   -1.6390    2.1240 hc        1 XX4      0.044200
     61 H312        5.3960   -2.6760    0.9180 hc        1 XX4      0.044200
@<TRIPOS>BOND
     1    1    2 1   
     2    1   32 1   
     3    1   33 1   
     4    1   34 1   
     5    2    3 1   
     6    2   26 1   
     7    3    4 2   
     8    3    5 1   
     9    5    6 1   
    10    5   35 1   
    11    5   36 1   
    12    6    7 1   
    13    6   37 1   
    14    6   38 1   
    15    7    8 1   
    16    7   24 1   
    17    8    9 1   
    18    8   39 1   
    19    8   40 1   
    20    9   10 ar  
    21    9   22 ar  
    22   10   11 ar  
    23   10   41 1   
    24   11   12 1   
    25   11   20 ar  
    26   12   13 2   
    27   12   14 1   
    28   14   15 ar  
    29   14   19 ar  
    30   15   16 ar  
    31   15   42 1   
    32   16   17 ar  
    33   16   43 1   
    34   17   18 ar  
    35   17   44 1   
    36   18   19 ar  
    37   18   45 1   
    38   19   46 1   
    39   20   21 ar  
    40   20   47 1   
    41   21   22 ar  
    42   21   48 1   
    43   22   23 1   
    44   23   24 2   
    45   24   25 1   
    46   25   49 1   
    47   25   50 1   
    48   26   27 1   
    49   26   31 1   
    50   26   51 1   
    51   27   28 1   
    52   27   52 1   
    53   27   53 1   
    54   28   29 1   
    55   28   54 1   
    56   28   55 1   
    57   29   30 1   
    58   29   56 1   
    59   29   57 1   
    60   30   31 1   
    61   30   58 1   
    62   30   59 1   
    63   31   60 1   
    64   31   61 1   
@<TRIPOS>SUBSTRUCTURE
     1 XX4         1 TEMP              0 ****  ****    0 ROOT
