@<TRIPOS>MOLECULE
XX4
   63    66     1     0     0
SMALL
bcc


@<TRIPOS>ATOM
      1 C01        -0.7820    0.8310    0.2570 c3        1 XX4      0.082100
      2 N02         0.3880   -0.0740    0.1340 nx        1 XX4     -0.594200
      3 C03         1.1450    0.1720   -1.1480 c         1 XX4      0.578100
      4 O04         1.2740    1.3330   -1.5250 o         1 XX4     -0.490100
      5 C05         1.6860   -1.0470   -1.8410 c3        1 XX4     -0.168400
      6 C06         2.3850   -0.6800   -3.1570 c3        1 XX4      0.157800
      7 N07         1.4420   -0.1800   -4.1570 nh        1 XX4     -0.708600
      8 C08         0.8750   -1.2260   -5.0220 c3        1 XX4      0.203100
      9 C09         1.6150   -1.4630   -6.3040 ca        1 XX4     -0.130300
     10 C10         1.5320   -2.6730   -6.9750 ca        1 XX4     -0.075000
     11 C11         2.1690   -2.8320   -8.2190 ca        1 XX4     -0.085600
     12 C12         2.0030   -4.1360   -8.9310 c         1 XX4      0.581300
     13 O13         0.9460   -4.7620   -8.7860 o         1 XX4     -0.498100
     14 C14         3.1050   -4.6100   -9.7800 ca        1 XX4     -0.192600
     15 C15         2.8010   -5.4370  -10.8720 ca        1 XX4     -0.082000
     16 C16         3.8230   -5.9190  -11.6880 ca        1 XX4     -0.133500
     17 C17         5.1510   -5.5940  -11.4120 ca        1 XX4     -0.079000
     18 C18         5.4590   -4.7850  -10.3150 ca        1 XX4     -0.133500
     19 C19         4.4420   -4.2920   -9.5030 ca        1 XX4     -0.082000
     20 C20         2.8780   -1.7700   -8.7830 ca        1 XX4     -0.091000
     21 C21         2.9760   -0.5440   -8.1220 ca        1 XX4     -0.034000
     22 C22         2.3490   -0.3820   -6.8710 ca        1 XX4      0.066400
     23 N23         2.4040    0.8550   -6.2080 ne        1 XX4     -0.456100
     24 C24         1.9870    0.8950   -4.9650 c2        1 XX4      0.546100
     25 N25         1.9510    2.2390   -4.3080 nz        1 XX4     -0.779600
     26 C26         1.3370    0.0250    1.3280 c3        1 XX4      0.134500
     27 C27         1.6600    1.4680    1.7190 c3        1 XX4     -0.097400
     28 C28         2.7130    1.4560    2.8140 c3        1 XX4     -0.080400
     29 C29         2.2450    0.6680    4.0190 c3        1 XX4     -0.094400
     30 C30         1.8350   -0.7390    3.6380 c3        1 XX4     -0.080400
     31 C31         0.7860   -0.7380    2.5390 c3        1 XX4     -0.097400
     32 H011       -0.4490    1.8990    0.1540 hx        1 XX4      0.113367
     33 H012       -1.2590    0.6830    1.2640 hx        1 XX4      0.113367
     34 H013       -1.5240    0.5900   -0.5510 hx        1 XX4      0.113367
     35 H051        2.4430   -1.5480   -1.1730 hc        1 XX4      0.120700
     36 H052        0.8530   -1.7790   -2.0330 hc        1 XX4      0.120700
     37 H061        3.1770    0.0900   -2.9360 h1        1 XX4      0.084200
     38 H062        2.9160   -1.6120   -3.5170 h1        1 XX4      0.084200
     39 H081       -0.1760   -0.8900   -5.2740 h1        1 XX4      0.094200
     40 H082        0.8020   -2.1830   -4.4310 h1        1 XX4      0.094200
     41 H10         0.9470   -3.5140   -6.5640 ha        1 XX4      0.176000
     42 H15         1.7510   -5.7050  -11.0730 ha        1 XX4      0.141000
     43 H16         3.5790   -6.5630  -12.5480 ha        1 XX4      0.152500
     44 H17         5.9590   -5.9800  -12.0540 ha        1 XX4      0.155000
     45 H18         6.5090   -4.5400  -10.0920 ha        1 XX4      0.152500
     46 H19         4.6930   -3.6670   -8.6330 ha        1 XX4      0.141000
     47 H20         3.3620   -1.8960   -9.7690 ha        1 XX4      0.186000
     48 H21         3.5420    0.2850   -8.5820 ha        1 XX4      0.176000
     49 H251        2.5380    2.9060   -4.8290 hn        1 XX4      0.477467
     50 H252        0.9790    2.5720   -4.3080 hn        1 XX4      0.477467
     51 H26         2.2900   -0.4860    0.9890 hx        1 XX4      0.089700
     52 H271        2.0370    2.0400    0.8310 hc        1 XX4      0.067200
     53 H272        0.7390    1.9820    2.1030 hc        1 XX4      0.067200
     54 H281        3.6680    1.0210    2.4190 hc        1 XX4      0.072950
     55 H282        2.9260    2.5170    3.1160 hc        1 XX4      0.072950
     56 H291        1.3830    1.1960    4.5050 hc        1 XX4      0.077200
     57 H292        3.0740    0.6200    4.7750 hc        1 XX4      0.077200
     58 H301        1.4100   -1.2640    4.5350 hc        1 XX4      0.072950
     59 H302        2.7330   -1.3220    3.3030 hc        1 XX4      0.072950
     60 H311       -0.1480   -0.2440    2.9180 hc        1 XX4      0.067200
     61 H312        0.5370   -1.7970    2.2640 hc        1 XX4      0.067200
     62 H021        0.0400   -1.0440    0.1170 hn        1 XX4      0.457800
     63 H253        2.2800    2.1670   -3.3380 hn        1 XX4      0.477467
@<TRIPOS>BOND
     1    1    2 1   
     2    1   32 1   
     3    1   33 1   
     4    1   34 1   
     5    2    3 1   
     6    2   26 1   
     7    2   62 1   
     8    3    4 2   
     9    3    5 1   
    10    5    6 1   
    11    5   35 1   
    12    5   36 1   
    13    6    7 1   
    14    6   37 1   
    15    6   38 1   
    16    7    8 1   
    17    7   24 1   
    18    8    9 1   
    19    8   39 1   
    20    8   40 1   
    21    9   10 ar  
    22    9   22 ar  
    23   10   11 ar  
    24   10   41 1   
    25   11   12 1   
    26   11   20 ar  
    27   12   13 2   
    28   12   14 1   
    29   14   15 ar  
    30   14   19 ar  
    31   15   16 ar  
    32   15   42 1   
    33   16   17 ar  
    34   16   43 1   
    35   17   18 ar  
    36   17   44 1   
    37   18   19 ar  
    38   18   45 1   
    39   19   46 1   
    40   20   21 ar  
    41   20   47 1   
    42   21   22 ar  
    43   21   48 1   
    44   22   23 1   
    45   23   24 2   
    46   24   25 1   
    47   25   49 1   
    48   25   50 1   
    49   25   63 1   
    50   26   27 1   
    51   26   31 1   
    52   26   51 1   
    53   27   28 1   
    54   27   52 1   
    55   27   53 1   
    56   28   29 1   
    57   28   54 1   
    58   28   55 1   
    59   29   30 1   
    60   29   56 1   
    61   29   57 1   
    62   30   31 1   
    63   30   58 1   
    64   30   59 1   
    65   31   60 1   
    66   31   61 1   
@<TRIPOS>SUBSTRUCTURE
     1 XX4         1 TEMP              0 ****  ****    0 ROOT
