@<TRIPOS>MOLECULE
XX5
   49    50     1     0     0
SMALL
bcc


@<TRIPOS>ATOM
      1 O1          2.2130    0.0060    1.4860 o         1 XX5     -0.868800
      2 C2          2.8280   -0.3850    2.5230 c         1 XX5      0.868600
      3 O3          4.0430   -0.0690    2.7290 o         1 XX5     -0.868800
      4 C4          2.0900   -1.2100    3.6150 c3        1 XX5      0.080500
      5 C5          2.5380   -2.6700    3.4270 c3        1 XX5     -0.050400
      6 C6          2.1230   -3.6530    4.5110 c3        1 XX5     -0.037700
      7 C7          2.2700   -3.0810    5.9050 c3        1 XX5     -0.093600
      8 C8          0.7130   -4.1720    4.3190 c3        1 XX5     -0.093600
      9 N9          0.6420   -1.0790    3.6090 n3        1 XX5     -0.815200
     10 C10         0.0460   -0.2690    4.6560 c3        1 XX5      0.073500
     11 C11        -1.2060   -1.0180    5.2440 c         1 XX5      0.925600
     12 O12        -0.9910   -1.8280    6.1890 o         1 XX5     -0.853800
     13 O13        -2.3550   -0.7580    4.7870 o         1 XX5     -0.853800
     14 C14        -0.3810    1.1580    4.2320 c3        1 XX5     -0.056100
     15 C15         0.3280    2.2290    4.9630 cc        1 XX5     -0.141900
     16 C16        -0.0650    2.8940    6.1510 cd        1 XX5      0.245200
     17 N17         0.8830    3.8410    6.5210 nd        1 XX5     -0.703000
     18 C18         1.8530    3.7680    5.5820 cc        1 XX5      0.331400
     19 N19         1.5520    2.8130    4.5990 na        1 XX5     -0.185900
     20 C20         2.3880    2.3840    3.5200 c3        1 XX5      0.022600
     21 C21         3.0580    3.4270    2.6770 ca        1 XX5     -0.046300
     22 C22         2.8190    4.7980    2.7620 ca        1 XX5     -0.113500
     23 C23         3.5110    5.6690    1.9130 ca        1 XX5      0.014900
     24 CL24        3.2270    7.3530    2.0220 cl        1 XX5     -0.134900
     25 C25         4.4290    5.1970    0.9770 ca        1 XX5     -0.152000
     26 C26         3.9700    2.9240    1.7270 ca        1 XX5     -0.113500
     27 C27         4.6440    3.8140    0.8960 ca        1 XX5      0.014900
     28 CL28        5.7620    3.2340   -0.2550 cl        1 XX5     -0.134900
     29 HC4         2.5060   -0.8590    4.6060 h1        1 XX5      0.041700
     30 HC51        2.1660   -3.0420    2.4370 hc        1 XX5      0.028700
     31 HC52        3.6600   -2.6450    3.3810 hc        1 XX5      0.028700
     32 HC6         2.8270   -4.5350    4.4220 hc        1 XX5     -0.017300
     33 HC71        3.2510   -2.5620    6.0180 hc        1 XX5      0.035033
     34 HC72        1.4380   -2.3540    6.1090 hc        1 XX5      0.035033
     35 HC73        2.2120   -3.8990    6.6630 hc        1 XX5      0.035033
     36 HC81       -0.0360   -3.3980    4.6370 hc        1 XX5      0.035033
     37 HC82        0.5300   -4.4350    3.2500 hc        1 XX5      0.035033
     38 HC83        0.5570   -5.0890    4.9400 hc        1 XX5      0.035033
     39 HN9         0.3270   -0.7970    2.7000 hn        1 XX5      0.374800
     40 H10         0.7690   -0.1780    5.5190 h1        1 XX5      0.043700
     41 H141       -0.2610    1.3010    3.1240 hc        1 XX5      0.070200
     42 H142       -1.4810    1.2650    4.4540 hc        1 XX5      0.070200
     43 H16        -0.9610    2.7070    6.7390 h4        1 XX5      0.035100
     44 H18         2.7720    4.3570    5.5600 h5        1 XX5      0.039100
     45 H201        1.7640    1.7380    2.8140 h1        1 XX5      0.135200
     46 H202        3.1970    1.6960    3.9290 h1        1 XX5      0.135200
     47 H22         2.0880    5.2010    3.4800 ha        1 XX5      0.203000
     48 H25         4.9670    5.8890    0.3160 ha        1 XX5      0.135000
     49 H26         4.1110    1.8130    1.6640 ha        1 XX5      0.203000
@<TRIPOS>BOND
     1    1    2 1   
     2    2    3 1   
     3    2    4 1   
     4    4    5 1   
     5    4    9 1   
     6    4   29 1   
     7    5    6 1   
     8    5   30 1   
     9    5   31 1   
    10    6    7 1   
    11    6    8 1   
    12    6   32 1   
    13    7   33 1   
    14    7   34 1   
    15    7   35 1   
    16    8   36 1   
    17    8   37 1   
    18    8   38 1   
    19    9   10 1   
    20    9   39 1   
    21   10   11 1   
    22   10   14 1   
    23   10   40 1   
    24   11   12 1   
    25   11   13 1   
    26   14   15 1   
    27   14   41 1   
    28   14   42 1   
    29   15   16 2   
    30   15   19 1   
    31   16   17 1   
    32   16   43 1   
    33   17   18 2   
    34   18   19 1   
    35   18   44 1   
    36   19   20 1   
    37   20   21 1   
    38   20   45 1   
    39   20   46 1   
    40   21   22 ar  
    41   21   26 ar  
    42   22   23 ar  
    43   22   47 1   
    44   23   24 1   
    45   23   25 ar  
    46   25   27 ar  
    47   25   48 1   
    48   26   27 ar  
    49   26   49 1   
    50   27   28 1   
@<TRIPOS>SUBSTRUCTURE
     1 XX5         1 TEMP              0 ****  ****    0 ROOT
