@<TRIPOS>MOLECULE
XX5
   50    51     1     0     0
SMALL
bcc


@<TRIPOS>ATOM
      1 O1         -1.1170   -0.2440    3.1030 o         1 XX5     -0.805300
      2 C2         -0.3530   -0.3930    2.1040 c         1 XX5      0.912600
      3 O3         -0.6880   -0.8140    0.9750 o         1 XX5     -0.805300
      4 C4          1.1550    0.0480    2.2760 c3        1 XX5     -0.030500
      5 C5          2.0440   -1.1320    1.8980 c3        1 XX5     -0.084400
      6 C6          3.5080   -0.8310    1.6210 c3        1 XX5     -0.074700
      7 C7          3.6900    0.3270    0.6640 c3        1 XX5     -0.100600
      8 C8          4.3230   -0.6210    2.8800 c3        1 XX5     -0.100600
      9 N9          1.4010    0.5570    3.6560 ny        1 XX5     -0.740000
     10 C10         1.7860    1.9960    3.7640 c3        1 XX5     -0.036500
     11 C11         2.7400    2.1920    5.0250 c         1 XX5      0.918600
     12 O12         2.8730    3.3580    5.4500 o         1 XX5     -0.790800
     13 O13         3.3070    1.1500    5.4540 o         1 XX5     -0.790800
     14 C14         0.5870    2.9430    3.8330 c3        1 XX5     -0.020100
     15 C15         0.3810    3.6850    2.5710 cc        1 XX5     -0.194900
     16 C16         1.2240    4.6630    1.9930 cd        1 XX5      0.283200
     17 N17         0.6560    5.1670    0.8280 nd        1 XX5     -0.681000
     18 C18        -0.5210    4.5200    0.6870 cc        1 XX5      0.365400
     19 N19        -0.7350    3.5980    1.7240 na        1 XX5     -0.190900
     20 C20        -1.8730    2.7360    1.8520 c3        1 XX5      0.059600
     21 C21        -2.8470    3.1080    2.9370 ca        1 XX5     -0.088300
     22 C22        -3.4130    4.3850    2.9850 ca        1 XX5     -0.105500
     23 C23        -4.3550    4.6800    3.9730 ca        1 XX5      0.016900
     24 Cl24       -5.0520    6.2340    4.0350 cl        1 XX5     -0.101900
     25 C25        -4.7390    3.7200    4.9130 ca        1 XX5     -0.125000
     26 C26        -3.2110    2.1330    3.8730 ca        1 XX5     -0.105500
     27 C27        -4.1590    2.4500    4.8500 ca        1 XX5      0.016900
     28 Cl28       -4.6190    1.2750    5.9920 cl        1 XX5     -0.101900
     29 HC4         1.3200    0.8930    1.5480 hx        1 XX5      0.093700
     30 HC51        1.5850   -1.5560    0.9590 hc        1 XX5      0.068200
     31 HC52        1.9770   -1.9280    2.6870 hc        1 XX5      0.068200
     32 HC6         3.9160   -1.7560    1.1130 hc        1 XX5      0.035700
     33 HC71        3.4670    1.3000    1.1650 hc        1 XX5      0.039533
     34 HC72        3.0130    0.2160   -0.2160 hc        1 XX5      0.039533
     35 HC73        4.7460    0.3600    0.3020 hc        1 XX5      0.039533
     36 HC81        5.4120   -0.6810    2.6390 hc        1 XX5      0.039533
     37 HC82        4.1340    0.3800    3.3440 hc        1 XX5      0.039533
     38 HC83        4.0880   -1.4070    3.6380 hc        1 XX5      0.039533
     39 HN9         2.1600    0.0160    4.1080 hn        1 XX5      0.458300
     40 H10         2.4260    2.2540    2.8720 hx        1 XX5      0.086700
     41 H141        0.8150    3.7040    4.6380 hc        1 XX5      0.091700
     42 H142       -0.3540    2.4050    4.1350 hc        1 XX5      0.091700
     43 H16         2.1850    5.0110    2.3700 h4        1 XX5      0.049100
     44 H18        -1.2360    4.6580   -0.1290 h5        1 XX5      0.049100
     45 H201       -2.4270    2.7430    0.8680 h1        1 XX5      0.098700
     46 H202       -1.5060    1.6760    2.0350 h1        1 XX5      0.098700
     47 H22        -3.1120    5.1510    2.2550 ha        1 XX5      0.181500
     48 H25        -5.4800    3.9610    5.6890 ha        1 XX5      0.151000
     49 H26        -2.7470    1.1260    3.8290 ha        1 XX5      0.181500
     50 H92         0.5320    0.4040    4.1980 hn        1 XX5      0.458300
@<TRIPOS>BOND
     1    1    2 1   
     2    2    3 1   
     3    2    4 1   
     4    4    5 1   
     5    4    9 1   
     6    4   29 1   
     7    5    6 1   
     8    5   30 1   
     9    5   31 1   
    10    6    7 1   
    11    6    8 1   
    12    6   32 1   
    13    7   33 1   
    14    7   34 1   
    15    7   35 1   
    16    8   36 1   
    17    8   37 1   
    18    8   38 1   
    19    9   10 1   
    20    9   39 1   
    21    9   50 1   
    22   10   11 1   
    23   10   14 1   
    24   10   40 1   
    25   11   12 1   
    26   11   13 1   
    27   14   15 1   
    28   14   41 1   
    29   14   42 1   
    30   15   16 2   
    31   15   19 1   
    32   16   17 1   
    33   16   43 1   
    34   17   18 2   
    35   18   19 1   
    36   18   44 1   
    37   19   20 1   
    38   20   21 1   
    39   20   45 1   
    40   20   46 1   
    41   21   22 ar  
    42   21   26 ar  
    43   22   23 ar  
    44   22   47 1   
    45   23   24 1   
    46   23   25 ar  
    47   25   27 ar  
    48   25   48 1   
    49   26   27 ar  
    50   26   49 1   
    51   27   28 1   
@<TRIPOS>SUBSTRUCTURE
     1 XX5         1 TEMP              0 ****  ****    0 ROOT
