@<TRIPOS>MOLECULE
XX5
   50    51     1     0     0
SMALL
bcc


@<TRIPOS>ATOM
      1 O1         -1.1150   -0.2340    3.1870 o         1 XX5     -0.805300
      2 C2         -0.3590   -0.4180    2.1880 c         1 XX5      0.912600
      3 O3         -0.7020   -0.8800    1.0770 o         1 XX5     -0.805300
      4 C4          1.1500    0.0310    2.3310 c3        1 XX5     -0.030500
      5 C5          2.0380   -1.1610    1.9900 c3        1 XX5     -0.084400
      6 C6          3.4990   -0.8690    1.6900 c3        1 XX5     -0.074700
      7 C7          3.6720    0.2540    0.6900 c3        1 XX5     -0.100600
      8 C8          4.3240   -0.6120    2.9340 c3        1 XX5     -0.100600
      9 N9          1.4060    0.5900    3.6900 n4        1 XX5     -0.740000
     10 C10         1.7890    2.0330    3.7410 c3        1 XX5     -0.036500
     11 C11         2.7530    2.2770    4.9870 c         1 XX5      0.918600
     12 O12         2.8880    3.4590    5.3670 o         1 XX5     -0.790800
     13 O13         3.3260    1.2520    5.4490 o         1 XX5     -0.790800
     14 C14         0.5890    2.9800    3.7850 c3        1 XX5     -0.020100
     15 C15         0.3710    3.6750    2.5000 cc        1 XX5     -0.194900
     16 C16         1.2080    4.6330    1.8790 cd        1 XX5      0.283200
     17 N17         0.6290    5.0940    0.7020 nd        1 XX5     -0.681000
     18 C18        -0.5480    4.4400    0.5940 cc        1 XX5      0.365400
     19 N19        -0.7510    3.5560    1.6650 na        1 XX5     -0.190900
     20 C20        -1.8870    2.6970    1.8340 c3        1 XX5      0.059600
     21 C21        -2.8520    3.1070    2.9120 ca        1 XX5     -0.088300
     22 C22        -3.4210    4.3830    2.9180 ca        1 XX5     -0.105500
     23 C23        -4.3560    4.7130    3.9020 ca        1 XX5      0.016900
     24 CL24       -5.0560    6.2660    3.9130 cl        1 XX5     -0.101900
     25 C25        -4.7300    3.7870    4.8790 ca        1 XX5     -0.125000
     26 C26        -3.2070    2.1660    3.8860 ca        1 XX5     -0.105500
     27 C27        -4.1480    2.5160    4.8590 ca        1 XX5      0.016900
     28 CL28       -4.5970    1.3830    6.0460 cl        1 XX5     -0.101900
     29 HC4         1.3080    0.8490    1.5710 hx        1 XX5      0.093700
     30 HC51        1.9790   -1.9270    2.8080 hc        1 XX5      0.068200
     31 HC52        1.5730   -1.6190    1.0700 hc        1 XX5      0.068200
     32 HC6         3.9040   -1.8110    1.2130 hc        1 XX5      0.035700
     33 HC71        2.9880    0.1100   -0.1810 hc        1 XX5      0.039533
     34 HC72        3.4510    1.2450    1.1560 hc        1 XX5      0.039533
     35 HC73        4.7250    0.2750    0.3190 hc        1 XX5      0.039533
     36 HC81        4.1370    0.4060    3.3620 hc        1 XX5      0.039533
     37 HC82        4.0960   -1.3690    3.7220 hc        1 XX5      0.039533
     38 HC83        5.4110   -0.6790    2.6860 hc        1 XX5      0.039533
     39 HN9         2.1710    0.0680    4.1550 hn        1 XX5      0.458300
     40 H10         2.4210    2.2590    2.8350 hx        1 XX5      0.086700
     41 H141       -0.3480    2.4510    4.1140 hc        1 XX5      0.091700
     42 H142        0.8220    3.7700    4.5600 hc        1 XX5      0.091700
     43 H16         2.1710    4.9960    2.2360 h4        1 XX5      0.049100
     44 H18        -1.2700    4.5470   -0.2210 h5        1 XX5      0.049100
     45 H201       -2.4490    2.6670    0.8540 h1        1 XX5      0.098700
     46 H202       -1.5160    1.6450    2.0520 h1        1 XX5      0.098700
     47 H22        -3.1270    5.1230    2.1580 ha        1 XX5      0.181500
     48 H25        -5.4660    4.0550    5.6520 ha        1 XX5      0.151000
     49 H26        -2.7410    1.1590    3.8750 ha        1 XX5      0.181500
     50 H92         0.5420    0.4560    4.2440 hn        1 XX5      0.458300
@<TRIPOS>BOND
     1    1    2 1   
     2    2    3 1   
     3    2    4 1   
     4    4    5 1   
     5    4    9 1   
     6    4   29 1   
     7    5    6 1   
     8    5   30 1   
     9    5   31 1   
    10    6    7 1   
    11    6    8 1   
    12    6   32 1   
    13    7   33 1   
    14    7   34 1   
    15    7   35 1   
    16    8   36 1   
    17    8   37 1   
    18    8   38 1   
    19    9   10 1   
    20    9   39 1   
    21    9   50 1   
    22   10   11 1   
    23   10   14 1   
    24   10   40 1   
    25   11   12 1   
    26   11   13 1   
    27   14   15 1   
    28   14   41 1   
    29   14   42 1   
    30   15   16 2   
    31   15   19 1   
    32   16   17 1   
    33   16   43 1   
    34   17   18 2   
    35   18   19 1   
    36   18   44 1   
    37   19   20 1   
    38   20   21 1   
    39   20   45 1   
    40   20   46 1   
    41   21   22 ar  
    42   21   26 ar  
    43   22   23 ar  
    44   22   47 1   
    45   23   24 1   
    46   23   25 ar  
    47   25   27 ar  
    48   25   48 1   
    49   26   27 ar  
    50   26   49 1   
    51   27   28 1   
@<TRIPOS>SUBSTRUCTURE
     1 XX5         1 TEMP              0 ****  ****    0 ROOT
