@<TRIPOS>MOLECULE
XX5
   50    51     1     0     0
SMALL
bcc


@<TRIPOS>ATOM
      1 O1         -1.1020   -0.2530    3.1260 o         1 XX5     -0.805300
      2 C2         -0.3370   -0.4080    2.1290 c         1 XX5      0.912600
      3 O3         -0.6670   -0.8460    1.0060 o         1 XX5     -0.805300
      4 C4          1.1680    0.0480    2.2960 c3        1 XX5     -0.030500
      5 C5          2.0670   -1.1280    1.9330 c3        1 XX5     -0.084400
      6 C6          3.5290   -0.8170    1.6530 c3        1 XX5     -0.074700
      7 C7          3.7010    0.3300    0.6810 c3        1 XX5     -0.100600
      8 C8          4.3410   -0.5840    2.9090 c3        1 XX5     -0.100600
      9 N9          1.4080    0.5770    3.6700 n4        1 XX5     -0.740000
     10 C10         1.7800    2.0210    3.7590 c3        1 XX5     -0.036500
     11 C11         2.7320    2.2410    5.0180 c         1 XX5      0.918600
     12 O12         2.8550    3.4140    5.4280 o         1 XX5     -0.790800
     13 O13         3.3090    1.2100    5.4600 o         1 XX5     -0.790800
     14 C14         0.5720    2.9580    3.8160 c3        1 XX5     -0.020100
     15 C15         0.3600    3.6830    2.5470 cc        1 XX5     -0.194900
     16 C16         1.1940    4.6620    1.9570 cd        1 XX5      0.283200
     17 N17         0.6210    5.1470    0.7870 nd        1 XX5     -0.681000
     18 C18        -0.5500    4.4870    0.6520 cc        1 XX5      0.365400
     19 N19        -0.7540    3.5750    1.7000 na        1 XX5     -0.190900
     20 C20        -1.8850    2.7030    1.8380 c3        1 XX5      0.058600
     21 C21        -2.8630    3.0800    2.9160 ca        1 XX5     -0.088300
     22 C22        -3.4410    4.3520    2.9490 ca        1 XX5     -0.105500
     23 C23        -4.3880    4.6500    3.9320 ca        1 XX5      0.016900
     24 CL24       -5.0990    6.1980    3.9740 cl        1 XX5     -0.101900
     25 C25        -4.7640    3.6980    4.8820 ca        1 XX5     -0.125000
     26 C26        -3.2200    2.1130    3.8630 ca        1 XX5     -0.105500
     27 C27        -4.1730    2.4320    4.8350 ca        1 XX5      0.016900
     28 CL28       -4.6250    1.2670    5.9890 cl        1 XX5     -0.101900
     29 HC4         1.3250    0.8850    1.5580 hx        1 XX5      0.093700
     30 HC51        1.6130   -1.5670    0.9990 hc        1 XX5      0.068200
     31 HC52        2.0070   -1.9140    2.7320 hc        1 XX5      0.068200
     32 HC6         3.9450   -1.7450    1.1560 hc        1 XX5      0.035700
     33 HC71        3.4690    1.3080    1.1690 hc        1 XX5      0.039533
     34 HC72        3.0240    0.2030   -0.1980 hc        1 XX5      0.039533
     35 HC73        4.7570    0.3680    0.3190 hc        1 XX5      0.039533
     36 HC81        4.1130   -1.3620    3.6770 hc        1 XX5      0.039533
     37 HC82        4.1430    0.4210    3.3600 hc        1 XX5      0.039533
     38 HC83        5.4310   -0.6370    2.6690 hc        1 XX5      0.039533
     39 HN9         2.1730    0.0490    4.1280 hn        1 XX5      0.458300
     40 H10         2.4170    2.2730    2.8640 hx        1 XX5      0.086700
     41 H141        0.7930    3.7300    4.6130 hc        1 XX5      0.091700
     42 H142       -0.3630    2.4140    4.1250 hc        1 XX5      0.091700
     43 H16         2.1510    5.0230    2.3310 h4        1 XX5      0.049100
     44 H18        -1.2650    4.6090   -0.1650 h5        1 XX5      0.049100
     45 H201       -2.4380    2.6930    0.8520 h1        1 XX5      0.098700
     46 H202       -1.5080    1.6500    2.0340 h1        1 XX5      0.098700
     47 H22        -3.1450    5.1120    2.2100 ha        1 XX5      0.181500
     48 H25        -5.5090    3.9410    5.6540 ha        1 XX5      0.151000
     49 H26        -2.7470    1.1090    3.8320 ha        1 XX5      0.181500
     50 H92         0.5400    0.4220    4.2130 hn        1 XX5      0.458300
@<TRIPOS>BOND
     1    1    2 1   
     2    2    3 1   
     3    2    4 1   
     4    4    5 1   
     5    4    9 1   
     6    4   29 1   
     7    5    6 1   
     8    5   30 1   
     9    5   31 1   
    10    6    7 1   
    11    6    8 1   
    12    6   32 1   
    13    7   33 1   
    14    7   34 1   
    15    7   35 1   
    16    8   36 1   
    17    8   37 1   
    18    8   38 1   
    19    9   10 1   
    20    9   39 1   
    21    9   50 1   
    22   10   11 1   
    23   10   14 1   
    24   10   40 1   
    25   11   12 1   
    26   11   13 1   
    27   14   15 1   
    28   14   41 1   
    29   14   42 1   
    30   15   16 2   
    31   15   19 1   
    32   16   17 1   
    33   16   43 1   
    34   17   18 2   
    35   18   19 1   
    36   18   44 1   
    37   19   20 1   
    38   20   21 1   
    39   20   45 1   
    40   20   46 1   
    41   21   22 ar  
    42   21   26 ar  
    43   22   23 ar  
    44   22   47 1   
    45   23   24 1   
    46   23   25 ar  
    47   25   27 ar  
    48   25   48 1   
    49   26   27 ar  
    50   26   49 1   
    51   27   28 1   
@<TRIPOS>SUBSTRUCTURE
     1 XX5         1 TEMP              0 ****  ****    0 ROOT
