@<TRIPOS>MOLECULE
XX6
   48    50     1     0     0
SMALL
bcc


@<TRIPOS>ATOM
      1 O4          6.1280    0.2540    1.8780 oh        1 XX6     -0.610800
      2 C19         6.0090    1.3290    0.9710 c3        1 XX6      0.118400
      3 C18         5.6140    0.8560   -0.4450 c3        1 XX6      0.093500
      4 C20         6.8510    0.2380   -1.1330 c3        1 XX6      0.118400
      5 O3          7.3260   -0.9050   -0.4500 oh        1 XX6     -0.610800
      6 N           4.4880   -0.0650   -0.4910 n3        1 XX6     -0.810200
      7 C17         3.2040    0.5680   -0.2730 c3        1 XX6      0.132800
      8 C16         2.0890   -0.4540    0.0260 c3        1 XX6      0.130100
      9 O2          2.4200   -1.2760    1.1270 oh        1 XX6     -0.582800
     10 C15         0.7790    0.3060    0.2650 c3        1 XX6      0.095400
     11 O1         -0.2620   -0.5740   -0.1690 os        1 XX6     -0.320900
     12 C10        -1.5530   -0.1060   -0.0070 ca        1 XX6      0.148100
     13 C5         -2.5680   -1.0600   -0.4020 ca        1 XX6     -0.045000
     14 C6         -2.2140   -2.3390   -0.8830 ca        1 XX6     -0.092000
     15 C1         -3.1900   -3.2410   -1.2580 ca        1 XX6     -0.138000
     16 C2         -4.5450   -2.8820   -1.1600 ca        1 XX6     -0.116000
     17 C3         -4.9060   -1.6340   -0.6890 ca        1 XX6     -0.130000
     18 C4         -3.9290   -0.6900   -0.2960 ca        1 XX6      0.001000
     19 C7         -4.2830    0.6210    0.2040 ca        1 XX6     -0.042000
     20 C11        -5.6250    1.0450    0.3320 ca        1 XX6     -0.108000
     21 C12        -5.9320    2.3030    0.8150 ca        1 XX6     -0.139000
     22 C13        -4.9070    3.1880    1.1910 ca        1 XX6     -0.118000
     23 C14        -3.5880    2.7990    1.0760 ca        1 XX6     -0.130000
     24 C8         -3.2550    1.5160    0.5830 ca        1 XX6      0.000000
     25 C9         -1.8800    1.1310    0.4680 ca        1 XX6     -0.221000
     26 H4          6.8500   -0.3100    1.5640 ho        1 XX6      0.418000
     27 H191        5.2070    1.9820    1.4090 h1        1 XX6      0.050700
     28 H192        6.9690    1.9070    0.9150 h1        1 XX6      0.050700
     29 H18         5.3380    1.7760   -1.0400 h1        1 XX6      0.065700
     30 H201        6.6200   -0.0060   -2.2030 h1        1 XX6      0.050700
     31 H202        7.7010    0.9710   -1.0880 h1        1 XX6      0.050700
     32 H           4.6270   -0.8020    0.1820 hn        1 XX6      0.377800
     33 H3          6.7220   -1.6330   -0.6410 ho        1 XX6      0.418000
     34 H171        3.2280    1.3150    0.5740 h1        1 XX6      0.036700
     35 H172        2.9350    1.1250   -1.2140 h1        1 XX6      0.036700
     36 H16         1.9650   -1.1800   -0.8290 h1        1 XX6      0.110700
     37 H2          2.5610   -0.7030    1.8920 ho        1 XX6      0.401000
     38 H151        0.6460    0.5440    1.3530 h1        1 XX6      0.047700
     39 H152        0.7440    1.2500   -0.3410 h1        1 XX6      0.047700
     40 H9         -1.1190    1.8620    0.7740 ha        1 XX6      0.136000
     41 H6         -1.1460   -2.6040   -0.9500 ha        1 XX6      0.153000
     42 H1         -2.9150   -4.2380   -1.6320 ha        1 XX6      0.136000
     43 HA         -5.3200   -3.6040   -1.4610 ha        1 XX6      0.133000
     44 HB         -5.9740   -1.3800   -0.6210 ha        1 XX6      0.133000
     45 H11        -6.4450    0.3710    0.0450 ha        1 XX6      0.131000
     46 H12        -6.9810    2.6180    0.9090 ha        1 XX6      0.132000
     47 H13        -5.1640    4.1860    1.5740 ha        1 XX6      0.132000
     48 H14        -2.7770    3.4840    1.3670 ha        1 XX6      0.130000
@<TRIPOS>BOND
     1    1    2 1   
     2    1   26 1   
     3    2    3 1   
     4    2   27 1   
     5    2   28 1   
     6    3    4 1   
     7    3    6 1   
     8    3   29 1   
     9    4    5 1   
    10    4   30 1   
    11    4   31 1   
    12    5   33 1   
    13    6    7 1   
    14    6   32 1   
    15    7    8 1   
    16    7   34 1   
    17    7   35 1   
    18    8    9 1   
    19    8   10 1   
    20    8   36 1   
    21    9   37 1   
    22   10   11 1   
    23   10   38 1   
    24   10   39 1   
    25   11   12 1   
    26   12   13 ar  
    27   12   25 ar  
    28   13   14 ar  
    29   13   18 ar  
    30   14   15 ar  
    31   14   41 1   
    32   15   16 ar  
    33   15   42 1   
    34   16   17 ar  
    35   16   43 1   
    36   17   18 ar  
    37   17   44 1   
    38   18   19 ar  
    39   19   20 ar  
    40   19   24 ar  
    41   20   21 ar  
    42   20   45 1   
    43   21   22 ar  
    44   21   46 1   
    45   22   23 ar  
    46   22   47 1   
    47   23   24 ar  
    48   23   48 1   
    49   24   25 ar  
    50   25   40 1   
@<TRIPOS>SUBSTRUCTURE
     1 XX6         1 TEMP              0 ****  ****    0 ROOT
