@<TRIPOS>MOLECULE
XX6
   49    51     1     0     0
SMALL
bcc


@<TRIPOS>ATOM
      1 O4         -0.0740   -0.3160   -0.0090 oh        1 XX6     -0.612800
      2 C19         1.3190   -0.5180   -0.1610 c3        1 XX6      0.114400
      3 C18         1.9490   -0.2910    1.2280 c3        1 XX6      0.073500
      4 C20         1.7010    1.1680    1.6880 c3        1 XX6      0.114400
      5 O3          0.3900    1.3240    2.1710 oh        1 XX6     -0.612800
      6 N           1.3910   -1.2670    2.2220 n4        1 XX6     -0.747000
      7 C17         2.2090   -1.3710    3.4620 c3        1 XX6      0.102800
      8 C16         1.6860   -2.4830    4.3900 c3        1 XX6      0.123100
      9 O2          1.6050   -3.6590    3.6010 oh        1 XX6     -0.636800
     10 C15         2.6540   -2.6460    5.5680 c3        1 XX6      0.098400
     11 O1          2.1470   -3.7730    6.2810 os        1 XX6     -0.347900
     12 C10         3.0120   -4.3210    7.2250 ca        1 XX6      0.116100
     13 C5          2.6570   -5.6600    7.6300 ca        1 XX6     -0.045000
     14 C6          1.5430   -6.3250    7.0750 ca        1 XX6     -0.110000
     15 C1          1.2180   -7.6050    7.4780 ca        1 XX6     -0.124000
     16 C2          2.0020   -8.2500    8.4490 ca        1 XX6     -0.110000
     17 C3          3.0950   -7.6110    9.0030 ca        1 XX6     -0.118000
     18 C4          3.4530   -6.3000    8.6110 ca        1 XX6      0.003000
     19 C7          4.5910   -5.6100    9.1780 ca        1 XX6     -0.029000
     20 C11         5.4230   -6.2020   10.1560 ca        1 XX6     -0.110000
     21 C12         6.5000   -5.5160   10.6850 ca        1 XX6     -0.120000
     22 C13         6.7900   -4.2090   10.2570 ca        1 XX6     -0.112000
     23 C14         5.9960   -3.6070    9.3020 ca        1 XX6     -0.125000
     24 C8          4.8910   -4.2950    8.7500 ca        1 XX6     -0.021000
     25 C9          4.0750   -3.6560    7.7590 ca        1 XX6     -0.181000
     26 H4         -0.4760   -0.3580   -0.8880 ho        1 XX6      0.447000
     27 H191        1.7600    0.2270   -0.8770 h1        1 XX6      0.078450
     28 H192        1.5230   -1.5570   -0.5360 h1        1 XX6      0.078450
     29 H18         3.0610   -0.4690    1.1440 hx        1 XX6      0.115700
     30 H201        1.9230    1.8500    0.8270 h1        1 XX6      0.078450
     31 H202        2.3690    1.4240    2.5550 h1        1 XX6      0.078450
     32 H           1.3190   -2.2000    1.7930 hn        1 XX6      0.472800
     33 H3         -0.2060    1.4130    1.4110 ho        1 XX6      0.447000
     34 H171        3.2710   -1.6020    3.1630 hx        1 XX6      0.110200
     35 H172        2.1720   -0.3830    4.0020 hx        1 XX6      0.110200
     36 H16         0.6570   -2.2320    4.7780 h1        1 XX6      0.081700
     37 H2          1.5780   -4.4200    4.2040 ho        1 XX6      0.468000
     38 H151        3.6980   -2.8450    5.2110 h1        1 XX6      0.064200
     39 H152        2.6310   -1.7390    6.2260 h1        1 XX6      0.064200
     40 H9          4.3380   -2.6310    7.4620 ha        1 XX6      0.132000
     41 H6          0.9330   -5.8050    6.3220 ha        1 XX6      0.130000
     42 H1          0.3480   -8.1230    7.0480 ha        1 XX6      0.141000
     43 HA          1.7390   -9.2700    8.7690 ha        1 XX6      0.145000
     44 HB          3.6910   -8.1380    9.7640 ha        1 XX6      0.144000
     45 H11         5.2180   -7.2230   10.5100 ha        1 XX6      0.140000
     46 H12         7.1380   -5.9900   11.4470 ha        1 XX6      0.144000
     47 H13         7.6490   -3.6730   10.6880 ha        1 XX6      0.142000
     48 H14         6.2130   -2.5830    8.9610 ha        1 XX6      0.131000
     49 HN3         0.4370   -0.9490    2.4620 hn        1 XX6      0.472800
@<TRIPOS>BOND
     1    1    2 1   
     2    1   26 1   
     3    2    3 1   
     4    2   27 1   
     5    2   28 1   
     6    3    4 1   
     7    3    6 1   
     8    3   29 1   
     9    4    5 1   
    10    4   30 1   
    11    4   31 1   
    12    5   33 1   
    13    6    7 1   
    14    6   32 1   
    15    6   49 1   
    16    7    8 1   
    17    7   34 1   
    18    7   35 1   
    19    8    9 1   
    20    8   10 1   
    21    8   36 1   
    22    9   37 1   
    23   10   11 1   
    24   10   38 1   
    25   10   39 1   
    26   11   12 1   
    27   12   13 ar  
    28   12   25 ar  
    29   13   14 ar  
    30   13   18 ar  
    31   14   15 ar  
    32   14   41 1   
    33   15   16 ar  
    34   15   42 1   
    35   16   17 ar  
    36   16   43 1   
    37   17   18 ar  
    38   17   44 1   
    39   18   19 ar  
    40   19   20 ar  
    41   19   24 ar  
    42   20   21 ar  
    43   20   45 1   
    44   21   22 ar  
    45   21   46 1   
    46   22   23 ar  
    47   22   47 1   
    48   23   24 ar  
    49   23   48 1   
    50   24   25 ar  
    51   25   40 1   
@<TRIPOS>SUBSTRUCTURE
     1 XX6         1 TEMP              0 ****  ****    0 ROOT
