@<TRIPOS>MOLECULE
XX6
   48    46     1     0     0
SMALL
bcc


@<TRIPOS>ATOM
      1 O4          0.5240    3.5980   -6.1460 oh        1 XX6     -0.339000
      2 C19        -0.5840    2.8350   -5.5800 c3        1 XX6     -0.030500
      3 C18        -0.7730    3.2140   -4.0480 c3        1 XX6     -0.069000
      4 C20        -1.7140    4.4280   -3.9320 c3        1 XX6     -0.030500
      5 O3         -1.1260    5.4990   -4.4680 oh        1 XX6     -0.339000
      6 N          -1.3330    2.1230   -3.3590 n3        1 XX6     -0.293000
      7 C17        -0.3340    1.5950   -2.3350 c3        1 XX6     -0.068000
      8 C16        -0.9650    0.4380   -1.5640 c3        1 XX6      0.023000
      9 O2         -1.0990   -0.6640   -2.4070 oh        1 XX6     -0.334000
     10 C15        -0.0770    0.0660   -0.3640 c3        1 XX6     -0.062000
     11 O1         -0.6040   -1.1250    0.2820 os        1 XX6     -0.228000
     12 C10         0.1130   -1.5150    1.3980 c2        1 XX6      0.101000
     13 C5         -0.6040   -1.8740    2.5640 c2        1 XX6     -0.045000
     14 C6         -1.9970   -1.7430    2.5960 c2        1 XX6     -0.096000
     15 C1         -2.7190   -2.1020    3.7640 c1        1 XX6     -0.136000
     16 C2         -2.0120   -2.6050    4.9240 c1        1 XX6     -0.122000
     17 C3         -0.7000   -2.7290    4.8970 c1        1 XX6     -0.122000
     18 C4          0.0630   -2.3490    3.6610 c1        1 XX6      0.001000
     19 C7          1.5360   -2.4900    3.6310 c2        1 XX6     -0.042000
     20 C11         2.2050   -2.9440    4.7440 c2        1 XX6     -0.109000
     21 C12         3.5990   -3.0530    4.7330 c1        1 XX6     -0.137000
     22 C13         4.2960   -2.7130    3.6270 c2        1 XX6     -0.118000
     23 C14         3.6260   -2.2510    2.4910 c1        1 XX6     -0.128000
     24 C8          2.2360   -2.1430    2.5040 c2        1 XX6     -0.002000
     25 C9          1.5410   -1.6480    1.3650 c2        1 XX6     -0.212000
     26 H4          0.5390    3.4840   -7.1100 ho        1 XX6      0.214000
     27 H191       -1.3910    3.0420   -6.0590 h1        1 XX6      0.079000
     28 H192       -0.3850    1.8380   -5.6610 h1        1 XX6      0.079000
     29 H18         0.0660    3.4270   -3.6660 h1        1 XX6      0.121000
     30 H201       -1.9040    4.5990   -3.0080 h1        1 XX6      0.079000
     31 H202       -2.4520    4.2620   -4.3500 h1        1 XX6      0.079000
     32 H          -1.5340    1.4740   -3.9400 hn        1 XX6      0.169000
     33 H3         -1.7430    6.1320   -4.6170 ho        1 XX6      0.214000
     34 H171       -0.0980    2.2980   -1.7240 h1        1 XX6      0.084000
     35 H172        0.3800    1.3140   -2.7440 h1        1 XX6      0.084000
     36 H16        -1.7960    0.6960   -1.2590 h1        1 XX6      0.104000
     37 H2         -1.8930   -0.9200   -2.4040 ho        1 XX6      0.219000
     38 H151       -0.0680    0.7260    0.2070 h1        1 XX6      0.096000
     39 H152        0.8290   -0.1070   -0.6720 h1        1 XX6      0.096000
     40 H9          2.0480   -1.3810    0.5530 ha        1 XX6      0.140000
     41 H6         -2.4720   -1.4010    1.8150 ha        1 XX6      0.145000
     42 H1         -3.7270   -2.0070    3.7840 ha        1 XX6      0.135000
     43 HA         -2.5120   -2.8570    5.7360 ha        1 XX6      0.134500
     44 HB         -0.2000   -3.0890    5.7230 ha        1 XX6      0.134500
     45 H11         1.6880   -3.1990    5.5720 ha        1 XX6      0.132000
     46 H12         4.0640   -3.3730    5.5180 DU        1 XX6      0.133000
     47 H13         5.3470   -2.7970    3.6210 ha        1 XX6      0.133000
     48 H14         4.1180   -2.0100    1.7110 DU        1 XX6      0.133000
@<TRIPOS>BOND
     1    1    2 1   
     2    1   26 1   
     3    2    3 1   
     4    2   27 1   
     5    2   28 1   
     6    3    4 1   
     7    3    6 1   
     8    3   29 1   
     9    4    5 1   
    10    4   30 1   
    11    4   31 1   
    12    5   33 1   
    13    6    7 1   
    14    6   32 1   
    15    7    8 1   
    16    7   34 1   
    17    7   35 1   
    18    8    9 1   
    19    8   10 1   
    20    8   36 1   
    21    9   37 1   
    22   10   11 1   
    23   10   38 1   
    24   10   39 1   
    25   11   12 1   
    26   12   13 1   
    27   12   25 1   
    28   13   14 1   
    29   13   18 1   
    30   14   15 1   
    31   14   41 1   
    32   15   42 1   
    33   16   17 1   
    34   16   43 1   
    35   17   44 1   
    36   18   19 1   
    37   19   20 1   
    38   19   24 1   
    39   20   21 1   
    40   20   45 1   
    41   21   22 1   
    42   22   23 1   
    43   22   47 1   
    44   23   24 1   
    45   24   25 1   
    46   25   40 1   
@<TRIPOS>SUBSTRUCTURE
     1 XX6         1 TEMP              0 ****  ****    0 ROOT
