@<TRIPOS>MOLECULE
XX6
   49    51     1     0     0
SMALL
bcc


@<TRIPOS>ATOM
      1 O4         -0.0760   -0.3130   -0.0130 oh        1 XX6     -0.612800
      2 C19         1.3200   -0.5070   -0.1600 c3        1 XX6      0.114400
      3 C18         1.9420   -0.2790    1.2320 c3        1 XX6      0.073500
      4 C20         1.6830    1.1770    1.6950 c3        1 XX6      0.114400
      5 O3          0.3690    1.3240    2.1720 oh        1 XX6     -0.612800
      6 N           1.3850   -1.2600    2.2220 ny        1 XX6     -0.747000
      7 C17         2.1990   -1.3620    3.4650 c3        1 XX6      0.102800
      8 C16         1.6790   -2.4800    4.3890 c3        1 XX6      0.123100
      9 O2          1.6090   -3.6540    3.5970 oh        1 XX6     -0.636800
     10 C15         2.6430   -2.6390    5.5710 c3        1 XX6      0.098400
     11 O1          2.1400   -3.7710    6.2780 os        1 XX6     -0.347900
     12 C10         3.0050   -4.3160    7.2240 ca        1 XX6      0.116100
     13 C5          2.6590   -5.6600    7.6230 ca        1 XX6     -0.045000
     14 C6          1.5520   -6.3310    7.0610 ca        1 XX6     -0.110000
     15 C1          1.2340   -7.6140    7.4580 ca        1 XX6     -0.124000
     16 C2          2.0200   -8.2570    8.4310 ca        1 XX6     -0.110000
     17 C3          3.1060   -7.6120    8.9910 ca        1 XX6     -0.118000
     18 C4          3.4550   -6.2970    8.6050 ca        1 XX6      0.003000
     19 C7          4.5850   -5.6000    9.1800 ca        1 XX6     -0.029000
     20 C11         5.4180   -6.1890   10.1590 ca        1 XX6     -0.110000
     21 C12         6.4870   -5.4970   10.6950 ca        1 XX6     -0.120000
     22 C13         6.7700   -4.1860   10.2730 ca        1 XX6     -0.112000
     23 C14         5.9750   -3.5870    9.3160 ca        1 XX6     -0.125000
     24 C8          4.8780   -4.2810    8.7580 ca        1 XX6     -0.021000
     25 C9          4.0610   -3.6460    7.7650 ca        1 XX6     -0.181000
     26 H4         -0.4730   -0.3560   -0.8940 ho        1 XX6      0.447000
     27 H191        1.5310   -1.5440   -0.5360 h1        1 XX6      0.078450
     28 H192        1.7590    0.2420   -0.8720 h1        1 XX6      0.078450
     29 H18         3.0560   -0.4500    1.1530 hx        1 XX6      0.115700
     30 H201        1.9040    1.8630    0.8360 h1        1 XX6      0.078450
     31 H202        2.3460    1.4360    2.5660 h1        1 XX6      0.078450
     32 H           1.3220   -2.1930    1.7910 hn        1 XX6      0.472800
     33 H3         -0.2250    1.4110    1.4100 ho        1 XX6      0.447000
     34 H171        2.1540   -0.3760    4.0080 hx        1 XX6      0.110200
     35 H172        3.2630   -1.5860    3.1700 hx        1 XX6      0.110200
     36 H16         0.6470   -2.2370    4.7720 h1        1 XX6      0.081700
     37 H2          1.5850   -4.4160    4.1980 ho        1 XX6      0.468000
     38 H151        3.6900   -2.8290    5.2180 h1        1 XX6      0.064200
     39 H152        2.6100   -1.7330    6.2310 h1        1 XX6      0.064200
     40 H9          4.3180   -2.6180    7.4730 ha        1 XX6      0.132000
     41 H6          0.9410   -5.8120    6.3070 ha        1 XX6      0.130000
     42 H1          0.3700   -8.1370    7.0230 ha        1 XX6      0.141000
     43 HA          1.7620   -9.2800    8.7450 ha        1 XX6      0.145000
     44 HB          3.7010   -8.1370    9.7530 ha        1 XX6      0.144000
     45 H11         5.2190   -7.2130   10.5090 ha        1 XX6      0.140000
     46 H12         7.1250   -5.9700   11.4580 ha        1 XX6      0.144000
     47 H13         7.6230   -3.6460   10.7090 ha        1 XX6      0.142000
     48 H14         6.1860   -2.5610    8.9800 ha        1 XX6      0.131000
     49 HN3         0.4280   -0.9490    2.4590 hn        1 XX6      0.472800
@<TRIPOS>BOND
     1    1    2 1   
     2    1   26 1   
     3    2    3 1   
     4    2   27 1   
     5    2   28 1   
     6    3    4 1   
     7    3    6 1   
     8    3   29 1   
     9    4    5 1   
    10    4   30 1   
    11    4   31 1   
    12    5   33 1   
    13    6    7 1   
    14    6   32 1   
    15    6   49 1   
    16    7    8 1   
    17    7   34 1   
    18    7   35 1   
    19    8    9 1   
    20    8   10 1   
    21    8   36 1   
    22    9   37 1   
    23   10   11 1   
    24   10   38 1   
    25   10   39 1   
    26   11   12 1   
    27   12   13 ar  
    28   12   25 ar  
    29   13   14 ar  
    30   13   18 ar  
    31   14   15 ar  
    32   14   41 1   
    33   15   16 ar  
    34   15   42 1   
    35   16   17 ar  
    36   16   43 1   
    37   17   18 ar  
    38   17   44 1   
    39   18   19 ar  
    40   19   20 ar  
    41   19   24 ar  
    42   20   21 ar  
    43   20   45 1   
    44   21   22 ar  
    45   21   46 1   
    46   22   23 ar  
    47   22   47 1   
    48   23   24 ar  
    49   23   48 1   
    50   24   25 ar  
    51   25   40 1   
@<TRIPOS>SUBSTRUCTURE
     1 XX6         1 TEMP              0 ****  ****    0 ROOT
