@<TRIPOS>MOLECULE
XX6
   49    51     1     0     0
SMALL
bcc


@<TRIPOS>ATOM
      1 O4         -0.0790   -0.3150   -0.0090 oh        1 XX6     -0.612800
      2 C19         1.3140   -0.5210   -0.1610 c3        1 XX6      0.114400
      3 C18         1.9450   -0.2920    1.2270 c3        1 XX6      0.073500
      4 C20         1.7010    1.1680    1.6850 c3        1 XX6      0.114400
      5 O3          0.3900    1.3280    2.1670 oh        1 XX6     -0.612800
      6 N           1.3840   -1.2650    2.2240 n4        1 XX6     -0.747000
      7 C17         2.2030   -1.3680    3.4630 c3        1 XX6      0.102800
      8 C16         1.6770   -2.4780    4.3940 c3        1 XX6      0.123100
      9 O2          1.5950   -3.6550    3.6070 oh        1 XX6     -0.636800
     10 C15         2.6450   -2.6390    5.5720 c3        1 XX6      0.098400
     11 O1          2.1370   -3.7660    6.2860 os        1 XX6     -0.347900
     12 C10         3.0060   -4.3180    7.2250 ca        1 XX6      0.115100
     13 C5          2.6550   -5.6610    7.6230 ca        1 XX6     -0.045000
     14 C6          1.5420   -6.3260    7.0650 ca        1 XX6     -0.110000
     15 C1          1.2210   -7.6090    7.4600 ca        1 XX6     -0.124000
     16 C2          2.0090   -8.2580    8.4270 ca        1 XX6     -0.110000
     17 C3          3.1010   -7.6190    8.9830 ca        1 XX6     -0.118000
     18 C4          3.4540   -6.3040    8.5990 ca        1 XX6      0.003000
     19 C7          4.5900   -5.6140    9.1690 ca        1 XX6     -0.029000
     20 C11         5.4250   -6.2090   10.1430 ca        1 XX6     -0.110000
     21 C12         6.5010   -5.5230   10.6740 ca        1 XX6     -0.120000
     22 C13         6.7860   -4.2120   10.2540 ca        1 XX6     -0.112000
     23 C14         5.9890   -3.6070    9.3030 ca        1 XX6     -0.125000
     24 C8          4.8860   -4.2950    8.7490 ca        1 XX6     -0.021000
     25 C9          4.0670   -3.6530    7.7620 ca        1 XX6     -0.180000
     26 H4         -0.4810   -0.3580   -0.8880 ho        1 XX6      0.447000
     27 H191        1.5150   -1.5620   -0.5340 h1        1 XX6      0.078450
     28 H192        1.7570    0.2210   -0.8790 h1        1 XX6      0.078450
     29 H18         3.0570   -0.4730    1.1430 hx        1 XX6      0.115700
     30 H201        1.9240    1.8480    0.8220 h1        1 XX6      0.078450
     31 H202        2.3700    1.4240    2.5510 h1        1 XX6      0.078450
     32 H           1.3110   -2.1990    1.7960 hn        1 XX6      0.472800
     33 H3         -0.2060    1.4170    1.4070 ho        1 XX6      0.447000
     34 H171        3.2640   -1.6020    3.1640 hx        1 XX6      0.110200
     35 H172        2.1680   -0.3800    4.0020 hx        1 XX6      0.110200
     36 H16         0.6490   -2.2240    4.7810 h1        1 XX6      0.081700
     37 H2          1.5670   -4.4140    4.2120 ho        1 XX6      0.468000
     38 H151        3.6900   -2.8380    5.2160 h1        1 XX6      0.064200
     39 H152        2.6220   -1.7320    6.2300 h1        1 XX6      0.064200
     40 H9          4.3260   -2.6260    7.4710 ha        1 XX6      0.132000
     41 H6          0.9300   -5.8020    6.3150 ha        1 XX6      0.130000
     42 H1          0.3520   -8.1270    7.0280 ha        1 XX6      0.141000
     43 HA          1.7490   -9.2800    8.7410 ha        1 XX6      0.145000
     44 HB          3.6980   -8.1480    9.7400 ha        1 XX6      0.144000
     45 H11         5.2240   -7.2330   10.4910 ha        1 XX6      0.140000
     46 H12         7.1400   -6.0000   11.4320 ha        1 XX6      0.144000
     47 H13         7.6440   -3.6760   10.6870 ha        1 XX6      0.142000
     48 H14         6.2030   -2.5810    8.9690 ha        1 XX6      0.131000
     49 HN3         0.4310   -0.9440    2.4630 hn        1 XX6      0.472800
@<TRIPOS>BOND
     1    1    2 1   
     2    1   26 1   
     3    2    3 1   
     4    2   27 1   
     5    2   28 1   
     6    3    4 1   
     7    3    6 1   
     8    3   29 1   
     9    4    5 1   
    10    4   30 1   
    11    4   31 1   
    12    5   33 1   
    13    6    7 1   
    14    6   32 1   
    15    6   49 1   
    16    7    8 1   
    17    7   34 1   
    18    7   35 1   
    19    8    9 1   
    20    8   10 1   
    21    8   36 1   
    22    9   37 1   
    23   10   11 1   
    24   10   38 1   
    25   10   39 1   
    26   11   12 1   
    27   12   13 ar  
    28   12   25 ar  
    29   13   14 ar  
    30   13   18 ar  
    31   14   15 ar  
    32   14   41 1   
    33   15   16 ar  
    34   15   42 1   
    35   16   17 ar  
    36   16   43 1   
    37   17   18 ar  
    38   17   44 1   
    39   18   19 ar  
    40   19   20 ar  
    41   19   24 ar  
    42   20   21 ar  
    43   20   45 1   
    44   21   22 ar  
    45   21   46 1   
    46   22   23 ar  
    47   22   47 1   
    48   23   24 ar  
    49   23   48 1   
    50   24   25 ar  
    51   25   40 1   
@<TRIPOS>SUBSTRUCTURE
     1 XX6         1 TEMP              0 ****  ****    0 ROOT
