@<TRIPOS>MOLECULE
XX7
   49    51     1     0     0
SMALL
bcc


@<TRIPOS>ATOM
      1 O4          0.5650    0.0010   -0.2460 oh        1 XX7     -0.612800
      2 C19         1.7930    0.4100    0.3020 c3        1 XX7      0.114400
      3 C18         1.8850    0.0240    1.8000 c3        1 XX7      0.073500
      4 C20         1.0740    1.0220    2.6510 c3        1 XX7      0.114400
      5 O3         -0.2740    0.9080    2.2300 oh        1 XX7     -0.612800
      6 N           1.3900   -1.3760    2.0210 n4        1 XX7     -0.747000
      7 C17         2.3470   -2.4160    1.5510 c3        1 XX7      0.102800
      8 O2          1.6150   -3.8120    3.3210 oh        1 XX7     -0.636800
      9 C15         2.9640   -4.8400    1.5550 c3        1 XX7      0.098400
     10 O1          2.4760   -6.0820    2.0610 os        1 XX7     -0.347900
     11 C10         3.4150   -7.1080    2.1310 ca        1 XX7      0.115100
     12 C5          3.0290   -8.1920    3.0030 ca        1 XX7     -0.045000
     13 C6          1.8150   -8.1600    3.7220 ca        1 XX7     -0.110000
     14 C1          1.4620   -9.2080    4.5490 ca        1 XX7     -0.124000
     15 C2          2.3190  -10.3150    4.6750 ca        1 XX7     -0.110000
     16 C3          3.5100  -10.3600    3.9770 ca        1 XX7     -0.118000
     17 C4          3.8990   -9.3030    3.1220 ca        1 XX7      0.003000
     18 C7          5.1400   -9.3290    2.3780 ca        1 XX7     -0.029000
     19 C11         6.0480  -10.4100    2.4620 ca        1 XX7     -0.110000
     20 C12         7.2230  -10.4110    1.7350 ca        1 XX7     -0.120000
     21 C13         7.5400   -9.3300    0.8940 ca        1 XX7     -0.112000
     22 C14         6.6730   -8.2610    0.7940 ca        1 XX7     -0.125000
     23 C8          5.4670   -8.2430    1.5310 ca        1 XX7     -0.021000
     24 C9          4.5760   -7.1260    1.4180 ca        1 XX7     -0.180000
     25 C16         1.8700   -3.8310    1.9270 c3        1 XX7      0.123100
     26 H4         -0.1140    0.6440    0.0110 ho        1 XX7      0.447000
     27 H191        2.5790   -0.1330   -0.2910 h1        1 XX7      0.078450
     28 H192        1.9520    1.5170    0.2150 h1        1 XX7      0.078450
     29 H18         2.9640    0.0740    2.1300 hx        1 XX7      0.115700
     30 H201        1.1610    0.7880    3.7460 h1        1 XX7      0.078450
     31 H202        1.4720    2.0550    2.4610 h1        1 XX7      0.078450
     32 H           0.4960   -1.4710    1.5100 hn        1 XX7      0.472800
     33 H3         -0.7820    1.5950    2.6830 ho        1 XX7      0.447000
     34 H171        3.3460   -2.2170    2.0340 hx        1 XX7      0.110200
     35 H172        2.4430   -2.3370    0.4310 hx        1 XX7      0.110200
     36 H16         0.9160   -4.0910    1.3840 h1        1 XX7      0.081700
     37 H2          1.6130   -4.7300    3.6350 ho        1 XX7      0.468000
     38 H151        3.9410   -4.5760    2.0380 h1        1 XX7      0.064200
     39 H152        3.0800   -4.9040    0.4420 h1        1 XX7      0.064200
     40 H9          4.8640   -6.3080    0.7420 ha        1 XX7      0.132000
     41 H6          1.1500   -7.2910    3.6060 ha        1 XX7      0.130000
     42 H1          0.5140   -9.1860    5.1070 ha        1 XX7      0.141000
     43 HA          2.0330  -11.1490    5.3350 ha        1 XX7      0.145000
     44 HB          4.1610  -11.2400    4.0920 ha        1 XX7      0.144000
     45 H11         5.8240  -11.2690    3.1120 ha        1 XX7      0.140000
     46 H12         7.9190  -11.2610    1.8110 ha        1 XX7      0.144000
     47 H13         8.4780   -9.3450    0.3190 ha        1 XX7      0.142000
     48 H14         6.9100   -7.4110    0.1370 ha        1 XX7      0.131000
     49 HN3         1.2040   -1.5260    3.0230 hn        1 XX7      0.472800
@<TRIPOS>BOND
     1    1    2 1   
     2    1   26 1   
     3    2    3 1   
     4    2   27 1   
     5    2   28 1   
     6    3    4 1   
     7    3    6 1   
     8    3   29 1   
     9    4    5 1   
    10    4   30 1   
    11    4   31 1   
    12    5   33 1   
    13    6    7 1   
    14    6   32 1   
    15    6   49 1   
    16    7   25 1   
    17    7   34 1   
    18    7   35 1   
    19    8   25 1   
    20    8   37 1   
    21    9   10 1   
    22    9   25 1   
    23    9   38 1   
    24    9   39 1   
    25   10   11 1   
    26   11   12 ar  
    27   11   24 ar  
    28   12   13 ar  
    29   12   17 ar  
    30   13   14 ar  
    31   13   41 1   
    32   14   15 ar  
    33   14   42 1   
    34   15   16 ar  
    35   15   43 1   
    36   16   17 ar  
    37   16   44 1   
    38   17   18 ar  
    39   18   19 ar  
    40   18   23 ar  
    41   19   20 ar  
    42   19   45 1   
    43   20   21 ar  
    44   20   46 1   
    45   21   22 ar  
    46   21   47 1   
    47   22   23 ar  
    48   22   48 1   
    49   23   24 ar  
    50   24   40 1   
    51   25   36 1   
@<TRIPOS>SUBSTRUCTURE
     1 XX7         1 TEMP              0 ****  ****    0 ROOT
