@<TRIPOS>MOLECULE
XX7
   48    50     1     0     0
SMALL
bcc


@<TRIPOS>ATOM
      1 O4          4.1650    1.9900    0.7540 oh        1 XX7     -0.609300
      2 C19         3.8690    1.4760   -0.5260 c3        1 XX7      0.114900
      3 C18         4.5900    0.1400   -0.8020 c3        1 XX7      0.090500
      4 C20         6.0780    0.4170   -1.1030 c3        1 XX7      0.114900
      5 O3          6.7490    0.9980   -0.0020 oh        1 XX7     -0.609300
      6 N           4.4460   -0.8720    0.2350 n3        1 XX7     -0.804200
      7 C17         3.0930   -1.3370    0.4490 c3        1 XX7      0.130800
      8 O2          2.9320   -1.0750    2.8710 oh        1 XX7     -0.583800
      9 C15         0.8730   -1.0780    1.6150 c3        1 XX7      0.094400
     10 O1          0.2970   -0.3410    0.5330 os        1 XX7     -0.331900
     11 C10        -1.0690   -0.4720    0.3730 ca        1 XX7      0.146100
     12 C5         -1.6130    0.3720   -0.6700 ca        1 XX7     -0.045000
     13 C6         -0.7840    1.2480   -1.4020 ca        1 XX7     -0.095000
     14 C1         -1.3130    2.0480   -2.3950 ca        1 XX7     -0.137000
     15 C2         -2.6880    1.9890   -2.6790 ca        1 XX7     -0.117000
     16 C3         -3.5130    1.1380   -1.9680 ca        1 XX7     -0.127000
     17 C4         -3.0000    0.3080   -0.9440 ca        1 XX7      0.001000
     18 C7         -3.8440   -0.5860   -0.1820 ca        1 XX7     -0.043000
     19 C11        -5.2350   -0.6920   -0.4110 ca        1 XX7     -0.109000
     20 C12        -6.0170   -1.5520    0.3350 ca        1 XX7     -0.138000
     21 C13        -5.4390   -2.3420    1.3430 ca        1 XX7     -0.118000
     22 C14        -4.0830   -2.2590    1.5880 ca        1 XX7     -0.129000
     23 C8         -3.2670   -1.3850    0.8330 ca        1 XX7     -0.001000
     24 C9         -1.8610   -1.3140    1.0980 ca        1 XX7     -0.215000
     25 C16         2.3560   -0.6920    1.6370 c3        1 XX7      0.095100
     26 H4          5.1160    2.1690    0.7830 ho        1 XX7      0.415000
     27 H191        2.7550    1.3270   -0.5220 h1        1 XX7      0.052200
     28 H192        4.1440    2.2190   -1.3220 h1        1 XX7      0.052200
     29 H18         4.1440   -0.2860   -1.7510 h1        1 XX7      0.068700
     30 H201        6.5920   -0.5250   -1.4300 h1        1 XX7      0.052200
     31 H202        6.1500    1.1880   -1.9180 h1        1 XX7      0.052200
     32 H           4.8220   -0.5190    1.1000 hn        1 XX7      0.369800
     33 H3          6.9180    0.2990    0.6400 ho        1 XX7      0.415000
     34 H171        2.4630   -1.1870   -0.4720 h1        1 XX7      0.058700
     35 H172        3.1690   -2.4470    0.6390 h1        1 XX7      0.058700
     36 H16         2.4640    0.4330    1.6160 h1        1 XX7      0.118700
     37 H2          2.9320   -2.0390    2.9060 ho        1 XX7      0.397000
     38 H151        0.3850   -0.7900    2.5820 h1        1 XX7      0.050200
     39 H152        0.7430   -2.1770    1.4340 h1        1 XX7      0.050200
     40 H9         -1.4590   -1.9550    1.8950 ha        1 XX7      0.140000
     41 H6          0.2910    1.2840   -1.1630 ha        1 XX7      0.146000
     42 H1         -0.6670    2.7320   -2.9650 ha        1 XX7      0.135000
     43 HA         -3.1050    2.6280   -3.4710 ha        1 XX7      0.133000
     44 HB         -4.5850    1.1130   -2.2090 ha        1 XX7      0.134000
     45 H11        -5.7120   -0.0840   -1.1940 ha        1 XX7      0.131000
     46 H12        -7.0980   -1.6230    0.1450 ha        1 XX7      0.133000
     47 H13        -6.0720   -3.0230    1.9310 ha        1 XX7      0.133000
     48 H14        -3.6190   -2.8730    2.3750 ha        1 XX7      0.132000
@<TRIPOS>BOND
     1    1    2 1   
     2    1   26 1   
     3    2    3 1   
     4    2   27 1   
     5    2   28 1   
     6    3    4 1   
     7    3    6 1   
     8    3   29 1   
     9    4    5 1   
    10    4   30 1   
    11    4   31 1   
    12    5   33 1   
    13    6    7 1   
    14    6   32 1   
    15    7   25 1   
    16    7   34 1   
    17    7   35 1   
    18    8   25 1   
    19    8   37 1   
    20    9   10 1   
    21    9   25 1   
    22    9   38 1   
    23    9   39 1   
    24   10   11 1   
    25   11   12 ar  
    26   11   24 ar  
    27   12   13 ar  
    28   12   17 ar  
    29   13   14 ar  
    30   13   41 1   
    31   14   15 ar  
    32   14   42 1   
    33   15   16 ar  
    34   15   43 1   
    35   16   17 ar  
    36   16   44 1   
    37   17   18 ar  
    38   18   19 ar  
    39   18   23 ar  
    40   19   20 ar  
    41   19   45 1   
    42   20   21 ar  
    43   20   46 1   
    44   21   22 ar  
    45   21   47 1   
    46   22   23 ar  
    47   22   48 1   
    48   23   24 ar  
    49   24   40 1   
    50   25   36 1   
@<TRIPOS>SUBSTRUCTURE
     1 XX7         1 TEMP              0 ****  ****    0 ROOT
