@<TRIPOS>MOLECULE
XX7
   49    51     1     0     0
SMALL
bcc


@<TRIPOS>ATOM
      1 O4          0.5660    0.0030   -0.2380 oh        1 XX7     -0.612800
      2 C19         1.7940    0.4120    0.3090 c3        1 XX7      0.114400
      3 C18         1.8870    0.0260    1.8070 c3        1 XX7      0.073500
      4 C20         1.0760    1.0230    2.6590 c3        1 XX7      0.114400
      5 O3         -0.2720    0.9100    2.2390 oh        1 XX7     -0.612800
      6 N           1.3920   -1.3740    2.0290 ny        1 XX7     -0.747000
      7 C17         2.3480   -2.4140    1.5570 c3        1 XX7      0.102800
      8 O2          1.6180   -3.8100    3.3270 oh        1 XX7     -0.636800
      9 C15         2.9650   -4.8380    1.5590 c3        1 XX7      0.098400
     10 O1          2.4770   -6.0800    2.0650 os        1 XX7     -0.347900
     11 C10         3.4150   -7.1080    2.1300 ca        1 XX7      0.116100
     12 C5          3.0290   -8.1940    2.9990 ca        1 XX7     -0.045000
     13 C6          1.8140   -8.1630    3.7180 ca        1 XX7     -0.110000
     14 C1          1.4610   -9.2130    4.5420 ca        1 XX7     -0.124000
     15 C2          2.3170  -10.3210    4.6640 ca        1 XX7     -0.110000
     16 C3          3.5080  -10.3660    3.9660 ca        1 XX7     -0.118000
     17 C4          3.8970   -9.3060    3.1140 ca        1 XX7      0.003000
     18 C7          5.1380   -9.3310    2.3700 ca        1 XX7     -0.029000
     19 C11         6.0450  -10.4130    2.4500 ca        1 XX7     -0.110000
     20 C12         7.2200  -10.4130    1.7230 ca        1 XX7     -0.120000
     21 C13         7.5370   -9.3290    0.8850 ca        1 XX7     -0.112000
     22 C14         6.6710   -8.2590    0.7890 ca        1 XX7     -0.125000
     23 C8          5.4660   -8.2430    1.5270 ca        1 XX7     -0.021000
     24 C9          4.5760   -7.1240    1.4170 ca        1 XX7     -0.180000
     25 C16         1.8710   -3.8290    1.9320 c3        1 XX7      0.123100
     26 H4         -0.1130    0.6460    0.0190 ho        1 XX7      0.447000
     27 H191        2.5800   -0.1300   -0.2850 h1        1 XX7      0.078450
     28 H192        1.9520    1.5190    0.2220 h1        1 XX7      0.078450
     29 H18         2.9660    0.0760    2.1370 hx        1 XX7      0.115700
     30 H201        1.1630    0.7890    3.7540 h1        1 XX7      0.078450
     31 H202        1.4740    2.0570    2.4690 h1        1 XX7      0.078450
     32 H           0.4980   -1.4680    1.5190 hn        1 XX7      0.472800
     33 H3         -0.7800    1.5970    2.6920 ho        1 XX7      0.447000
     34 H171        3.3470   -2.2150    2.0380 hx        1 XX7      0.110200
     35 H172        2.4430   -2.3340    0.4370 hx        1 XX7      0.110200
     36 H16         0.9170   -4.0890    1.3910 h1        1 XX7      0.081700
     37 H2          1.6160   -4.7290    3.6410 ho        1 XX7      0.468000
     38 H151        3.9420   -4.5740    2.0420 h1        1 XX7      0.064200
     39 H152        3.0810   -4.9010    0.4460 h1        1 XX7      0.064200
     40 H9          4.8650   -6.3040    0.7440 ha        1 XX7      0.132000
     41 H6          1.1500   -7.2930    3.6060 ha        1 XX7      0.130000
     42 H1          0.5130   -9.1920    5.1000 ha        1 XX7      0.141000
     43 HA          2.0300  -11.1570    5.3210 ha        1 XX7      0.145000
     44 HB          4.1570  -11.2470    4.0780 ha        1 XX7      0.144000
     45 H11         5.8200  -11.2750    3.0970 ha        1 XX7      0.140000
     46 H12         7.9150  -11.2630    1.7950 ha        1 XX7      0.144000
     47 H13         8.4750   -9.3430    0.3100 ha        1 XX7      0.142000
     48 H14         6.9090   -7.4070    0.1350 ha        1 XX7      0.131000
     49 HN3         1.2070   -1.5250    3.0310 hn        1 XX7      0.472800
@<TRIPOS>BOND
     1    1    2 1   
     2    1   26 1   
     3    2    3 1   
     4    2   27 1   
     5    2   28 1   
     6    3    4 1   
     7    3    6 1   
     8    3   29 1   
     9    4    5 1   
    10    4   30 1   
    11    4   31 1   
    12    5   33 1   
    13    6    7 1   
    14    6   32 1   
    15    6   49 1   
    16    7   25 1   
    17    7   34 1   
    18    7   35 1   
    19    8   25 1   
    20    8   37 1   
    21    9   10 1   
    22    9   25 1   
    23    9   38 1   
    24    9   39 1   
    25   10   11 1   
    26   11   12 ar  
    27   11   24 ar  
    28   12   13 ar  
    29   12   17 ar  
    30   13   14 ar  
    31   13   41 1   
    32   14   15 ar  
    33   14   42 1   
    34   15   16 ar  
    35   15   43 1   
    36   16   17 ar  
    37   16   44 1   
    38   17   18 ar  
    39   18   19 ar  
    40   18   23 ar  
    41   19   20 ar  
    42   19   45 1   
    43   20   21 ar  
    44   20   46 1   
    45   21   22 ar  
    46   21   47 1   
    47   22   23 ar  
    48   22   48 1   
    49   23   24 ar  
    50   24   40 1   
    51   25   36 1   
@<TRIPOS>SUBSTRUCTURE
     1 XX7         1 TEMP              0 ****  ****    0 ROOT
