@<TRIPOS>MOLECULE
XX7
   49    51     1     0     0
SMALL
bcc


@<TRIPOS>ATOM
      1 O4          0.5630   -0.0040   -0.2380 oh        1 XX7     -0.612800
      2 C19         1.7930    0.4090    0.3030 c3        1 XX7      0.114400
      3 C18         1.8910    0.0310    1.8020 c3        1 XX7      0.073500
      4 C20         1.0820    1.0320    2.6510 c3        1 XX7      0.114400
      5 O3         -0.2670    0.9150    2.2360 oh        1 XX7     -0.612800
      6 N           1.3980   -1.3680    2.0330 n4        1 XX7     -0.747000
      7 C17         2.3540   -2.4090    1.5640 c3        1 XX7      0.102800
      8 O2          1.6280   -3.7970    3.3430 oh        1 XX7     -0.636800
      9 C15         2.9730   -4.8330    1.5790 c3        1 XX7      0.098400
     10 O1          2.4860   -6.0730    2.0880 os        1 XX7     -0.347900
     11 C10         3.4210   -7.1040    2.1460 ca        1 XX7      0.116100
     12 C5          3.0290   -8.1960    3.0060 ca        1 XX7     -0.045000
     13 C6          1.8130   -8.1670    3.7230 ca        1 XX7     -0.110000
     14 C1          1.4550   -9.2230    4.5370 ca        1 XX7     -0.124000
     15 C2          2.3070  -10.3340    4.6530 ca        1 XX7     -0.109000
     16 C3          3.5000  -10.3770    3.9560 ca        1 XX7     -0.118000
     17 C4          3.8940   -9.3120    3.1130 ca        1 XX7      0.003000
     18 C7          5.1360   -9.3350    2.3720 ca        1 XX7     -0.029000
     19 C11         6.0390  -10.4200    2.4450 ca        1 XX7     -0.110000
     20 C12         7.2160  -10.4180    1.7210 ca        1 XX7     -0.120000
     21 C13         7.5390   -9.3290    0.8930 ca        1 XX7     -0.112000
     22 C14         6.6760   -8.2550    0.8030 ca        1 XX7     -0.125000
     23 C8          5.4690   -8.2410    1.5380 ca        1 XX7     -0.020000
     24 C9          4.5830   -7.1190    1.4350 ca        1 XX7     -0.181000
     25 C16         1.8800   -3.8240    1.9480 c3        1 XX7      0.123100
     26 H4         -0.1150    0.6400    0.0180 ho        1 XX7      0.447000
     27 H191        1.9500    1.5160    0.2100 h1        1 XX7      0.078450
     28 H192        2.5770   -0.1350   -0.2910 h1        1 XX7      0.078450
     29 H18         2.9710    0.0840    2.1280 hx        1 XX7      0.115700
     30 H201        1.1730    0.8040    3.7480 h1        1 XX7      0.078450
     31 H202        1.4780    2.0650    2.4540 h1        1 XX7      0.078450
     32 H           0.5030   -1.4670    1.5250 hn        1 XX7      0.472800
     33 H3         -0.7750    1.6040    2.6880 ho        1 XX7      0.447000
     34 H171        3.3540   -2.2070    2.0430 hx        1 XX7      0.110200
     35 H172        2.4470   -2.3360    0.4440 hx        1 XX7      0.110200
     36 H16         0.9240   -4.0870    1.4100 h1        1 XX7      0.081700
     37 H2          1.6270   -4.7150    3.6620 ho        1 XX7      0.468000
     38 H151        3.0900   -4.8990    0.4660 h1        1 XX7      0.064200
     39 H152        3.9500   -4.5680    2.0610 h1        1 XX7      0.064200
     40 H9          4.8760   -6.2950    0.7690 ha        1 XX7      0.132000
     41 H6          1.1530   -7.2940    3.6160 ha        1 XX7      0.130000
     42 H1          0.5070   -9.2030    5.0950 ha        1 XX7      0.141000
     43 HA          2.0170  -11.1740    5.3030 ha        1 XX7      0.145000
     44 HB          4.1460  -11.2610    4.0620 ha        1 XX7      0.144000
     45 H11         5.8110  -11.2860    3.0850 ha        1 XX7      0.140000
     46 H12         7.9090  -11.2710    1.7880 ha        1 XX7      0.144000
     47 H13         8.4780   -9.3400    0.3190 ha        1 XX7      0.142000
     48 H14         6.9180   -7.3990    0.1560 ha        1 XX7      0.131000
     49 HN3         1.2160   -1.5130    3.0360 hn        1 XX7      0.472800
@<TRIPOS>BOND
     1    1    2 1   
     2    1   26 1   
     3    2    3 1   
     4    2   27 1   
     5    2   28 1   
     6    3    4 1   
     7    3    6 1   
     8    3   29 1   
     9    4    5 1   
    10    4   30 1   
    11    4   31 1   
    12    5   33 1   
    13    6    7 1   
    14    6   32 1   
    15    6   49 1   
    16    7   25 1   
    17    7   34 1   
    18    7   35 1   
    19    8   25 1   
    20    8   37 1   
    21    9   10 1   
    22    9   25 1   
    23    9   38 1   
    24    9   39 1   
    25   10   11 1   
    26   11   12 ar  
    27   11   24 ar  
    28   12   13 ar  
    29   12   17 ar  
    30   13   14 ar  
    31   13   41 1   
    32   14   15 ar  
    33   14   42 1   
    34   15   16 ar  
    35   15   43 1   
    36   16   17 ar  
    37   16   44 1   
    38   17   18 ar  
    39   18   19 ar  
    40   18   23 ar  
    41   19   20 ar  
    42   19   45 1   
    43   20   21 ar  
    44   20   46 1   
    45   21   22 ar  
    46   21   47 1   
    47   22   23 ar  
    48   22   48 1   
    49   23   24 ar  
    50   24   40 1   
    51   25   36 1   
@<TRIPOS>SUBSTRUCTURE
     1 XX7         1 TEMP              0 ****  ****    0 ROOT
