@<TRIPOS>MOLECULE
XX8
   32    33     1     0     0
SMALL
bcc


@<TRIPOS>ATOM
      1 CM2        -0.3170    0.2880   -0.6430 c3        1 XX8     -0.135400
      2 O01         8.2640   -3.1650    1.3250 oh        1 XX8     -0.601800
      3 C2          5.4380   -2.2190   -2.6330 ca        1 XX8     -0.118000
      4 C5          7.3180   -3.2650   -0.8510 ca        1 XX8     -0.087300
      5 C4          6.8180   -1.9740   -0.6630 ca        1 XX8     -0.117000
      6 C01         5.8710   -1.4460   -1.5490 ca        1 XX8     -0.091300
      7 C7A         5.3530   -0.0600   -1.3560 c3        1 XX8      0.024200
      8 C4A         3.2450   -0.5230    0.0270 ca        1 XX8      0.685200
      9 N3A         1.8790   -0.4380    0.1770 nb        1 XX8     -0.766000
     10 C2A         1.1800    0.1790   -0.8140 ca        1 XX8      0.682300
     11 N1A         1.7150    0.7110   -1.9620 nb        1 XX8     -0.739000
     12 C6A         3.0470    0.6040   -2.0990 ca        1 XX8      0.459200
     13 C5A         3.8860   -0.0030   -1.1490 ca        1 XX8     -0.380900
     14 C28         6.8750   -4.0330   -1.9330 ca        1 XX8     -0.129000
     15 C30         5.9400   -3.5060   -2.8220 ca        1 XX8     -0.126000
     16 H1         -0.6040    1.3680   -0.5970 hc        1 XX8      0.061033
     17 H2         -0.8290   -0.1840   -1.5180 hc        1 XX8      0.061033
     18 H3         -0.6590   -0.2170    0.2920 hc        1 XX8      0.061033
     19 H4          3.5170   -1.5490    1.7770 hn        1 XX8      0.424300
     20 H5          4.8850   -1.4340    0.7980 hn        1 XX8      0.424300
     21 H6          8.9590   -3.5410    1.8770 ho        1 XX8      0.405000
     22 H7          8.1550   -4.9370    0.2290 h1        1 XX8      0.033700
     23 H8          9.3660   -3.7010   -0.3660 h1        1 XX8      0.033700
     24 H9          4.6960   -1.8070   -3.3320 ha        1 XX8      0.138000
     25 H10         7.1780   -1.3760    0.1900 ha        1 XX8      0.152000
     26 H11         5.8700    0.4230   -0.4800 hc        1 XX8      0.060200
     27 H12         5.6250    0.5470   -2.2660 hc        1 XX8      0.060200
     28 H13         3.4700    1.0330   -3.0270 h4        1 XX8      0.021100
     29 H14         7.2640   -5.0510   -2.0820 ha        1 XX8      0.132000
     30 H15         5.5950   -4.1080   -3.6750 ha        1 XX8      0.135000
     31 N4A         4.0020   -1.0570    1.0610 nh        1 XX8     -0.935500
     32 C6          8.3400   -3.8380    0.0760 c3        1 XX8      0.175700
@<TRIPOS>BOND
     1    1   10 1   
     2    1   16 1   
     3    1   17 1   
     4    1   18 1   
     5    2   21 1   
     6    2   32 1   
     7    3    6 ar  
     8    3   15 ar  
     9    3   24 1   
    10    4    5 ar  
    11    4   14 ar  
    12    4   32 1   
    13    5    6 ar  
    14    5   25 1   
    15    6    7 1   
    16    7   13 1   
    17    7   26 1   
    18    7   27 1   
    19    8    9 ar  
    20    8   13 ar  
    21    8   31 1   
    22    9   10 ar  
    23   10   11 ar  
    24   11   12 ar  
    25   12   13 ar  
    26   12   28 1   
    27   14   15 ar  
    28   14   29 1   
    29   15   30 1   
    30   19   31 1   
    31   20   31 1   
    32   22   32 1   
    33   23   32 1   
@<TRIPOS>SUBSTRUCTURE
     1 XX8         1 TEMP              0 ****  ****    0 ROOT
