@<TRIPOS>MOLECULE
XX9
   60    62     1     0     0
SMALL
bcc


@<TRIPOS>ATOM
      1 CLH         0.5280    0.7970   -0.3530 cl        1 XX9     -0.069400
      2 CAW         2.1360    0.2810   -0.1720 ca        1 XX9      0.091900
      3 CAQ         2.6880    0.2760    1.1070 ca        1 XX9     -0.201500
      4 CBA         4.0250   -0.1430    1.3140 ca        1 XX9      0.201600
      5 NBD         4.5640   -0.2320    2.6040 nh        1 XX9     -0.659000
      6 CAB         5.9930   -0.3510    2.7310 c3        1 XX9      0.186600
      7 CAA         3.8680    0.4340    3.6740 c3        1 XX9      0.186600
      8 CAR         4.7810   -0.5330    0.1800 ca        1 XX9     -0.201500
      9 CAX         4.2070   -0.5220   -1.0880 ca        1 XX9      0.091900
     10 CLI         5.1650   -1.0000   -2.4100 cl        1 XX9     -0.069400
     11 CBC         2.8790   -0.1230   -1.2900 ca        1 XX9     -0.172600
     12 CAU         2.3060   -0.0290   -2.6680 c         1 XX9      0.694700
     13 OAF         2.2590    1.0650   -3.2560 o         1 XX9     -0.566100
     14 NBE         1.8700   -1.2050   -3.2810 n         1 XX9     -0.381000
     15 CAT         1.7770   -2.4570   -2.5660 c3        1 XX9      0.146300
     16 CAY         0.4920   -2.7240   -1.8310 ca        1 XX9     -0.111300
     17 CAN         0.5530   -3.3480   -0.5780 ca        1 XX9     -0.117500
     18 CAK        -0.6190   -3.6650    0.1060 ca        1 XX9     -0.130500
     19 CAJ        -1.8600   -3.3580   -0.4520 ca        1 XX9     -0.127000
     20 CAL        -1.9250   -2.7350   -1.6980 ca        1 XX9     -0.130500
     21 CAO        -0.7540   -2.4210   -2.3870 ca        1 XX9     -0.117500
     22 CAZ         1.3590   -1.1670   -4.6110 ca        1 XX9      0.016600
     23 CAS         0.3740   -0.2270   -4.9840 ca        1 XX9     -0.097000
     24 CAP         1.8470   -2.0660   -5.5790 ca        1 XX9     -0.106000
     25 CAM         1.3350   -2.0340   -6.8690 ca        1 XX9     -0.208000
     26 CAV         0.3490   -1.1020   -7.2210 ca        1 XX9      0.122100
     27 OAG        -0.1620   -1.0780   -8.5010 oh        1 XX9     -0.498100
     28 CBB        -0.1450   -0.1710   -6.2790 ca        1 XX9     -0.073300
     29 CBF        -1.1910    0.8480   -6.6580 c3        1 XX9      0.005300
     30 CAD        -2.4590    0.1360   -7.1230 c3        1 XX9     -0.089433
     31 CAE        -1.5680    1.7550   -5.4900 c3        1 XX9     -0.089433
     32 CAC        -0.6600    1.7350   -7.7820 c3        1 XX9     -0.089433
     33 H1          2.0620    0.6040    1.9520 ha        1 XX9      0.154500
     34 H2          6.2850   -0.3110    3.8140 h1        1 XX9      0.043200
     35 H3          6.5390    0.4640    2.1810 h1        1 XX9      0.043200
     36 H4          6.3160   -1.3450    2.3180 h1        1 XX9      0.043200
     37 H5          4.4520    0.3390    4.6270 h1        1 XX9      0.043200
     38 H6          2.8690   -0.0590    3.8250 h1        1 XX9      0.043200
     39 H7          3.7020    1.5260    3.4610 h1        1 XX9      0.043200
     40 H8          5.8310   -0.8490    0.2830 ha        1 XX9      0.154500
     41 H9          2.6360   -2.5100   -1.8350 h1        1 XX9      0.063200
     42 H10         1.9140   -3.2970   -3.3110 h1        1 XX9      0.063200
     43 H11         1.5280   -3.5880   -0.1300 ha        1 XX9      0.137500
     44 H12        -0.5640   -4.1550    1.0890 ha        1 XX9      0.131000
     45 H13        -2.7850   -3.6070    0.0890 ha        1 XX9      0.131000
     46 H14        -2.9010   -2.4910   -2.1410 ha        1 XX9      0.131000
     47 H15        -0.8140   -1.9300   -3.3710 ha        1 XX9      0.137500
     48 H16         0.0380    0.4980   -4.2230 ha        1 XX9      0.160000
     49 H17         2.6330   -2.7940   -5.3300 ha        1 XX9      0.137000
     50 H18         1.7120   -2.7410   -7.6220 ha        1 XX9      0.133000
     51 H19         0.3100   -1.7440   -9.0220 ho        1 XX9      0.415000
     52 H20        -2.2540   -0.4860   -8.0270 hc        1 XX9      0.039256
     53 H21        -2.8520   -0.5230   -6.3130 hc        1 XX9      0.039256
     54 H22        -3.2410    0.8900   -7.3820 hc        1 XX9      0.039256
     55 H23        -0.6790    2.3250   -5.1280 hc        1 XX9      0.039256
     56 H24        -2.3410    2.4900   -5.8260 hc        1 XX9      0.039256
     57 H25        -1.9950    1.1610   -4.6480 hc        1 XX9      0.039256
     58 H26         0.2730    2.2520   -7.4550 hc        1 XX9      0.039256
     59 H27        -1.4240    2.5050   -8.0470 hc        1 XX9      0.039256
     60 H28        -0.4380    1.1280   -8.6910 hc        1 XX9      0.039256
@<TRIPOS>BOND
     1    1    2 1   
     2    2    3 ar  
     3    2   11 ar  
     4    3    4 ar  
     5    3   33 1   
     6    4    5 1   
     7    4    8 ar  
     8    5    6 1   
     9    5    7 1   
    10    6   34 1   
    11    6   35 1   
    12    6   36 1   
    13    7   37 1   
    14    7   38 1   
    15    7   39 1   
    16    8    9 ar  
    17    8   40 1   
    18    9   10 1   
    19    9   11 ar  
    20   11   12 1   
    21   12   13 2   
    22   12   14 1   
    23   14   15 1   
    24   14   22 1   
    25   15   16 1   
    26   15   41 1   
    27   15   42 1   
    28   16   17 ar  
    29   16   21 ar  
    30   17   18 ar  
    31   17   43 1   
    32   18   19 ar  
    33   18   44 1   
    34   19   20 ar  
    35   19   45 1   
    36   20   21 ar  
    37   20   46 1   
    38   21   47 1   
    39   22   23 ar  
    40   22   24 ar  
    41   23   28 ar  
    42   23   48 1   
    43   24   25 ar  
    44   24   49 1   
    45   25   26 ar  
    46   25   50 1   
    47   26   27 1   
    48   26   28 ar  
    49   27   51 1   
    50   28   29 1   
    51   29   30 1   
    52   29   31 1   
    53   29   32 1   
    54   30   52 1   
    55   30   53 1   
    56   30   54 1   
    57   31   55 1   
    58   31   56 1   
    59   31   57 1   
    60   32   58 1   
    61   32   59 1   
    62   32   60 1   
@<TRIPOS>SUBSTRUCTURE
     1 XX9         1 TEMP              0 ****  ****    0 ROOT
