@<TRIPOS>MOLECULE
XX9
   60    62     1     0     0
SMALL
bcc


@<TRIPOS>ATOM
      1 ClH         0.5270    0.7950   -0.3520 cl        1 XX9     -0.069400
      2 CAW         2.1350    0.2770   -0.1700 ca        1 XX9      0.091900
      3 CAQ         2.6840    0.2690    1.1100 ca        1 XX9     -0.201500
      4 CBA         4.0210   -0.1510    1.3180 ca        1 XX9      0.201600
      5 NBD         4.5580   -0.2420    2.6080 nh        1 XX9     -0.659000
      6 CAB         5.9870   -0.3630    2.7380 c3        1 XX9      0.186600
      7 CAA         3.8610    0.4240    3.6780 c3        1 XX9      0.186600
      8 CAR         4.7780   -0.5410    0.1840 ca        1 XX9     -0.201500
      9 CAX         4.2050   -0.5280   -1.0840 ca        1 XX9      0.091900
     10 ClI         5.1640   -1.0060   -2.4060 cl        1 XX9     -0.069400
     11 CBC         2.8780   -0.1270   -1.2870 ca        1 XX9     -0.172600
     12 CAU         2.3070   -0.0310   -2.6660 c         1 XX9      0.694700
     13 OAF         2.2610    1.0640   -3.2530 o         1 XX9     -0.566100
     14 NBE         1.8700   -1.2050   -3.2810 n         1 XX9     -0.381000
     15 CAT         1.7750   -2.4580   -2.5680 c3        1 XX9      0.146300
     16 CAY         0.4890   -2.7250   -1.8340 ca        1 XX9     -0.111300
     17 CAN         0.5480   -3.3500   -0.5830 ca        1 XX9     -0.117500
     18 CAK        -0.6250   -3.6660    0.1000 ca        1 XX9     -0.130500
     19 CAJ        -1.8650   -3.3570   -0.4590 ca        1 XX9     -0.127000
     20 CAL        -1.9280   -2.7330   -1.7040 ca        1 XX9     -0.130500
     21 CAO        -0.7560   -2.4190   -2.3910 ca        1 XX9     -0.117500
     22 CAZ         1.3610   -1.1650   -4.6120 ca        1 XX9      0.016600
     23 CAS         0.3770   -0.2240   -4.9850 ca        1 XX9     -0.097000
     24 CAP         1.8480   -2.0630   -5.5800 ca        1 XX9     -0.106000
     25 CAM         1.3380   -2.0290   -6.8700 ca        1 XX9     -0.208000
     26 CAV         0.3540   -1.0960   -7.2220 ca        1 XX9      0.122100
     27 OAG        -0.1550   -1.0690   -8.5040 oh        1 XX9     -0.498100
     28 CBB        -0.1410   -0.1640   -6.2800 ca        1 XX9     -0.073300
     29 CBF        -1.1840    0.8550   -6.6590 c3        1 XX9      0.005300
     30 CAD        -2.4530    0.1460   -7.1260 c3        1 XX9     -0.089433
     31 CAE        -1.5620    1.7620   -5.4900 c3        1 XX9     -0.089433
     32 CAC        -0.6520    1.7430   -7.7810 c3        1 XX9     -0.089433
     33 H1          2.0580    0.5970    1.9540 ha        1 XX9      0.154500
     34 H2          6.5340    0.4520    2.1890 h1        1 XX9      0.043200
     35 H3          6.2780   -0.3240    3.8200 h1        1 XX9      0.043200
     36 H4          6.3090   -1.3560    2.3230 h1        1 XX9      0.043200
     37 H5          3.6970    1.5150    3.4660 h1        1 XX9      0.043200
     38 H6          4.4440    0.3270    4.6310 h1        1 XX9      0.043200
     39 H7          2.8620   -0.0690    3.8280 h1        1 XX9      0.043200
     40 H8          5.8270   -0.8580    0.2890 ha        1 XX9      0.154500
     41 H9          2.6340   -2.5130   -1.8360 h1        1 XX9      0.063200
     42 H10         1.9120   -3.2970   -3.3140 h1        1 XX9      0.063200
     43 H11         1.5230   -3.5930   -0.1340 ha        1 XX9      0.137500
     44 H12        -0.5710   -4.1580    1.0820 ha        1 XX9      0.131000
     45 H13        -2.7900   -3.6050    0.0820 ha        1 XX9      0.131000
     46 H14        -2.9040   -2.4870   -2.1480 ha        1 XX9      0.131000
     47 H15        -0.8140   -1.9260   -3.3750 ha        1 XX9      0.137500
     48 H16         0.0410    0.5010   -4.2230 ha        1 XX9      0.160000
     49 H17         2.6340   -2.7930   -5.3310 ha        1 XX9      0.137000
     50 H18         1.7160   -2.7360   -7.6240 ha        1 XX9      0.133000
     51 H19         0.3160   -1.7350   -9.0250 ho        1 XX9      0.415000
     52 H20        -2.8470   -0.5130   -6.3170 hc        1 XX9      0.039256
     53 H21        -3.2340    0.9010   -7.3850 hc        1 XX9      0.039256
     54 H22        -2.2470   -0.4760   -8.0300 hc        1 XX9      0.039256
     55 H23        -2.3330    2.4980   -5.8260 hc        1 XX9      0.039256
     56 H24        -0.6720    2.3300   -5.1260 hc        1 XX9      0.039256
     57 H25        -1.9900    1.1670   -4.6490 hc        1 XX9      0.039256
     58 H26        -0.4290    1.1370   -8.6910 hc        1 XX9      0.039256
     59 H27        -1.4140    2.5150   -8.0460 hc        1 XX9      0.039256
     60 H28         0.2820    2.2590   -7.4530 hc        1 XX9      0.039256
@<TRIPOS>BOND
     1    1    2 1   
     2    2    3 ar  
     3    2   11 ar  
     4    3    4 ar  
     5    3   33 1   
     6    4    5 1   
     7    4    8 ar  
     8    5    6 1   
     9    5    7 1   
    10    6   34 1   
    11    6   35 1   
    12    6   36 1   
    13    7   37 1   
    14    7   38 1   
    15    7   39 1   
    16    8    9 ar  
    17    8   40 1   
    18    9   10 1   
    19    9   11 ar  
    20   11   12 1   
    21   12   13 2   
    22   12   14 1   
    23   14   15 1   
    24   14   22 1   
    25   15   16 1   
    26   15   41 1   
    27   15   42 1   
    28   16   17 ar  
    29   16   21 ar  
    30   17   18 ar  
    31   17   43 1   
    32   18   19 ar  
    33   18   44 1   
    34   19   20 ar  
    35   19   45 1   
    36   20   21 ar  
    37   20   46 1   
    38   21   47 1   
    39   22   23 ar  
    40   22   24 ar  
    41   23   28 ar  
    42   23   48 1   
    43   24   25 ar  
    44   24   49 1   
    45   25   26 ar  
    46   25   50 1   
    47   26   27 1   
    48   26   28 ar  
    49   27   51 1   
    50   28   29 1   
    51   29   30 1   
    52   29   31 1   
    53   29   32 1   
    54   30   52 1   
    55   30   53 1   
    56   30   54 1   
    57   31   55 1   
    58   31   56 1   
    59   31   57 1   
    60   32   58 1   
    61   32   59 1   
    62   32   60 1   
@<TRIPOS>SUBSTRUCTURE
     1 XX9         1 TEMP              0 ****  ****    0 ROOT
