@<TRIPOS>MOLECULE
XXA
   33    32     1     0     0
SMALL
bcc


@<TRIPOS>ATOM
      1 C           3.2460   -0.4970    0.1740 c         1 XXA      0.885600
      2 N           2.0970    1.7390   -0.1450 n3        1 XXA     -0.803200
      3 O           3.6200   -0.6520   -1.0270 o         1 XXA     -0.836800
      4 CA          1.9850    0.3970    0.4200 c3        1 XXA     -0.005500
      5 CB          0.7660   -0.3680   -0.1410 c3        1 XXA      0.174100
      6 CH         -5.4680    0.1750   -0.1120 ce        1 XXA     -0.103000
      7 CT         -6.6380   -0.4470    0.0590 c2        1 XXA     -0.250000
      8 CZ         -4.1910   -0.5060   -0.1360 ce        1 XXA     -0.198000
      9 CD2        -1.7140   -0.5550   -0.3740 c3        1 XXA     -0.063200
     10 OG1         0.8190   -0.4870   -1.5580 oh        1 XXA     -0.655800
     11 CG2        -0.5800    0.2950    0.1910 c3        1 XXA     -0.058700
     12 OXT         3.8110   -1.0080    1.1750 o         1 XXA     -0.836800
     13 H1          2.1620    1.6420   -1.1460 hn        1 XXA      0.353800
     14 HA          1.8550    0.5030    1.5340 h1        1 XXA      0.056700
     15 HB          0.7890   -1.4030    0.3060 h1        1 XXA      0.030700
     16 HE         -2.9910    1.2280   -0.4480 ha        1 XXA      0.118000
     17 HH         -5.4330    1.2710   -0.2460 ha        1 XXA      0.112000
     18 HN          3.3200    3.4360   -0.1860 h1        1 XXA      0.020367
     19 HNA         3.1370    2.6320    1.4400 h1        1 XXA      0.020367
     20 H8          4.2240    1.8930    0.1840 h1        1 XXA      0.020367
     21 HT         -7.5910    0.0950    0.0730 ha        1 XXA      0.103000
     22 HTA        -6.7170   -1.5330    0.1950 ha        1 XXA      0.103000
     23 HZ         -4.2180   -1.6000    0.0030 ha        1 XXA      0.120000
     24 HD1        -0.0640    1.2780    2.0560 hc        1 XXA      0.030033
     25 HD1A       -1.7980    0.7680    1.9200 hc        1 XXA      0.030033
     26 HD1B       -0.5090   -0.4710    2.2260 hc        1 XXA      0.030033
     27 HD2        -1.7530   -1.5350    0.1720 hc        1 XXA      0.062700
     28 HD2A       -1.4810   -0.7840   -1.4530 hc        1 XXA      0.062700
     29 HOG1        1.7440   -0.6790   -1.7930 ho        1 XXA      0.451000
     30 HG2        -0.6040    1.3020   -0.3100 hc        1 XXA      0.064700
     31 CD1        -0.7460    0.4760    1.6830 c3        1 XXA     -0.087100
     32 CN          3.2570    2.4480    0.3400 c3        1 XXA      0.151100
     33 CE         -3.0240    0.1320   -0.3150 c2        1 XXA     -0.104200
@<TRIPOS>BOND
     1    1    3 1   
     2    1    4 1   
     3    1   12 1   
     4    2    4 1   
     5    2   13 1   
     6    2   32 1   
     7    4    5 1   
     8    4   14 1   
     9    5   10 1   
    10    5   11 1   
    11    5   15 1   
    12    6    7 2   
    13    6    8 1   
    14    6   17 1   
    15    7   21 1   
    16    7   22 1   
    17    8   23 1   
    18    8   33 2   
    19    9   11 1   
    20    9   27 1   
    21    9   28 1   
    22    9   33 1   
    23   10   29 1   
    24   11   30 1   
    25   11   31 1   
    26   16   33 1   
    27   18   32 1   
    28   19   32 1   
    29   20   32 1   
    30   24   31 1   
    31   25   31 1   
    32   26   31 1   
@<TRIPOS>SUBSTRUCTURE
     1 XXA         1 TEMP              0 ****  ****    0 ROOT
