@<TRIPOS>MOLECULE
XXB
   23    23     1     0     0
SMALL
bcc


@<TRIPOS>ATOM
      1 C1         -1.6400   -1.5620    0.4130 c         1 XXB      0.935200
      2 N1         -0.4130    0.7500    0.2540 na        1 XXB      0.102400
      3 O1         -2.6880   -2.1450    0.0240 o         1 XXB     -0.820300
      4 C2         -1.5350   -0.0840    0.0940 cc        1 XXB     -0.116900
      5 N2         -0.6680    2.0150   -0.1230 nc        1 XXB     -0.577800
      6 O2         -0.7040   -2.1310    1.0440 o         1 XXB     -0.820300
      7 C3         -2.5600    0.7440   -0.4050 cd        1 XXB     -0.316300
      8 C4         -1.9670    2.0500   -0.5230 cd        1 XXB      0.259200
      9 C6          2.0030    0.4670   -0.3350 c3        1 XXB     -0.092400
     10 C7          3.3070   -0.0540    0.2310 c3        1 XXB     -0.080400
     11 C8          4.4280    0.0640   -0.7700 c3        1 XXB     -0.088100
     12 H3         -3.5700    0.4390   -0.6450 ha        1 XXB      0.160000
     13 H4         -2.4330    2.9690   -0.8710 h4        1 XXB      0.008100
     14 H5          1.1760    0.9370    1.6150 h1        1 XXB      0.083200
     15 H5A         0.8020   -0.7610    1.0210 h1        1 XXB      0.083200
     16 H6          1.7350   -0.1130   -1.2560 hc        1 XXB      0.046700
     17 H6A         2.1220    1.5400   -0.6350 hc        1 XXB      0.046700
     18 H7          3.5700    0.5190    1.1590 hc        1 XXB      0.039700
     19 H7A         3.1800   -1.1290    0.5300 hc        1 XXB      0.039700
     20 H8          4.1950   -0.5230   -1.6910 hc        1 XXB      0.024700
     21 H8A         4.5820    1.1300   -1.0650 hc        1 XXB      0.024700
     22 H8B         5.3810   -0.3230   -0.3360 hc        1 XXB      0.024700
     23 C5          0.8960    0.3240    0.7100 c3        1 XXB      0.035300
@<TRIPOS>BOND
     1    1    3 1   
     2    1    4 1   
     3    1    6 1   
     4    2    4 1   
     5    2    5 1   
     6    2   23 1   
     7    4    7 2   
     8    5    8 2   
     9    7    8 1   
    10    7   12 1   
    11    8   13 1   
    12    9   10 1   
    13    9   16 1   
    14    9   17 1   
    15    9   23 1   
    16   10   11 1   
    17   10   18 1   
    18   10   19 1   
    19   11   20 1   
    20   11   21 1   
    21   11   22 1   
    22   14   23 1   
    23   15   23 1   
@<TRIPOS>SUBSTRUCTURE
     1 XXB         1 TEMP              0 ****  ****    0 ROOT
