@<TRIPOS>MOLECULE
XXB
   23    20     1     0     0
SMALL
bcc


@<TRIPOS>ATOM
      1 C1         -1.1150   -0.6990    0.9280 c         1 XXB      0.902800
      2 N1         -2.1870    1.4460    0.1040 ne        1 XXB     -0.586300
      3 O1          0.0120   -1.2370    1.1230 o         1 XXB     -0.839300
      4 C2         -1.2070    0.8270    0.9050 ce        1 XXB      0.038400
      5 N2         -0.9020   -4.0750    1.2600 n1        1 XXB     -0.808200
      6 O2         -2.1650   -1.3970    0.7890 o         1 XXB     -0.839300
      7 C3         -0.2870    1.5330    1.5920 c2        1 XXB     -0.251000
      8 C4         -0.8410   -5.2350    1.4280 c1        1 XXB      0.277800
      9 C6         -4.1970    0.8020    1.4750 c3        1 XXB     -0.199400
     10 C7         -3.7630   -2.2540   -1.9710 c2        1 XXB     -0.230500
     11 C8         -4.7930   -3.0730   -2.1350 c2        1 XXB     -0.230500
     12 H3         -0.2820    2.6260    1.6640 ha        1 XXB      0.107000
     13 H4          0.5250    1.0050    2.1070 ha        1 XXB      0.107000
     14 H5         -0.9520   -3.0960    1.1220 hn        1 XXB      0.507400
     15 H5A        -4.0760    1.9330   -0.4080 h4        1 XXB     -0.022200
     16 H6         -5.2940    0.8240    1.2720 hc        1 XXB      0.054700
     17 H6A        -3.9990    1.3550    2.4260 hc        1 XXB      0.054700
     18 H7         -3.8690   -0.2650    1.6080 hc        1 XXB      0.054700
     19 H7A        -3.2750   -2.0750   -0.9950 ha        1 XXB      0.114250
     20 H8         -3.3230   -1.6930   -2.8080 ha        1 XXB      0.114250
     21 H8A        -5.2720   -3.2460   -3.1070 ha        1 XXB      0.114250
     22 H8B        -5.2340   -3.6370   -1.3030 ha        1 XXB      0.114250
     23 C5         -3.4450    1.4190    0.3480 c2        1 XXB      0.446200
@<TRIPOS>BOND
     1    1    3 1   
     2    1    4 1   
     3    1    6 1   
     4    2    4 1   
     5    2   23 2   
     6    4    7 2   
     7    5    8 3   
     8    5   14 1   
     9    7   12 1   
    10    7   13 1   
    11    9   16 1   
    12    9   17 1   
    13    9   18 1   
    14    9   23 1   
    15   10   11 2   
    16   10   19 1   
    17   10   20 1   
    18   11   21 1   
    19   11   22 1   
    20   15   23 1   
@<TRIPOS>SUBSTRUCTURE
     1 XXB         1 TEMP              0 ****  ****    0 ROOT
