@<TRIPOS>MOLECULE
XXB
   23    20     1     0     0
SMALL
bcc


@<TRIPOS>ATOM
      1 C1         -2.5310   -0.5440    0.3750 c         1 XXB      0.915800
      2 N1         -2.5600   -1.3880    2.7590 ne        1 XXB     -0.582300
      3 O1         -2.4910    0.6200   -0.1210 o         1 XXB     -0.827800
      4 C2         -1.8310   -0.7740    1.7240 ce        1 XXB      0.034400
      5 N2         -1.5100    2.9070    1.3950 n1        1 XXB     -0.827200
      6 O2         -3.0830   -1.5240   -0.1940 o         1 XXB     -0.827800
      7 C3         -0.5810   -0.3030    1.8850 c2        1 XXB     -0.274000
      8 C4         -1.1710    3.9370    1.8450 c1        1 XXB      0.301800
      9 C6         -2.4830   -3.7450    1.8810 c3        1 XXB     -0.201400
     10 C7         -4.0860    0.1010   -2.9470 c2        1 XXB     -0.232500
     11 C8         -4.7000   -0.6370   -3.8620 c2        1 XXB     -0.232500
     12 H3          0.0170   -0.4440    2.7920 ha        1 XXB      0.104000
     13 H4         -0.1040    0.2690    1.0790 ha        1 XXB      0.104000
     14 H5         -1.8020    2.0420    1.0100 hn        1 XXB      0.499400
     15 H5A        -3.4530   -2.9410    3.6860 h4        1 XXB     -0.021200
     16 H6         -3.1430   -4.6270    2.0570 hc        1 XXB      0.055367
     17 H6A        -1.4220   -4.0550    2.0420 hc        1 XXB      0.055367
     18 H7         -2.6020   -3.4060    0.8150 hc        1 XXB      0.055367
     19 H7A        -3.6990   -0.3010   -1.9880 ha        1 XXB      0.114750
     20 H8         -3.9160    1.1790   -3.0810 ha        1 XXB      0.114750
     21 H8A        -5.0790   -0.2280   -4.8080 ha        1 XXB      0.114750
     22 H8B        -4.8710   -1.7130   -3.7310 ha        1 XXB      0.114750
     23 C5         -2.8400   -2.6370    2.8100 c2        1 XXB      0.442200
@<TRIPOS>BOND
     1    1    3 1   
     2    1    4 1   
     3    1    6 1   
     4    2    4 1   
     5    2   23 2   
     6    4    7 2   
     7    5    8 3   
     8    5   14 1   
     9    7   12 1   
    10    7   13 1   
    11    9   16 1   
    12    9   17 1   
    13    9   18 1   
    14    9   23 1   
    15   10   11 2   
    16   10   19 1   
    17   10   20 1   
    18   11   21 1   
    19   11   22 1   
    20   15   23 1   
@<TRIPOS>SUBSTRUCTURE
     1 XXB         1 TEMP              0 ****  ****    0 ROOT
