@<TRIPOS>MOLECULE
XXC
   32    32     1     0     0
SMALL
bcc


@<TRIPOS>ATOM
      1 O2          0.1510    1.0390    0.0750 o         1 XXC     -0.853300
      2 C10         1.1350    0.2450    0.0430 c         1 XXC      0.907600
      3 O1          1.5280   -0.4300    1.0380 o         1 XXC     -0.853300
      4 C6          1.9220    0.1030   -1.2730 c3        1 XXC     -0.194400
      5 C4          0.9930   -0.0520   -2.4520 c3        1 XXC     -0.065400
      6 C2          1.7380    0.0010   -3.7700 c3        1 XXC     -0.078400
      7 C1          0.7970   -0.1700   -4.9430 c3        1 XXC     -0.080400
      8 C3          1.5370   -0.0980   -6.2620 c3        1 XXC     -0.075400
      9 C5          0.5850   -0.2690   -7.4320 c3        1 XXC     -0.042100
     10 C7          1.2810   -0.1530   -8.7420 ca        1 XXC     -0.064300
     11 C9          1.4630   -1.2770   -9.5560 ca        1 XXC     -0.129500
     12 C12         2.1080   -1.1600  -10.7860 ca        1 XXC     -0.132000
     13 C13         2.5770    0.0810  -11.2160 ca        1 XXC     -0.143000
     14 C11         2.4000    1.2060  -10.4100 ca        1 XXC     -0.132000
     15 C8          1.7550    1.0900   -9.1800 ca        1 XXC     -0.129500
     16 H2          2.6110   -0.7740   -1.2010 hc        1 XXC      0.018700
     17 H3          2.5480    1.0230   -1.3980 hc        1 XXC      0.018700
     18 H4          0.2220    0.7630   -2.4110 hc        1 XXC      0.044200
     19 H5          0.4470   -1.0280   -2.3710 hc        1 XXC      0.044200
     20 H6          2.2730    0.9830   -3.8590 hc        1 XXC      0.027200
     21 H7          2.5200   -0.8030   -3.7950 hc        1 XXC      0.027200
     22 H8          0.0090    0.6280   -4.9090 hc        1 XXC      0.036700
     23 H9          0.2710   -1.1570   -4.8600 hc        1 XXC      0.036700
     24 H10         2.3240   -0.8970   -6.2980 hc        1 XXC      0.039700
     25 H11         2.0620    0.8890   -6.3480 hc        1 XXC      0.039700
     26 H12         0.0770   -1.2670   -7.3520 hc        1 XXC      0.047700
     27 H13        -0.2180    0.5160   -7.3710 hc        1 XXC      0.047700
     28 H14         1.0980   -2.2590   -9.2200 ha        1 XXC      0.133500
     29 H15         2.2480   -2.0490  -11.4170 ha        1 XXC      0.124000
     30 H16         3.0860    0.1720  -12.1860 ha        1 XXC      0.122000
     31 H17         2.7700    2.1850  -10.7450 ha        1 XXC      0.124000
     32 H18         1.6180    1.9770   -8.5430 ha        1 XXC      0.133500
@<TRIPOS>BOND
     1    1    2 1   
     2    2    3 1   
     3    2    4 1   
     4    4    5 1   
     5    4   16 1   
     6    4   17 1   
     7    5    6 1   
     8    5   18 1   
     9    5   19 1   
    10    6    7 1   
    11    6   20 1   
    12    6   21 1   
    13    7    8 1   
    14    7   22 1   
    15    7   23 1   
    16    8    9 1   
    17    8   24 1   
    18    8   25 1   
    19    9   10 1   
    20    9   26 1   
    21    9   27 1   
    22   10   11 ar  
    23   10   15 ar  
    24   11   12 ar  
    25   11   28 1   
    26   12   13 ar  
    27   12   29 1   
    28   13   14 ar  
    29   13   30 1   
    30   14   15 ar  
    31   14   31 1   
    32   15   32 1   
@<TRIPOS>SUBSTRUCTURE
     1 XXC         1 TEMP              0 ****  ****    0 ROOT
