@<TRIPOS>MOLECULE
XXC
   32    32     1     0     0
SMALL
bcc


@<TRIPOS>ATOM
      1 O2          0.0880   -1.0200    0.0740 o         1 XXC     -0.853300
      2 C10         1.1170   -0.2840    0.0420 c         1 XXC      0.907600
      3 O1          1.5460    0.3670    1.0380 o         1 XXC     -0.853300
      4 C6          1.9110   -0.1870   -1.2730 c3        1 XXC     -0.194400
      5 C4          0.9930    0.0220   -2.4520 c3        1 XXC     -0.065400
      6 C2          1.7350   -0.0740   -3.7700 c3        1 XXC     -0.078400
      7 C1          0.8060    0.1510   -4.9440 c3        1 XXC     -0.080400
      8 C3          1.5410    0.0370   -6.2620 c3        1 XXC     -0.075400
      9 C5          0.6010    0.2630   -7.4320 c3        1 XXC     -0.042100
     10 C7          1.2900    0.1070   -8.7420 ca        1 XXC     -0.064300
     11 C9          1.6900   -1.1620   -9.1810 ca        1 XXC     -0.129500
     12 C12         2.3270   -1.3150  -10.4100 ca        1 XXC     -0.132000
     13 C13         2.5720   -0.2020  -11.2150 ca        1 XXC     -0.143000
     14 C11         2.1780    1.0640  -10.7850 ca        1 XXC     -0.132000
     15 C8          1.5400    1.2190   -9.5550 ca        1 XXC     -0.129500
     16 H2          2.4830   -1.1410   -1.3970 hc        1 XXC      0.018700
     17 H3          2.6490    0.6500   -1.2000 hc        1 XXC      0.018700
     18 H4          0.5040    1.0280   -2.3710 hc        1 XXC      0.044200
     19 H5          0.1760   -0.7470   -2.4120 hc        1 XXC      0.044200
     20 H6          2.5610    0.6840   -3.7940 hc        1 XXC      0.027200
     21 H7          2.2120   -1.0850   -3.8590 hc        1 XXC      0.027200
     22 H8          0.3380    1.1670   -4.8610 hc        1 XXC      0.036700
     23 H9         -0.0270   -0.5990   -4.9100 hc        1 XXC      0.036700
     24 H10         2.0080   -0.9790   -6.3480 hc        1 XXC      0.039700
     25 H11         2.3730    0.7880   -6.2970 hc        1 XXC      0.039700
     26 H12        -0.2460   -0.4730   -7.3720 hc        1 XXC      0.047700
     27 H13         0.1530    1.2900   -7.3520 hc        1 XXC      0.047700
     28 H14         1.5000   -2.0390   -8.5440 ha        1 XXC      0.133500
     29 H15         2.6390   -2.3140  -10.7450 ha        1 XXC      0.124000
     30 H16         3.0750   -0.3230  -12.1850 ha        1 XXC      0.122000
     31 H17         2.3710    1.9440  -11.4150 ha        1 XXC      0.124000
     32 H18         1.2330    2.2210   -9.2180 ha        1 XXC      0.133500
@<TRIPOS>BOND
     1    1    2 1   
     2    2    3 1   
     3    2    4 1   
     4    4    5 1   
     5    4   16 1   
     6    4   17 1   
     7    5    6 1   
     8    5   18 1   
     9    5   19 1   
    10    6    7 1   
    11    6   20 1   
    12    6   21 1   
    13    7    8 1   
    14    7   22 1   
    15    7   23 1   
    16    8    9 1   
    17    8   24 1   
    18    8   25 1   
    19    9   10 1   
    20    9   26 1   
    21    9   27 1   
    22   10   11 ar  
    23   10   15 ar  
    24   11   12 ar  
    25   11   28 1   
    26   12   13 ar  
    27   12   29 1   
    28   13   14 ar  
    29   13   30 1   
    30   14   15 ar  
    31   14   31 1   
    32   15   32 1   
@<TRIPOS>SUBSTRUCTURE
     1 XXC         1 TEMP              0 ****  ****    0 ROOT
