@<TRIPOS>MOLECULE
XXD
   20    19     1     0     0
SMALL
bcc


@<TRIPOS>ATOM
      1 O1         -0.0040   -0.0240    0.1600 oh        1 XXD     -0.611800
      2 O5          5.9350    0.6630    4.1950 oh        1 XXD     -0.600800
      3 O7          1.6090   -1.2680    2.0390 oh        1 XXD     -0.601800
      4 C10         5.5180    0.3180    2.8830 c3        1 XXD      0.132400
      5 C11         1.4040    0.1160    0.0590 c3        1 XXD      0.090400
      6 C13         1.9480   -0.0040    1.4890 c3        1 XXD      0.146100
      7 C14         3.4690    0.0980    1.4850 c3        1 XXD     -0.076400
      8 C15         3.9990    0.3250    2.8820 c3        1 XXD     -0.083400
      9 HO1        -0.3470   -0.0540   -0.7400 ho        1 XXD      0.408000
     10 HO5         6.8970    0.5980    4.2030 ho        1 XXD      0.398000
     11 HO7         0.6490   -1.3490    1.9670 ho        1 XXD      0.418000
     12 H10         5.9080   -0.6980    2.6080 h1        1 XXD      0.018700
     13 H10A        5.9180    1.0690    2.1490 h1        1 XXD      0.018700
     14 H11         1.8310   -0.6950   -0.5880 h1        1 XXD      0.034200
     15 H11A        1.6610    1.1180   -0.3740 h1        1 XXD      0.034200
     16 H13         1.4970    0.8100    2.1240 h1        1 XXD      0.048700
     17 H14         3.7720    0.9440    0.8160 hc        1 XXD      0.049700
     18 H14A        3.8970   -0.8490    1.0650 hc        1 XXD      0.049700
     19 H15         3.6190   -0.4780    3.5670 hc        1 XXD      0.063700
     20 H15A        3.6340    1.3060    3.2850 hc        1 XXD      0.063700
@<TRIPOS>BOND
     1    1    5 1   
     2    1    9 1   
     3    2    4 1   
     4    2   10 1   
     5    3    6 1   
     6    3   11 1   
     7    4    8 1   
     8    4   12 1   
     9    4   13 1   
    10    5    6 1   
    11    5   14 1   
    12    5   15 1   
    13    6    7 1   
    14    6   16 1   
    15    7    8 1   
    16    7   17 1   
    17    7   18 1   
    18    8   19 1   
    19    8   20 1   
@<TRIPOS>SUBSTRUCTURE
     1 XXD         1 TEMP              0 ****  ****    0 ROOT
