@<TRIPOS>MOLECULE
XXD
   20    19     1     0     0
SMALL
bcc


@<TRIPOS>ATOM
      1 O1         -0.0000   -0.0300    0.1520 oh        1 XXD     -0.611800
      2 O5          5.9310    0.6800    4.1960 oh        1 XXD     -0.600800
      3 O7          1.6030   -1.2600    2.0490 oh        1 XXD     -0.601800
      4 C10         5.5160    0.3220    2.8870 c3        1 XXD      0.132400
      5 C11         1.4090    0.1040    0.0540 c3        1 XXD      0.090400
      6 C13         1.9490   -0.0030    1.4860 c3        1 XXD      0.146100
      7 C14         3.4700    0.0940    1.4860 c3        1 XXD     -0.076400
      8 C15         3.9970    0.3350    2.8820 c3        1 XXD     -0.083400
      9 HO1        -0.3410   -0.0690   -0.7480 ho        1 XXD      0.408000
     10 HO5         6.8920    0.6120    4.2070 ho        1 XXD      0.398000
     11 HO7         0.6430   -1.3380    1.9760 ho        1 XXD      0.418000
     12 H10         5.9030   -0.6990    2.6250 h1        1 XXD      0.018700
     13 H10A        5.9210    1.0620    2.1460 h1        1 XXD      0.018700
     14 H11         1.8340   -0.7160   -0.5830 h1        1 XXD      0.034200
     15 H11A        1.6700    1.1000   -0.3890 h1        1 XXD      0.034200
     16 H13         1.4980    0.8200    2.1110 h1        1 XXD      0.048700
     17 H14         3.7780    0.9310    0.8080 hc        1 XXD      0.049700
     18 H14A        3.8960   -0.8600    1.0780 hc        1 XXD      0.049700
     19 H15         3.6120   -0.4600    3.5740 hc        1 XXD      0.063700
     20 H15A        3.6340    1.3210    3.2720 hc        1 XXD      0.063700
@<TRIPOS>BOND
     1    1    5 1   
     2    1    9 1   
     3    2    4 1   
     4    2   10 1   
     5    3    6 1   
     6    3   11 1   
     7    4    8 1   
     8    4   12 1   
     9    4   13 1   
    10    5    6 1   
    11    5   14 1   
    12    5   15 1   
    13    6    7 1   
    14    6   16 1   
    15    7    8 1   
    16    7   17 1   
    17    7   18 1   
    18    8   19 1   
    19    8   20 1   
@<TRIPOS>SUBSTRUCTURE
     1 XXD         1 TEMP              0 ****  ****    0 ROOT
