@<TRIPOS>MOLECULE
XXD
   20    19     1     0     0
SMALL
bcc


@<TRIPOS>ATOM
      1 O1          2.5500    1.3420   -0.7310 oh        1 XXD     -0.597800
      2 O5         -3.7250   -0.1110   -0.3990 oh        1 XXD     -0.599800
      3 O7          1.0790   -1.5160    0.9020 oh        1 XXD     -0.591800
      4 C10        -2.5970    0.6360    0.0310 c3        1 XXD      0.132400
      5 C11         2.3940    0.4170    0.3310 c3        1 XXD      0.095400
      6 C13         1.1140   -0.3830    0.0530 c3        1 XXD      0.138100
      7 C14        -0.1170    0.5000    0.2100 c3        1 XXD     -0.109400
      8 C15        -1.3710   -0.2270   -0.2150 c3        1 XXD     -0.084400
      9 HO1         3.4160    1.7490   -0.6160 ho        1 XXD      0.404000
     10 HO5        -4.4950    0.4510   -0.2580 ho        1 XXD      0.398000
     11 HO7         0.9110   -1.2020    1.7990 ho        1 XXD      0.396000
     12 H10        -2.5280    1.5950   -0.5490 h1        1 XXD      0.018700
     13 H10A       -2.6960    0.8810    1.1230 h1        1 XXD      0.018700
     14 H11         3.2700   -0.2840    0.3780 h1        1 XXD      0.029200
     15 H11A        2.3100    0.9660    1.3070 h1        1 XXD      0.029200
     16 H13         1.1570   -0.8150   -0.9870 h1        1 XXD      0.093700
     17 H14        -0.2090    0.8260    1.2800 hc        1 XXD      0.052200
     18 H14A        0.0320    1.4200   -0.4140 hc        1 XXD      0.052200
     19 H15        -1.4670   -1.1890    0.3530 hc        1 XXD      0.062700
     20 H15A       -1.3170   -0.4900   -1.3040 hc        1 XXD      0.062700
@<TRIPOS>BOND
     1    1    5 1   
     2    1    9 1   
     3    2    4 1   
     4    2   10 1   
     5    3    6 1   
     6    3   11 1   
     7    4    8 1   
     8    4   12 1   
     9    4   13 1   
    10    5    6 1   
    11    5   14 1   
    12    5   15 1   
    13    6    7 1   
    14    6   16 1   
    15    7    8 1   
    16    7   17 1   
    17    7   18 1   
    18    8   19 1   
    19    8   20 1   
@<TRIPOS>SUBSTRUCTURE
     1 XXD         1 TEMP              0 ****  ****    0 ROOT
