@<TRIPOS>MOLECULE
XXG
   18    15     1     0     0
SMALL
bcc


@<TRIPOS>ATOM
      1 O7         -3.1380   -0.3130   -0.3630 o         1 XXG     -0.323000
      2 C1         -1.9230   -0.3130   -0.3630 c1        1 XXG      0.275000
      3 C2         -1.1570   -0.3130    0.9650 c3        1 XXG      0.166000
      4 O13        -1.1020   -1.6190    1.4870 oh        1 XXG     -0.343500
      5 O8         -1.9100    0.3340    1.9610 oh        1 XXG     -0.343500
      6 C3          0.2380    0.3180    0.8890 c2        1 XXG     -0.068000
      7 C6         -1.1670   -0.3200   -1.6730 c1        1 XXG     -0.283000
      8 C5          0.2920   -0.0060   -1.6920 c1        1 XXG      0.033000
      9 C4          1.0010    0.3130   -0.4170 c2        1 XXG     -0.696000
     10 S9          2.7130    0.7720   -0.4460 s4        1 XXG      2.090800
     11 O12         3.4010    0.4000    0.8460 o         1 XXG     -0.667400
     12 O10         2.8540    2.2470   -0.7370 os        1 XXG     -1.066000
     13 O11         3.4870   -0.0600   -1.4410 o         1 XXG     -0.667400
     14 HO13       -1.9260   -1.9220    1.6140 ho        1 XXG      0.217500
     15 HO8        -1.4510    0.3420    2.7210 ho        1 XXG      0.217500
     16 H5          0.7940   -0.0660   -2.5270 DU        1 XXG      0.161000
     17 H3          0.6270    0.7380    1.6800 ha        1 XXG      0.161000
     18 H6         -1.6320   -0.5290   -2.5050 ha        1 XXG      0.137000
@<TRIPOS>BOND
     1    1    2 1   
     2    2    3 1   
     3    3    4 1   
     4    3    5 1   
     5    3    6 1   
     6    4   14 1   
     7    5   15 1   
     8    6    9 1   
     9    6   17 1   
    10    7    8 1   
    11    7   18 1   
    12    8    9 1   
    13    9   10 1   
    14   10   11 1   
    15   10   13 1   
@<TRIPOS>SUBSTRUCTURE
     1 XXG         1 TEMP              0 ****  ****    0 ROOT
