@<TRIPOS>MOLECULE
XXG
   18    18     1     0     0
SMALL
bcc


@<TRIPOS>ATOM
      1 O7         -0.0020   -0.4160    0.0640 o         1 XXG     -0.562100
      2 C1          1.2030   -0.1340    0.0320 c         1 XXG      0.583300
      3 C2          1.9820   -0.0390    1.3600 c3        1 XXG      0.263800
      4 O13         1.5530   -1.0240    2.2800 oh        1 XXG     -0.616300
      5 O8          1.5790    1.1780    1.9700 oh        1 XXG     -0.616300
      6 C3          3.4750   -0.1390    1.2080 c2        1 XXG     -0.072200
      7 C6          1.9600    0.0970   -1.1930 ce        1 XXG     -0.302200
      8 C5          3.3070    0.1490   -1.1870 cf        1 XXG      0.033000
      9 C4          4.0840   -0.0270    0.0210 cf        1 XXG     -0.245100
     10 S9          5.8750   -0.0730   -0.1350 s6        1 XXG      1.454700
     11 O12         6.3350    0.4240    1.1010 o         1 XXG     -0.738533
     12 O10         6.1770   -1.4290   -0.3620 o         1 XXG     -0.738533
     13 O11         6.1310    0.7620   -1.2430 o         1 XXG     -0.738533
     14 HO13        0.5860   -1.0280    2.2570 ho        1 XXG      0.418500
     15 HO8         2.2000    1.3570    2.6860 ho        1 XXG      0.418500
     16 H5          3.8840    0.3300   -2.1140 ha        1 XXG      0.161000
     17 H3          4.0370   -0.2760    2.1470 ha        1 XXG      0.161000
     18 H6          1.3710    0.2060   -2.1140 ha        1 XXG      0.137000
@<TRIPOS>BOND
     1    1    2 2   
     2    2    3 1   
     3    2    7 1   
     4    3    4 1   
     5    3    5 1   
     6    3    6 1   
     7    4   14 1   
     8    5   15 1   
     9    6    9 2   
    10    6   17 1   
    11    7    8 2   
    12    7   18 1   
    13    8    9 1   
    14    8   16 1   
    15    9   10 1   
    16   10   11 1   
    17   10   12 1   
    18   10   13 1   
@<TRIPOS>SUBSTRUCTURE
     1 XXG         1 TEMP              0 ****  ****    0 ROOT
