@<TRIPOS>MOLECULE
XXG
   18    18     1     0     0
SMALL
bcc


@<TRIPOS>ATOM
      1 O7         -3.5410    0.9530   -0.0660 o         1 XXG     -0.593100
      2 C1         -2.3150    0.7570   -0.0240 c         1 XXG      0.541300
      3 C2         -1.8340   -0.7110   -0.0200 c3        1 XXG      0.263800
      4 O13        -2.3570   -1.3990   -1.1430 oh        1 XXG     -0.600300
      5 O8         -2.3820   -1.3960    1.0930 oh        1 XXG     -0.600300
      6 C3         -0.3390   -0.8890   -0.0050 c2        1 XXG     -0.001200
      7 C6         -1.3120    1.8030    0.0260 ce        1 XXG     -0.318200
      8 C5          0.0060    1.5090    0.0470 cf        1 XXG      0.060000
      9 C4          0.5030    0.1530    0.0160 cf        1 XXG     -0.270100
     10 S9          2.2890   -0.0540    0.0070 s6        1 XXG      1.455700
     11 O12         2.4970   -1.3550    0.5050 o         1 XXG     -0.738533
     12 O10         2.6520    0.1170   -1.3430 o         1 XXG     -0.738533
     13 O11         2.7420    0.9860    0.8480 o         1 XXG     -0.738533
     14 HO13       -3.2790   -1.1270   -1.2440 ho        1 XXG      0.404500
     15 HO8        -3.3180   -1.1600    1.1430 ho        1 XXG      0.404500
     16 H5          0.7710    2.3070    0.1040 ha        1 XXG      0.160000
     17 H3          0.0080   -1.9360   -0.0040 ha        1 XXG      0.173000
     18 H6         -1.6830    2.8380    0.0490 ha        1 XXG      0.137000
@<TRIPOS>BOND
     1    1    2 2   
     2    2    3 1   
     3    2    7 1   
     4    3    4 1   
     5    3    5 1   
     6    3    6 1   
     7    4   14 1   
     8    5   15 1   
     9    6    9 2   
    10    6   17 1   
    11    7    8 2   
    12    7   18 1   
    13    8    9 1   
    14    8   16 1   
    15    9   10 1   
    16   10   11 1   
    17   10   12 1   
    18   10   13 1   
@<TRIPOS>SUBSTRUCTURE
     1 XXG         1 TEMP              0 ****  ****    0 ROOT
