@<TRIPOS>MOLECULE
XXH
   16    15     1     0     0
SMALL
bcc


@<TRIPOS>ATOM
      1 O3         -1.0540    0.1370   -2.1370 o         1 XXH     -0.181000
      2 C4          1.8830    0.0300    1.5370 ca        1 XXH     -0.092000
      3 C5         -0.3240    0.1100   -1.2240 c1        1 XXH      0.184000
      4 C6          3.2580    0.1630    1.3350 ca        1 XXH     -0.142000
      5 C7          4.1380    0.1330    2.4140 ca        1 XXH     -0.068000
      6 C3          1.3790   -0.1350    2.8280 ca        1 XXH     -0.142000
      7 C2          2.2390   -0.1680    3.9240 ca        1 XXH     -0.068000
      8 C1          3.6200   -0.0340    3.7090 ca        1 XXH     -0.133000
      9 O1          5.7290    0.0490    4.6760 o         1 XXH     -0.491700
     10 O2          4.0960   -0.2100    5.9740 o         1 XXH     -0.491700
     11 H1          1.1940    0.0550    0.6750 ha        1 XXH      0.161000
     12 H2          3.6550    0.2920    0.3160 ha        1 XXH      0.147000
     13 H3          5.2250    0.2370    2.2570 ha        1 XXH      0.170000
     14 H4          1.8440   -0.2980    4.9460 ha        1 XXH      0.170000
     15 H5          0.2950   -0.2400    2.9870 ha        1 XXH      0.147000
     16 N1          4.5480   -0.0670    4.8700 no        1 XXH      0.830400
@<TRIPOS>BOND
     1    1    3 1   
     2    2    4 1   
     3    2    6 1   
     4    2   11 1   
     5    4    5 1   
     6    4   12 1   
     7    5    8 1   
     8    5   13 1   
     9    6    7 1   
    10    6   15 1   
    11    7    8 1   
    12    7   14 1   
    13    8   16 1   
    14    9   16 2   
    15   10   16 2   
@<TRIPOS>SUBSTRUCTURE
     1 XXH         1 TEMP              0 ****  ****    0 ROOT
