@<TRIPOS>MOLECULE
XXH
   16    15     1     0     0
SMALL
bcc


@<TRIPOS>ATOM
      1 O3         -1.0810    0.0140   -1.9480 o         1 XXH     -0.174000
      2 C4          1.9430   -0.0190    1.6280 c2        1 XXH     -0.077000
      3 C5         -0.3570   -0.0020   -1.0300 c1        1 XXH      0.177000
      4 C6          3.2630    0.2230    1.4400 c2        1 XXH     -0.214000
      5 C7          4.1740    0.2300    2.5470 c2        1 XXH      0.065000
      6 C3          1.4060   -0.3010    2.9760 c3        1 XXH     -0.219000
      7 C2          2.3350   -0.2920    4.0980 c1        1 XXH     -0.039000
      8 C1          3.6950    0.0140    3.8220 c2        1 XXH     -0.228000
      9 O1          5.8040   -0.1890    4.7480 o         1 XXH     -0.486700
     10 O2          4.2590    0.3690    6.0590 o         1 XXH     -0.486700
     11 H1          1.2280   -0.0130    0.7850 ha        1 XXH      0.162000
     12 H2          3.6760    0.4230    0.4390 ha        1 XXH      0.151000
     13 H3          5.2470    0.4110    2.3460 ha        1 XXH      0.170000
     14 H4          0.9010   -1.3170    2.9790 hc        1 XXH      0.180500
     15 H5          0.5860    0.4400    3.2270 hc        1 XXH      0.180500
     16 N1          4.6450    0.0620    4.9700 no        1 XXH      0.838400
@<TRIPOS>BOND
     1    1    3 1   
     2    2    4 1   
     3    2    6 1   
     4    2   11 1   
     5    4    5 1   
     6    4   12 1   
     7    5    8 1   
     8    5   13 1   
     9    6    7 1   
    10    6   14 1   
    11    6   15 1   
    12    7    8 1   
    13    8   16 1   
    14    9   16 2   
    15   10   16 2   
@<TRIPOS>SUBSTRUCTURE
     1 XXH         1 TEMP              0 ****  ****    0 ROOT
