@<TRIPOS>MOLECULE
XXH
   16    16     1     0     0
SMALL
bcc


@<TRIPOS>ATOM
      1 O3         -3.9910    0.6060   -0.0010 o         1 XXH     -0.506100
      2 C4         -1.7600   -0.2380   -0.0000 ca        1 XXH     -0.157600
      3 C5         -3.2320   -0.3640   -0.0010 c         1 XXH      0.570500
      4 C6         -0.9660   -1.3910   -0.0000 ca        1 XXH     -0.091500
      5 C7          0.4220   -1.2910   -0.0000 ca        1 XXH     -0.082500
      6 C3         -1.1580    1.0250   -0.0000 ca        1 XXH     -0.091500
      7 C2          0.2300    1.1460    0.0000 ca        1 XXH     -0.082500
      8 C1          1.0150   -0.0180    0.0000 ca        1 XXH     -0.149200
      9 O1          3.1590   -0.9060    0.0000 o         1 XXH     -0.201000
     10 O2          2.9960    1.1920    0.0010 o         1 XXH     -0.201000
     11 H1         -3.6160   -1.4090   -0.0010 h4        1 XXH      0.010200
     12 H2         -1.4370   -2.3870   -0.0010 ha        1 XXH      0.160000
     13 H3          1.0510   -2.1990   -0.0000 ha        1 XXH      0.176500
     14 H4         -1.7940    1.9270    0.0000 ha        1 XXH      0.160000
     15 H5          0.7070    2.1420    0.0000 ha        1 XXH      0.176500
     16 N1          2.5000    0.0980    0.0000 no        1 XXH      0.309200
@<TRIPOS>BOND
     1    1    3 2   
     2    2    3 1   
     3    2    4 ar  
     4    2    6 ar  
     5    3   11 1   
     6    4    5 ar  
     7    4   12 1   
     8    5    8 ar  
     9    5   13 1   
    10    6    7 ar  
    11    6   14 1   
    12    7    8 ar  
    13    7   15 1   
    14    8   16 1   
    15    9   16 1   
    16   10   16 1   
@<TRIPOS>SUBSTRUCTURE
     1 XXH         1 TEMP              0 ****  ****    0 ROOT
