@<TRIPOS>MOLECULE
XXK
   45    49     1     0     0
SMALL
bcc


@<TRIPOS>ATOM
      1 O25         0.4650    1.8200    0.3430 oh        1 XXK     -0.471100
      2 C24         1.6260    1.1100    0.2050 ca        1 XXK      0.160100
      3 C23         2.1170    0.5190    1.3800 ca        1 XXK     -0.151000
      4 C22         3.3060   -0.2210    1.2930 ca        1 XXK     -0.042400
      5 C21         3.9960   -0.3800    0.0840 ca        1 XXK     -0.110000
      6 C26         2.3030    0.9700   -1.0200 ca        1 XXK     -0.127000
      7 C20         3.4820    0.2270   -1.0710 cp        1 XXK     -0.042500
      8 C19         4.2170    0.0760   -2.3610 cp        1 XXK      0.683500
      9 N10         5.5810    0.1870   -2.2950 nb        1 XXK     -0.693000
     10 C09         6.1960    0.0520   -3.4880 cp        1 XXK      0.489800
     11 C05         7.6000    0.0930   -3.8640 cp        1 XXK     -0.319800
     12 C04         8.8110    0.2950   -3.2120 ca        1 XXK     -0.013000
     13 C03         9.9700    0.2540   -3.9890 ca        1 XXK     -0.267300
     14 C02         9.8820    0.0160   -5.3790 ca        1 XXK      0.442200
     15 N18         3.4410   -0.1580   -3.4600 nb        1 XXK     -0.749000
     16 C11         4.0530   -0.2850   -4.6900 ca        1 XXK      0.721200
     17 C08         5.4770   -0.1920   -4.7050 ca        1 XXK     -0.199500
     18 O07         6.3280   -0.3170   -5.8080 os        1 XXK     -0.282400
     19 C06         7.6280   -0.1380   -5.2870 ca        1 XXK      0.593600
     20 N01         8.7330   -0.1840   -6.0600 nb        1 XXK     -0.633000
     21 N12         3.2880   -0.4200   -5.8460 nh        1 XXK     -0.730300
     22 C17         1.9050   -0.8500   -5.6990 c3        1 XXK      0.163300
     23 C16         1.1180   -0.8570   -7.0150 c3        1 XXK      0.117900
     24 O15         1.8380   -1.5090   -8.0500 os        1 XXK     -0.396600
     25 C14         3.0730   -0.8580   -8.3070 c3        1 XXK      0.117900
     26 C13         3.9750   -0.8110   -7.0670 c3        1 XXK      0.163300
     27 N28         3.8330   -0.8480    2.5080 n4        1 XXK     -0.702000
     28 H1          0.2160    2.1840   -0.5230 ho        1 XXK      0.450000
     29 H2          1.5600    0.6560    2.3200 ha        1 XXK      0.175000
     30 H3          4.9330   -0.9600    0.0230 ha        1 XXK      0.173000
     31 H4          1.8990    1.4450   -1.9300 ha        1 XXK      0.185000
     32 H5          8.8510    0.4820   -2.1290 ha        1 XXK      0.155000
     33 H6         10.9570    0.4080   -3.5290 ha        1 XXK      0.161000
     34 H7         10.7970   -0.0180   -6.0020 h4        1 XXK      0.046100
     35 H8          1.8750   -1.8870   -5.2550 h1        1 XXK      0.066200
     36 H9          1.3790   -0.1470   -4.9930 h1        1 XXK      0.066200
     37 H10         0.8600    0.1890   -7.3290 h1        1 XXK      0.067950
     38 H11         0.1830   -1.4650   -6.8910 h1        1 XXK      0.067950
     39 H12         2.8820    0.1790   -8.6920 h1        1 XXK      0.067950
     40 H13         3.5630   -1.4800   -9.1020 h1        1 XXK      0.067950
     41 H14         4.7830   -0.0510   -7.2780 h1        1 XXK      0.066200
     42 H15         4.4620   -1.8190   -6.9270 h1        1 XXK      0.066200
     43 H16         3.7090   -0.2150    3.3060 hn        1 XXK      0.464467
     44 H17         4.8310   -1.0550    2.3900 hn        1 XXK      0.464467
     45 H283        3.3250   -1.7220    2.6890 hn        1 XXK      0.464467
@<TRIPOS>BOND
     1    1    2 1   
     2    1   28 1   
     3    2    3 ar  
     4    2    6 ar  
     5    3    4 ar  
     6    3   29 1   
     7    4    5 ar  
     8    4   27 1   
     9    5    7 ar  
    10    5   30 1   
    11    6    7 ar  
    12    6   31 1   
    13    7    8 1   
    14    8    9 ar  
    15    8   15 ar  
    16    9   10 ar  
    17   10   11 1   
    18   10   17 ar  
    19   11   12 ar  
    20   11   19 ar  
    21   12   13 ar  
    22   12   32 1   
    23   13   14 ar  
    24   13   33 1   
    25   14   20 ar  
    26   14   34 1   
    27   15   16 ar  
    28   16   17 ar  
    29   16   21 1   
    30   17   18 1   
    31   18   19 1   
    32   19   20 ar  
    33   21   22 1   
    34   21   26 1   
    35   22   23 1   
    36   22   35 1   
    37   22   36 1   
    38   23   24 1   
    39   23   37 1   
    40   23   38 1   
    41   24   25 1   
    42   25   26 1   
    43   25   39 1   
    44   25   40 1   
    45   26   41 1   
    46   26   42 1   
    47   27   43 1   
    48   27   44 1   
    49   27   45 1   
@<TRIPOS>SUBSTRUCTURE
     1 XXK         1 TEMP              0 ****  ****    0 ROOT
