@<TRIPOS>MOLECULE
XXK
   44    48     1     0     0
SMALL
bcc


@<TRIPOS>ATOM
      1 O25         0.5040    1.7910    0.1820 oh        1 XXK     -0.496100
      2 C24         1.6420    1.0160    0.1720 ca        1 XXK      0.152100
      3 C23         2.0870    0.3360    1.3090 ca        1 XXK     -0.266000
      4 C22         3.2660   -0.4390    1.2380 ca        1 XXK      0.171600
      5 C21         3.9590   -0.5220    0.0070 ca        1 XXK     -0.190000
      6 C26         2.3260    0.9410   -1.0510 ca        1 XXK     -0.160000
      7 C20         3.4850    0.1660   -1.1110 cp        1 XXK     -0.066500
      8 C19         4.2330    0.0690   -2.3990 cp        1 XXK      0.715500
      9 N10         5.5940    0.2520   -2.3370 nb        1 XXK     -0.666000
     10 C09         6.2160    0.1590   -3.5240 cp        1 XXK      0.476800
     11 C05         7.6170    0.2910   -3.8970 cp        1 XXK     -0.307800
     12 C04         8.8080    0.5480   -3.2320 ca        1 XXK     -0.012000
     13 C03         9.9740    0.5920   -4.0030 ca        1 XXK     -0.276300
     14 C02         9.9050    0.3800   -5.3950 ca        1 XXK      0.427200
     15 N18         3.4860   -0.2000   -3.5120 nb        1 XXK     -0.728000
     16 C11         4.1100   -0.2840   -4.7330 ca        1 XXK      0.688200
     17 C08         5.5190   -0.1090   -4.7520 ca        1 XXK     -0.198500
     18 O07         6.3790   -0.1510   -5.8560 os        1 XXK     -0.287400
     19 C06         7.6630    0.0920   -5.3250 ca        1 XXK      0.590600
     20 N01         8.7740    0.1280   -6.0900 nb        1 XXK     -0.647000
     21 N12         3.3690   -0.4350   -5.9240 nh        1 XXK     -0.724300
     22 C17         1.9150   -0.4600   -5.8030 c3        1 XXK      0.151300
     23 C16         1.2240   -0.4390   -7.1720 c3        1 XXK      0.122400
     24 O15         1.7200   -1.4580   -8.0310 os        1 XXK     -0.412600
     25 C14         3.1270   -1.3580   -8.2140 c3        1 XXK      0.122400
     26 C13         3.8790   -1.4130   -6.8780 c3        1 XXK      0.151300
     27 N28         3.7790   -1.0520    2.3830 nv        1 XXK     -0.821200
     28 H1          0.1460    1.7860    1.0820 ho        1 XXK      0.419000
     29 H2          1.5260    0.4180    2.2510 ha        1 XXK      0.135000
     30 H3          4.8810   -1.1170   -0.0670 ha        1 XXK      0.147000
     31 H4          1.9420    1.4810   -1.9260 ha        1 XXK      0.162000
     32 H5          8.8290    0.7110   -2.1440 ha        1 XXK      0.162000
     33 H6         10.9460    0.7910   -3.5310 ha        1 XXK      0.152000
     34 H7         10.8230    0.4120   -6.0130 h4        1 XXK      0.032100
     35 H8          1.5870    0.4520   -5.2300 h1        1 XXK      0.063700
     36 H9          1.5740   -1.3750   -5.2390 h1        1 XXK      0.063700
     37 H10         1.3470    0.5610   -7.6650 h1        1 XXK      0.059950
     38 H11         0.1360   -0.6790   -7.0500 h1        1 XXK      0.059950
     39 H12         3.3700   -0.4130   -8.7680 h1        1 XXK      0.059950
     40 H13         3.3960   -2.2520   -8.8360 h1        1 XXK      0.059950
     41 H14         4.9660   -1.2030   -7.0830 h1        1 XXK      0.063700
     42 H15         3.7900   -2.4570   -6.4580 h1        1 XXK      0.063700
     43 H16         4.4070   -1.8050    2.2060 hn        1 XXK      0.393300
     44 H17         3.1040   -1.2520    3.0870 hn        1 XXK      0.393300
@<TRIPOS>BOND
     1    1    2 1   
     2    1   28 1   
     3    2    3 ar  
     4    2    6 ar  
     5    3    4 ar  
     6    3   29 1   
     7    4    5 ar  
     8    4   27 1   
     9    5    7 ar  
    10    5   30 1   
    11    6    7 ar  
    12    6   31 1   
    13    7    8 1   
    14    8    9 ar  
    15    8   15 ar  
    16    9   10 ar  
    17   10   11 1   
    18   10   17 ar  
    19   11   12 ar  
    20   11   19 ar  
    21   12   13 ar  
    22   12   32 1   
    23   13   14 ar  
    24   13   33 1   
    25   14   20 ar  
    26   14   34 1   
    27   15   16 ar  
    28   16   17 ar  
    29   16   21 1   
    30   17   18 1   
    31   18   19 1   
    32   19   20 ar  
    33   21   22 1   
    34   21   26 1   
    35   22   23 1   
    36   22   35 1   
    37   22   36 1   
    38   23   24 1   
    39   23   37 1   
    40   23   38 1   
    41   24   25 1   
    42   25   26 1   
    43   25   39 1   
    44   25   40 1   
    45   26   41 1   
    46   26   42 1   
    47   27   43 1   
    48   27   44 1   
@<TRIPOS>SUBSTRUCTURE
     1 XXK         1 TEMP              0 ****  ****    0 ROOT
