@<TRIPOS>MOLECULE
XXK
   44    48     1     0     0
SMALL
bcc


@<TRIPOS>ATOM
      1 O25         5.5740    0.8330   -1.7620 oh        1 XXK     -0.499100
      2 C24         4.7490    0.0580   -0.9770 ca        1 XXK      0.153100
      3 C23         5.3850   -0.8980   -0.1760 ca        1 XXK     -0.212000
      4 C22         4.6060   -1.7330    0.6520 ca        1 XXK      0.168600
      5 C21         3.1980   -1.5730    0.6650 ca        1 XXK     -0.188000
      6 C26         3.3570    0.2170   -0.9720 ca        1 XXK     -0.219000
      7 C20         2.5970   -0.6100   -0.1420 cp        1 XXK     -0.060500
      8 C19         1.1120   -0.4570   -0.1200 cp        1 XXK      0.715500
      9 N10         0.3730   -1.6120   -0.2160 nb        1 XXK     -0.664000
     10 C09        -0.9570   -1.4180   -0.1930 cp        1 XXK      0.476800
     11 C05        -2.0740   -2.3480   -0.2760 cp        1 XXK     -0.307800
     12 C04        -2.2220   -3.7220   -0.4020 ca        1 XXK     -0.012000
     13 C03        -3.5270   -4.2230   -0.4460 ca        1 XXK     -0.275300
     14 C02        -4.6220   -3.3390   -0.3640 ca        1 XXK      0.428200
     15 N18         0.6370    0.8200    0.0030 nb        1 XXK     -0.731000
     16 C11        -0.7200    1.0310    0.0160 ca        1 XXK      0.687200
     17 C08        -1.5530   -0.1150   -0.0770 ca        1 XXK     -0.197500
     18 O07        -2.9530   -0.1670   -0.0840 os        1 XXK     -0.287400
     19 C06        -3.2640   -1.5380   -0.2030 ca        1 XXK      0.590600
     20 N01        -4.5330   -1.9950   -0.2420 nb        1 XXK     -0.647000
     21 N12        -1.2580    2.3350    0.0210 nh        1 XXK     -0.724300
     22 C17        -0.3100    3.4430   -0.0240 c3        1 XXK      0.151300
     23 C16        -1.0150    4.7950   -0.1980 c3        1 XXK      0.121900
     24 O15        -2.0370    4.9880    0.7710 os        1 XXK     -0.411600
     25 C14        -3.0050    3.9470    0.7340 c3        1 XXK      0.121900
     26 C13        -2.3650    2.5680    0.9420 c3        1 XXK      0.151300
     27 N28         5.2070   -2.7540    1.3910 nh        1 XXK     -0.822200
     28 H1          5.0160    1.4440   -2.2650 ho        1 XXK      0.421000
     29 H2          6.4800   -0.9870   -0.2160 ha        1 XXK      0.152000
     30 H3          2.5770   -2.2200    1.3030 ha        1 XXK      0.147000
     31 H4          2.8810    0.9790   -1.6030 ha        1 XXK      0.146000
     32 H5         -1.3470   -4.3860   -0.4650 ha        1 XXK      0.162000
     33 H6         -3.7060   -5.3020   -0.5450 ha        1 XXK      0.152000
     34 H7         -5.6580   -3.7260   -0.3980 h4        1 XXK      0.032100
     35 H8          0.3140    3.4790    0.9150 h1        1 XXK      0.063200
     36 H9          0.3780    3.2910   -0.9010 h1        1 XXK      0.063200
     37 H10        -0.2870    5.6280   -0.0090 h1        1 XXK      0.059950
     38 H11        -1.4500    4.8880   -1.2280 h1        1 XXK      0.059950
     39 H12        -3.6980    4.1750    1.5860 h1        1 XXK      0.059950
     40 H13        -3.5620    3.9830   -0.2390 h1        1 XXK      0.059950
     41 H14        -3.1600    1.7890    0.7760 h1        1 XXK      0.063200
     42 H15        -2.0100    2.4950    2.0110 h1        1 XXK      0.063200
     43 H16         6.1710   -2.6110    1.5930 hn        1 XXK      0.395300
     44 H17         4.6760   -3.0740    2.1700 hn        1 XXK      0.395300
@<TRIPOS>BOND
     1    1    2 1   
     2    1   28 1   
     3    2    3 ar  
     4    2    6 ar  
     5    3    4 ar  
     6    3   29 1   
     7    4    5 ar  
     8    4   27 1   
     9    5    7 ar  
    10    5   30 1   
    11    6    7 ar  
    12    6   31 1   
    13    7    8 1   
    14    8    9 ar  
    15    8   15 ar  
    16    9   10 ar  
    17   10   11 1   
    18   10   17 ar  
    19   11   12 ar  
    20   11   19 ar  
    21   12   13 ar  
    22   12   32 1   
    23   13   14 ar  
    24   13   33 1   
    25   14   20 ar  
    26   14   34 1   
    27   15   16 ar  
    28   16   17 ar  
    29   16   21 1   
    30   17   18 1   
    31   18   19 1   
    32   19   20 ar  
    33   21   22 1   
    34   21   26 1   
    35   22   23 1   
    36   22   35 1   
    37   22   36 1   
    38   23   24 1   
    39   23   37 1   
    40   23   38 1   
    41   24   25 1   
    42   25   26 1   
    43   25   39 1   
    44   25   40 1   
    45   26   41 1   
    46   26   42 1   
    47   27   43 1   
    48   27   44 1   
@<TRIPOS>SUBSTRUCTURE
     1 XXK         1 TEMP              0 ****  ****    0 ROOT
