@<TRIPOS>MOLECULE
XXL
   30    29     1     0     0
SMALL
bcc


@<TRIPOS>ATOM
      1 C           1.9580    1.5770    1.3060 c1        1 XXL      0.293000
      2 N           0.9130    0.1580    2.9560 n         1 XXL     -0.172000
      3 O           2.5850    2.5070    0.9230 o         1 XXL     -0.104000
      4 CA          1.2300    0.5110    1.6270 c2        1 XXL     -0.313000
      5 CAA        -0.8360   -0.5070   -2.8670 c3        1 XXL     -0.255000
      6 CAD         0.0500   -3.8420    4.0410 c2        1 XXL     -0.182000
      7 CAE         0.3970   -3.5900    2.7610 c2        1 XXL     -0.107000
      8 CAF        -0.0530   -2.8080    5.0300 c1        1 XXL     -0.033000
      9 CAG         0.6900   -2.2310    2.2550 c3        1 XXL     -0.157000
     10 CAI         0.4140    0.7260    5.3600 c1        1 XXL      0.082000
     11 OAK        -0.6800   -1.1060   -0.5170 oh        1 XXL     -0.362000
     12 OAL         0.1220   -0.5030    5.5830 os        1 XXL      0.019000
     13 CAN         0.9080    1.1480    3.9920 c2        1 XXL      0.195000
     14 CAO         0.2360   -1.5050    4.5890 c2        1 XXL     -0.202000
     15 CAP         0.6150   -1.1460    3.2880 c2        1 XXL      0.114000
     16 HA          0.8000   -0.1080    0.8150 h4        1 XXL      0.219000
     17 HAA        -1.5250   -0.6510   -0.4230 ho        1 XXL      0.209000
     18 HAAA       -1.8730   -0.1020   -2.7830 hc        1 XXL      0.087333
     19 HAAB       -0.1170    0.3330   -2.7120 hc        1 XXL      0.087333
     20 HAAC       -0.6950   -0.9160   -3.8960 hc        1 XXL      0.087333
     21 HAD         1.7200   -2.2240    1.7920 hc        1 XXL      0.157500
     22 HAE        -0.0420   -1.9980    1.4210 hc        1 XXL      0.157500
     23 HAF        -0.1680   -4.8670    4.3830 ha        1 XXL      0.156000
     24 HAG         0.4760   -4.3890    2.0050 ha        1 XXL      0.136000
     25 HAH         0.4350   -2.0150   -1.9290 h1        1 XXL      0.087000
     26 HAHA       -1.3490   -2.4280   -1.9800 h1        1 XXL      0.087000
     27 HAI         3.6210    4.6320    0.5030 ha        1 XXL      0.001500
     28 HAIA        4.1460    4.2420    0.3270 ha        1 XXL      0.001500
     29 OAC         1.3040    2.2840    3.7100 o         1 XXL     -0.265000
     30 CAH        -0.6050   -1.5960   -1.8470 c3        1 XXL     -0.023000
@<TRIPOS>BOND
     1    1    3 1   
     2    1    4 1   
     3    2    4 1   
     4    2   13 1   
     5    2   15 1   
     6    4   16 1   
     7    5   18 1   
     8    5   19 1   
     9    5   20 1   
    10    5   30 1   
    11    6    7 1   
    12    6    8 1   
    13    6   23 1   
    14    7    9 1   
    15    7   24 1   
    16    8   14 1   
    17    9   15 1   
    18    9   21 1   
    19    9   22 1   
    20   10   12 1   
    21   10   13 1   
    22   11   17 1   
    23   11   30 1   
    24   12   14 1   
    25   13   29 1   
    26   14   15 1   
    27   25   30 1   
    28   26   30 1   
    29   27   28 1   
@<TRIPOS>SUBSTRUCTURE
     1 XXL         1 TEMP              0 ****  ****    0 ROOT
