@<TRIPOS>MOLECULE
XXL
   30    31     1     0     0
SMALL
bcc


@<TRIPOS>ATOM
      1 C           0.2720    0.4930   -0.0030 c         1 XXL      0.603100
      2 N           0.2330    0.3290    2.4740 n         1 XXL     -0.365000
      3 O           1.4030    0.9050   -0.2550 o         1 XXL     -0.521000
      4 CA         -0.5270    0.5950    1.2840 c3        1 XXL      0.048000
      5 CAA        -0.8010   -0.9020   -3.1880 c3        1 XXL     -0.101100
      6 CAD         1.3080   -3.6090    3.5830 ca        1 XXL     -0.129000
      7 CAE         0.7230   -3.3750    2.3400 ca        1 XXL     -0.120000
      8 CAF         1.5630   -2.5470    4.4470 ca        1 XXL     -0.115000
      9 CAG         0.3760   -2.0870    1.9420 ca        1 XXL     -0.145000
     10 CAI         1.6650    1.0360    4.3970 c3        1 XXL      0.062400
     11 OAK        -0.4380   -0.1350   -0.9870 os        1 XXL     -0.448900
     12 OAL         1.4210   -0.2380    4.9830 os        1 XXL     -0.311900
     13 CAN         0.7340    1.3850    3.2470 c         1 XXL      0.683500
     14 CAO         1.2110   -1.2530    4.0590 ca        1 XXL      0.069100
     15 CAP         0.6000   -0.9950    2.8030 ca        1 XXL      0.017600
     16 HA         -1.3990   -0.1180    1.2290 h1        1 XXL      0.105200
     17 HAA        -0.9220    1.6550    1.3330 h1        1 XXL      0.105200
     18 HAAA       -1.7490   -0.3150   -3.2500 hc        1 XXL      0.049033
     19 HAAB       -0.3580   -0.9890   -4.2090 hc        1 XXL      0.049033
     20 HAAC       -1.0450   -1.9220   -2.8070 hc        1 XXL      0.049033
     21 HAD         1.5760   -4.6330    3.8840 ha        1 XXL      0.140000
     22 HAE         0.5330   -4.2170    1.6570 ha        1 XXL      0.139000
     23 HAF         2.0280   -2.7070    5.4310 ha        1 XXL      0.154000
     24 HAG        -0.0730   -1.9300    0.9470 ha        1 XXL      0.147000
     25 HAH         1.1420   -0.8010   -2.1780 h1        1 XXL      0.053700
     26 HAHA        0.4330    0.8210   -2.6280 h1        1 XXL      0.053700
     27 HAI         2.7220    1.0850    4.0190 h1        1 XXL      0.094200
     28 HAIA        1.5120    1.7610    5.2420 h1        1 XXL      0.094200
     29 OAC         0.4280    2.5620    2.9990 o         1 XXL     -0.601500
     30 CAH         0.1900   -0.2170   -2.2800 c3        1 XXL      0.138400
@<TRIPOS>BOND
     1    1    3 2   
     2    1    4 1   
     3    1   11 1   
     4    2    4 1   
     5    2   13 1   
     6    2   15 1   
     7    4   16 1   
     8    4   17 1   
     9    5   18 1   
    10    5   19 1   
    11    5   20 1   
    12    5   30 1   
    13    6    7 ar  
    14    6    8 ar  
    15    6   21 1   
    16    7    9 ar  
    17    7   22 1   
    18    8   14 ar  
    19    8   23 1   
    20    9   15 ar  
    21    9   24 1   
    22   10   12 1   
    23   10   13 1   
    24   10   27 1   
    25   10   28 1   
    26   11   30 1   
    27   12   14 1   
    28   13   29 2   
    29   14   15 ar  
    30   25   30 1   
    31   26   30 1   
@<TRIPOS>SUBSTRUCTURE
     1 XXL         1 TEMP              0 ****  ****    0 ROOT
