@<TRIPOS>MOLECULE
XXP
   17    16     1     0     0
SMALL
bcc


@<TRIPOS>ATOM
      1 O8          3.1190    3.9000   -0.1560 o         1 XXP     -0.253000
      2 N7          3.0700    2.6950   -0.2510 no        1 XXP      0.312100
      3 O9          3.9040    2.0940   -0.8780 o         1 XXP     -0.253000
      4 C5          1.9910    1.9590    0.4390 ce        1 XXP     -0.313100
      5 C6          1.1570    2.6830    1.2500 c2        1 XXP      0.186100
      6 O10         0.1610    2.2260    2.0090 oh        1 XXP     -0.482100
      7 C4          1.9710    0.5220    0.2070 ce        1 XXP     -0.110000
      8 C3          0.9420   -0.2250   -0.2000 cf        1 XXP     -0.193200
      9 C2         -0.4640    0.1760   -0.4240 c         1 XXP      0.429300
     10 O11        -0.8140    0.9230   -1.3410 o         1 XXP     -0.539100
     11 C1         -1.4270   -0.4740    0.5890 c         1 XXP      0.856600
     12 O12        -2.1430   -1.4230    0.1980 o         1 XXP     -0.797800
     13 O13        -1.3830   -0.0140    1.7700 o         1 XXP     -0.797800
     14 H6          1.2720    3.7820    1.3830 h4        1 XXP      0.177000
     15 HO10       -0.0440    1.2670    1.8480 ho        1 XXP      0.506000
     16 H4          2.9550    0.0370    0.3660 ha        1 XXP      0.128000
     17 H3          1.0850   -1.3150   -0.3290 ha        1 XXP      0.143000
@<TRIPOS>BOND
     1    1    2 1   
     2    2    3 1   
     3    2    4 1   
     4    4    5 2   
     5    4    7 1   
     6    5    6 1   
     7    5   14 1   
     8    6   15 1   
     9    7    8 2   
    10    7   16 1   
    11    8    9 1   
    12    8   17 1   
    13    9   10 2   
    14    9   11 1   
    15   11   12 1   
    16   11   13 1   
@<TRIPOS>SUBSTRUCTURE
     1 XXP         1 TEMP              0 ****  ****    0 ROOT
