@<TRIPOS>MOLECULE
XXX
   52    53     1     0     0
SMALL
bcc


@<TRIPOS>ATOM
      1 O3          0.1290    0.3560    0.0990 oh        1 XXX     -0.636800
      2 C4          1.4960   -0.0100    0.0890 c3        1 XXX      0.106100
      3 C5          2.0230   -0.3960    1.4890 c3        1 XXX      0.095100
      4 O4          1.3300   -1.5370    1.9420 oh        1 XXX     -0.588800
      5 C6          3.5110   -0.8270    1.3130 c3        1 XXX      0.115500
      6 N1          4.0680   -1.3850    2.5860 n4        1 XXX     -0.835600
      7 C7          4.3260    0.3520    0.7620 c3        1 XXX     -0.135400
      8 C8          3.7510    0.7770   -0.6010 c3        1 XXX      0.125500
      9 N2          4.5650    1.8470   -1.2600 n4        1 XXX     -0.839600
     10 C9          2.2750    1.2230   -0.4130 c3        1 XXX      0.123100
     11 O5          1.7840    1.6180   -1.6960 os        1 XXX     -0.454600
     12 C10         0.7250    2.5730   -1.6630 c3        1 XXX      0.329900
     13 O6          1.3530    3.8310   -1.7310 os        1 XXX     -0.409600
     14 C11         1.5260    4.4560   -3.0040 c3        1 XXX      0.118100
     15 C12         0.3420    5.4200   -3.2610 c3        1 XXX      0.061800
     16 N3          0.7300    6.8360   -3.4970 n4        1 XXX     -0.834600
     17 C13         1.6950    3.4460   -4.1490 c3        1 XXX      0.106100
     18 O7          2.9330    2.7900   -3.9130 oh        1 XXX     -0.636800
     19 C14         0.5640    2.3930   -4.2110 c3        1 XXX      0.110100
     20 O8         -0.4270    2.8040   -5.1300 oh        1 XXX     -0.607800
     21 C15        -0.2050    2.2980   -2.8650 c3        1 XXX      0.088500
     22 N4         -0.9270    1.0000   -2.7320 n4        1 XXX     -0.825600
     23 HO3        -0.3490   -0.2990    0.6370 ho        1 XXX      0.471000
     24 H4          1.6240   -0.8820   -0.6160 h1        1 XXX      0.090700
     25 H5          1.9290    0.4690    2.2000 h1        1 XXX      0.095700
     26 HO4         0.6620   -1.2710    2.5970 ho        1 XXX      0.473000
     27 H6          3.5350   -1.6880    0.5690 hx        1 XXX      0.143700
     28 HN11        3.4140   -2.1110    2.9360 hn        1 XXX      0.491133
     29 HN12        4.9860   -1.8210    2.4190 hn        1 XXX      0.491133
     30 H71         5.4020    0.0430    0.6380 hc        1 XXX      0.109700
     31 H72         4.2960    1.2150    1.4830 hc        1 XXX      0.109700
     32 H8          3.7700   -0.1090   -1.3120 hx        1 XXX      0.139700
     33 HN21        5.4770    1.4710   -1.5540 hn        1 XXX      0.486467
     34 HN22        4.0490    2.1860   -2.0940 hn        1 XXX      0.486467
     35 H9          2.1930    2.0730    0.3190 h1        1 XXX      0.105700
     36 H10         0.1720    2.5630   -0.6740 h2        1 XXX      0.145700
     37 H11         2.5000    5.0200   -2.8720 h1        1 XXX      0.120700
     38 H121       -0.3380    5.4080   -2.3560 hx        1 XXX      0.136200
     39 H122       -0.2490    5.0710   -4.1640 hx        1 XXX      0.136200
     40 HN31       -0.1220    7.4030   -3.6480 hn        1 XXX      0.485133
     41 HN32        1.3270    6.9270   -4.3300 hn        1 XXX      0.485133
     42 H13         1.7150    4.0010   -5.1320 h1        1 XXX      0.109700
     43 HO7         3.3490    2.6300   -4.7760 ho        1 XXX      0.465000
     44 H14         1.0230    1.4030   -4.4940 h1        1 XXX      0.099700
     45 HO8        -0.1790    2.5150   -6.0250 ho        1 XXX      0.478000
     46 H15        -1.0020    3.1130   -2.8640 hx        1 XXX      0.148700
     47 HN41       -0.2640    0.2170   -2.7620 hn        1 XXX      0.485133
     48 HN42       -1.6010    0.9060   -3.5110 hn        1 XXX      0.485133
     49 H131        4.1700   -0.6590    3.3050 hn        1 XXX      0.491133
     50 H23         4.7230    2.6360   -0.6230 hn        1 XXX      0.486467
     51 H33         1.2340    7.2220   -2.6880 hn        1 XXX      0.485133
     52 H43        -1.4330    0.9640   -1.8350 hn        1 XXX      0.485133
@<TRIPOS>BOND
     1    1    2 1   
     2    1   23 1   
     3    2    3 1   
     4    2   10 1   
     5    2   24 1   
     6    3    4 1   
     7    3    5 1   
     8    3   25 1   
     9    4   26 1   
    10    5    6 1   
    11    5    7 1   
    12    5   27 1   
    13    6   28 1   
    14    6   29 1   
    15    6   49 1   
    16    7    8 1   
    17    7   30 1   
    18    7   31 1   
    19    8    9 1   
    20    8   10 1   
    21    8   32 1   
    22    9   33 1   
    23    9   34 1   
    24    9   50 1   
    25   10   11 1   
    26   10   35 1   
    27   11   12 1   
    28   12   13 1   
    29   12   21 1   
    30   12   36 1   
    31   13   14 1   
    32   14   15 1   
    33   14   17 1   
    34   14   37 1   
    35   15   16 1   
    36   15   38 1   
    37   15   39 1   
    38   16   40 1   
    39   16   41 1   
    40   16   51 1   
    41   17   18 1   
    42   17   19 1   
    43   17   42 1   
    44   18   43 1   
    45   19   20 1   
    46   19   21 1   
    47   19   44 1   
    48   20   45 1   
    49   21   22 1   
    50   21   46 1   
    51   22   47 1   
    52   22   48 1   
    53   22   52 1   
@<TRIPOS>SUBSTRUCTURE
     1 XXX         1 TEMP              0 ****  ****    0 ROOT
