@<TRIPOS>MOLECULE
XXX
   48    49     1     0     0
SMALL
bcc


@<TRIPOS>ATOM
      1 O3          1.4400    2.1500   -0.7860 oh        1 XXX     -0.622800
      2 C4          1.9630    1.1760    0.1060 c3        1 XXX      0.125100
      3 C5          3.4690    0.9800   -0.1350 c3        1 XXX      0.120100
      4 O4          4.0480    2.2400    0.1670 oh        1 XXX     -0.616800
      5 C6          4.0110   -0.1530    0.7680 c3        1 XXX      0.129500
      6 N1          5.4480   -0.2940    0.6190 n3        1 XXX     -0.914800
      7 C7          3.2220   -1.4380    0.4780 c3        1 XXX     -0.114400
      8 C8          1.7260   -1.2500    0.7640 c3        1 XXX      0.179500
      9 N2          1.0000   -2.4960    0.5760 n3        1 XXX     -0.914800
     10 C9          1.1920   -0.1250   -0.1580 c3        1 XXX      0.139100
     11 O5         -0.1750    0.0860    0.1990 os        1 XXX     -0.453600
     12 C10        -1.0230    0.4280   -0.8890 c3        1 XXX      0.296900
     13 O6         -1.6400   -0.7810   -1.2620 os        1 XXX     -0.434600
     14 C11        -2.5280   -1.3410   -0.2910 c3        1 XXX      0.100100
     15 C12        -3.1330   -2.6020   -0.9410 c3        1 XXX      0.161800
     16 N3         -2.2090   -3.6480   -1.2780 n3        1 XXX     -0.899800
     17 C13        -3.6250   -0.3320    0.0700 c3        1 XXX      0.126100
     18 O7         -4.4400   -0.9360    1.0590 oh        1 XXX     -0.599800
     19 C14        -2.9820    0.9550    0.6210 c3        1 XXX      0.115100
     20 O8         -4.0630    1.8350    0.8790 oh        1 XXX     -0.613800
     21 C15        -2.0040    1.5380   -0.4220 c3        1 XXX      0.116500
     22 N4         -1.3350    2.7260    0.0650 n3        1 XXX     -0.894800
     23 HO3         2.0250    2.9180   -0.7340 ho        1 XXX      0.430000
     24 H4          1.7900    1.5220    1.1640 h1        1 XXX      0.061700
     25 H5          3.6540    0.7390   -1.2200 h1        1 XXX      0.049700
     26 HO4         5.0070    2.1280    0.1880 ho        1 XXX      0.433000
     27 H6          3.8210    0.1550    1.8400 h1        1 XXX      0.071700
     28 HN11        5.8120   -0.9000    1.3270 hn        1 XXX      0.355800
     29 HN12        5.6780   -0.6650   -0.2810 hn        1 XXX      0.355800
     30 H71         3.6160   -2.2690    1.1210 hc        1 XXX      0.057200
     31 H72         3.3650   -1.7420   -0.5920 hc        1 XXX      0.057200
     32 H8          1.6210   -0.8770    1.8300 h1        1 XXX      0.033700
     33 HN21        0.9350   -2.9900    1.4430 hn        1 XXX      0.360300
     34 HN22        0.0770   -2.3140    0.2260 hn        1 XXX      0.360300
     35 H9          1.2860   -0.4200   -1.2380 h1        1 XXX      0.075700
     36 H10        -0.4490    0.7600   -1.8010 h2        1 XXX      0.095700
     37 H11        -1.9480   -1.6020    0.6370 h1        1 XXX      0.055700
     38 H121       -3.6690   -2.2910   -1.8810 h1        1 XXX      0.071200
     39 H122       -3.8930   -3.0040   -0.2120 h1        1 XXX      0.071200
     40 HN31       -1.5520   -3.3320   -1.9660 hn        1 XXX      0.349800
     41 HN32       -1.7030   -3.9570   -0.4710 hn        1 XXX      0.349800
     42 H13        -4.2470   -0.0840   -0.8350 h1        1 XXX      0.059700
     43 HO7        -5.0570   -0.2530    1.3570 ho        1 XXX      0.425000
     44 H14        -2.4400    0.7270    1.5810 h1        1 XXX      0.059700
     45 HO8        -3.6900    2.6900    1.1270 ho        1 XXX      0.428000
     46 H15        -2.6110    1.8300   -1.3300 h1        1 XXX      0.083700
     47 HN41       -0.7250    2.4850    0.8260 hn        1 XXX      0.360800
     48 HN42       -0.7740    3.1210   -0.6670 hn        1 XXX      0.360800
@<TRIPOS>BOND
     1    1    2 1   
     2    1   23 1   
     3    2    3 1   
     4    2   10 1   
     5    2   24 1   
     6    3    4 1   
     7    3    5 1   
     8    3   25 1   
     9    4   26 1   
    10    5    6 1   
    11    5    7 1   
    12    5   27 1   
    13    6   28 1   
    14    6   29 1   
    15    7    8 1   
    16    7   30 1   
    17    7   31 1   
    18    8    9 1   
    19    8   10 1   
    20    8   32 1   
    21    9   33 1   
    22    9   34 1   
    23   10   11 1   
    24   10   35 1   
    25   11   12 1   
    26   12   13 1   
    27   12   21 1   
    28   12   36 1   
    29   13   14 1   
    30   14   15 1   
    31   14   17 1   
    32   14   37 1   
    33   15   16 1   
    34   15   38 1   
    35   15   39 1   
    36   16   40 1   
    37   16   41 1   
    38   17   18 1   
    39   17   19 1   
    40   17   42 1   
    41   18   43 1   
    42   19   20 1   
    43   19   21 1   
    44   19   44 1   
    45   20   45 1   
    46   21   22 1   
    47   21   46 1   
    48   22   47 1   
    49   22   48 1   
@<TRIPOS>SUBSTRUCTURE
     1 XXX         1 TEMP              0 ****  ****    0 ROOT
