@<TRIPOS>MOLECULE
XXX
   52    53     1     0     0
SMALL
bcc


@<TRIPOS>ATOM
      1 O3          0.1420    0.4780    0.1290 oh        1 XXX     -0.638800
      2 C4          1.5040    0.0980    0.1000 c3        1 XXX      0.105100
      3 C5          2.0570   -0.2580    1.4980 c3        1 XXX      0.096100
      4 O4          1.3490   -1.3690    1.9990 oh        1 XXX     -0.587800
      5 C6          3.5310   -0.7250    1.2990 c3        1 XXX      0.114500
      6 N1          4.1090   -1.2560    2.5740 n4        1 XXX     -0.835600
      7 C7          4.3540    0.4200    0.6920 c3        1 XXX     -0.135400
      8 C8          3.7510    0.8140   -0.6690 c3        1 XXX      0.126500
      9 N2          4.5770    1.8330   -1.3900 n4        1 XXX     -0.840600
     10 C9          2.2910    1.3030   -0.4570 c3        1 XXX      0.124100
     11 O5          1.7830    1.6780   -1.7380 os        1 XXX     -0.455600
     12 C10         0.6900    2.5930   -1.7200 c3        1 XXX      0.337900
     13 O6          1.2470    3.8770   -1.8600 os        1 XXX     -0.431600
     14 C11         1.5430    4.3800   -3.1650 c3        1 XXX      0.113100
     15 C12         0.5060    5.4450   -3.5760 c3        1 XXX      0.077800
     16 N3          0.5710    6.6980   -2.7780 n4        1 XXX     -0.834600
     17 C13         1.6570    3.3000   -4.2530 c3        1 XXX      0.111100
     18 O7          2.8910    2.6360   -4.0120 oh        1 XXX     -0.642800
     19 C14         0.5170    2.2540   -4.2450 c3        1 XXX      0.114100
     20 O8         -0.4830    2.6020   -5.1780 oh        1 XXX     -0.600800
     21 C15        -0.2460    2.2320   -2.8940 c3        1 XXX      0.089500
     22 N4         -0.9510    0.9330   -2.6840 n4        1 XXX     -0.825600
     23 HO3        -0.3280   -0.1430    0.7120 ho        1 XXX      0.472000
     24 H4          1.6050   -0.7960   -0.5830 h1        1 XXX      0.089700
     25 H5          1.9990    0.6300    2.1840 h1        1 XXX      0.095700
     26 HO4         0.7180   -1.0720    2.6760 ho        1 XXX      0.473000
     27 H6          3.5190   -1.6090    0.5820 hx        1 XXX      0.143700
     28 HN11        3.4510   -1.9580    2.9620 hn        1 XXX      0.491133
     29 HN12        5.0140   -1.7150    2.3970 hn        1 XXX      0.491133
     30 H71         5.4200    0.0860    0.5500 hc        1 XXX      0.110200
     31 H72         4.3600    1.3050    1.3850 hc        1 XXX      0.110200
     32 H8          3.7260   -0.0980   -1.3480 hx        1 XXX      0.138700
     33 HN21        5.4730    1.4200   -1.6850 hn        1 XXX      0.486800
     34 HN22        4.0530    2.1460   -2.2300 hn        1 XXX      0.486800
     35 H9          2.2450    2.1740    0.2530 h1        1 XXX      0.103700
     36 H10         0.1580    2.6100   -0.7210 h2        1 XXX      0.146700
     37 H11         2.5630    4.8590   -3.0380 h1        1 XXX      0.116700
     38 H121        0.6780    5.7230   -4.6620 hx        1 XXX      0.135700
     39 H122       -0.5400    5.0300   -3.4830 hx        1 XXX      0.135700
     40 HN31        0.4640    6.4990   -1.7760 hn        1 XXX      0.483467
     41 HN32       -0.1880    7.3350   -3.0730 hn        1 XXX      0.483467
     42 H13         1.6650    3.8000   -5.2670 h1        1 XXX      0.119700
     43 HO7         3.3090    2.4740   -4.8730 ho        1 XXX      0.466000
     44 H14         0.9750    1.2490   -4.4730 h1        1 XXX      0.096700
     45 HO8        -0.2050    2.3290   -6.0690 ho        1 XXX      0.478000
     46 H15        -1.0590    3.0300   -2.9380 hx        1 XXX      0.149700
     47 HN41       -1.4700    0.9500   -1.7950 hn        1 XXX      0.484467
     48 HN42       -0.2760    0.1610   -2.6510 hn        1 XXX      0.484467
     49 H131        4.2440   -0.5110    3.2680 hn        1 XXX      0.491133
     50 H23         4.7690    2.6440   -0.7920 hn        1 XXX      0.486800
     51 H33         1.4680    7.1810   -2.9240 hn        1 XXX      0.483467
     52 H43        -1.6110    0.7780   -3.4650 hn        1 XXX      0.484467
@<TRIPOS>BOND
     1    1    2 1   
     2    1   23 1   
     3    2    3 1   
     4    2   10 1   
     5    2   24 1   
     6    3    4 1   
     7    3    5 1   
     8    3   25 1   
     9    4   26 1   
    10    5    6 1   
    11    5    7 1   
    12    5   27 1   
    13    6   28 1   
    14    6   29 1   
    15    6   49 1   
    16    7    8 1   
    17    7   30 1   
    18    7   31 1   
    19    8    9 1   
    20    8   10 1   
    21    8   32 1   
    22    9   33 1   
    23    9   34 1   
    24    9   50 1   
    25   10   11 1   
    26   10   35 1   
    27   11   12 1   
    28   12   13 1   
    29   12   21 1   
    30   12   36 1   
    31   13   14 1   
    32   14   15 1   
    33   14   17 1   
    34   14   37 1   
    35   15   16 1   
    36   15   38 1   
    37   15   39 1   
    38   16   40 1   
    39   16   41 1   
    40   16   51 1   
    41   17   18 1   
    42   17   19 1   
    43   17   42 1   
    44   18   43 1   
    45   19   20 1   
    46   19   21 1   
    47   19   44 1   
    48   20   45 1   
    49   21   22 1   
    50   21   46 1   
    51   22   47 1   
    52   22   48 1   
    53   22   52 1   
@<TRIPOS>SUBSTRUCTURE
     1 XXX         1 TEMP              0 ****  ****    0 ROOT
