@<TRIPOS>MOLECULE
XXX
   52    53     1     0     0
SMALL
bcc


@<TRIPOS>ATOM
      1 O3          0.1380    0.2700    0.0200 oh        1 XXX     -0.636800
      2 C4          1.5180   -0.0380    0.0590 c3        1 XXX      0.106100
      3 C5          2.0070   -0.4170    1.4750 c3        1 XXX      0.095100
      4 O4          1.3460   -1.5910    1.8890 oh        1 XXX     -0.588800
      5 C6          3.5170   -0.7830    1.3520 c3        1 XXX      0.115500
      6 N1          4.0480   -1.3310    2.6400 nz        1 XXX     -0.835600
      7 C7          4.3020    0.4350    0.8450 c3        1 XXX     -0.135400
      8 C8          3.7630    0.8510   -0.5350 c3        1 XXX      0.125500
      9 N2          4.5540    1.9620   -1.1520 nz        1 XXX     -0.839600
     10 C9          2.2630    1.2320   -0.4010 c3        1 XXX      0.123100
     11 O5          1.8050    1.6200   -1.6980 os        1 XXX     -0.454600
     12 C10         0.7060    2.5300   -1.6980 c3        1 XXX      0.329900
     13 O6          1.2820    3.8130   -1.7300 os        1 XXX     -0.409600
     14 C11         1.4770    4.4590   -2.9900 c3        1 XXX      0.118100
     15 C12         0.2640    5.3740   -3.2840 c3        1 XXX      0.061800
     16 N3          0.6000    6.8080   -3.4920 nz        1 XXX     -0.834600
     17 C13         1.7330    3.4690   -4.1360 c3        1 XXX      0.106100
     18 O7          2.9870    2.8630   -3.8580 oh        1 XXX     -0.636800
     19 C14         0.6500    2.3690   -4.2510 c3        1 XXX      0.110100
     20 O8         -0.3210    2.7480   -5.2040 oh        1 XXX     -0.607800
     21 C15        -0.1650    2.2290   -2.9370 c3        1 XXX      0.088500
     22 N4         -0.8360    0.8990   -2.8440 nz        1 XXX     -0.825600
     23 HO3        -0.3320   -0.4110    0.5320 ho        1 XXX      0.471000
     24 H4          1.7100   -0.8960   -0.6490 h1        1 XXX      0.090700
     25 H5          1.8490    0.4360    2.1900 h1        1 XXX      0.095700
     26 HO4         0.6440   -1.3600    2.5210 ho        1 XXX      0.473000
     27 H6          3.6070   -1.6340    0.6020 hx        1 XXX      0.143700
     28 HN11        4.9900   -1.7260    2.5050 hn        1 XXX      0.491133
     29 HN12        4.0920   -0.6090    3.3700 hn        1 XXX      0.491133
     30 H71         5.3950    0.1740    0.7590 hc        1 XXX      0.109700
     31 H72         4.2080    1.2880    1.5730 hc        1 XXX      0.109700
     32 H8          3.8470   -0.0250   -1.2530 hx        1 XXX      0.139700
     33 HN21        4.6550    2.7490   -0.5020 hn        1 XXX      0.486467
     34 HN22        4.0570    2.2880   -2.0020 hn        1 XXX      0.486467
     35 H9          2.1170    2.0700    0.3350 h1        1 XXX      0.105700
     36 H10         0.1160    2.4860   -0.7310 h2        1 XXX      0.145700
     37 H11         2.4200    5.0620   -2.8140 h1        1 XXX      0.120700
     38 H121       -0.4500    5.3240   -2.4060 hx        1 XXX      0.136200
     39 H122       -0.2770    5.0100   -4.2110 hx        1 XXX      0.136200
     40 HN31        1.0560    7.2060   -2.6600 hn        1 XXX      0.485133
     41 HN32        1.2240    6.9330   -4.3000 hn        1 XXX      0.485133
     42 H13         1.7660    4.0350   -5.1120 h1        1 XXX      0.109700
     43 HO7         3.4420    2.7290   -4.7050 ho        1 XXX      0.465000
     44 H14         1.1610    1.4030   -4.5250 h1        1 XXX      0.099700
     45 HO8        -0.0280    2.4800   -6.0910 ho        1 XXX      0.478000
     46 H15        -0.9950    3.0090   -2.9590 hx        1 XXX      0.148700
     47 HN41       -1.4740    0.7850   -3.6500 hn        1 XXX      0.485133
     48 HN42       -1.3750    0.8340   -1.9680 hn        1 XXX      0.485133
     49 H131        3.4130   -2.0870    2.9580 hn        1 XXX      0.491133
     50 H23         5.4920    1.6270   -1.4140 hn        1 XXX      0.486467
     51 H33        -0.2690    7.3400   -3.6700 hn        1 XXX      0.485133
     52 H43        -0.1400    0.1450   -2.8530 hn        1 XXX      0.485133
@<TRIPOS>BOND
     1    1    2 1   
     2    1   23 1   
     3    2    3 1   
     4    2   10 1   
     5    2   24 1   
     6    3    4 1   
     7    3    5 1   
     8    3   25 1   
     9    4   26 1   
    10    5    6 1   
    11    5    7 1   
    12    5   27 1   
    13    6   28 1   
    14    6   29 1   
    15    6   49 1   
    16    7    8 1   
    17    7   30 1   
    18    7   31 1   
    19    8    9 1   
    20    8   10 1   
    21    8   32 1   
    22    9   33 1   
    23    9   34 1   
    24    9   50 1   
    25   10   11 1   
    26   10   35 1   
    27   11   12 1   
    28   12   13 1   
    29   12   21 1   
    30   12   36 1   
    31   13   14 1   
    32   14   15 1   
    33   14   17 1   
    34   14   37 1   
    35   15   16 1   
    36   15   38 1   
    37   15   39 1   
    38   16   40 1   
    39   16   41 1   
    40   16   51 1   
    41   17   18 1   
    42   17   19 1   
    43   17   42 1   
    44   18   43 1   
    45   19   20 1   
    46   19   21 1   
    47   19   44 1   
    48   20   45 1   
    49   21   22 1   
    50   21   46 1   
    51   22   47 1   
    52   22   48 1   
    53   22   52 1   
@<TRIPOS>SUBSTRUCTURE
     1 XXX         1 TEMP              0 ****  ****    0 ROOT
