@<TRIPOS>MOLECULE
XXY
   36    37     1     0     0
SMALL
bcc


@<TRIPOS>ATOM
      1 C1         -0.7880    0.8010    0.2570 cc        1 XXY      0.272800
      2 N2          0.2860    1.4400   -0.2560 nd        1 XXY     -0.691000
      3 CA2         1.2270    0.4550   -0.5630 cd        1 XXY      0.000600
      4 C2          0.7060   -0.8530   -0.2120 cc        1 XXY      0.177400
      5 O2          1.2340   -2.0100   -0.2640 o         1 XXY     -0.565000
      6 N3         -0.6010   -0.6050    0.2920 n         1 XXY     -0.259900
      7 CA1        -2.0460    1.4870    0.7400 c3        1 XXY      0.107200
      8 N1         -1.7990    2.7770    1.3680 n3        1 XXY     -0.893800
      9 CB1        -3.0410    1.5770   -0.4480 c3        1 XXY      0.136100
     10 CG1        -4.4380    1.9150    0.0310 c3        1 XXY     -0.085100
     11 OG1        -2.6580    2.5750   -1.3920 oh        1 XXY     -0.646800
     12 CA3        -1.4540   -1.5900    0.8750 c3        1 XXY     -0.061700
     13 C3         -2.9710   -1.5080    0.5660 c         1 XXY      0.896600
     14 OXT        -3.7420   -1.1920    1.5230 o         1 XXY     -0.856300
     15 CB2         2.5110    0.7370   -1.2180 c3        1 XXY      0.040600
     16 CG2         3.7110    0.3050   -0.4530 cc        1 XXY     -0.140900
     17 ND1         3.8050   -0.8910    0.2470 na        1 XXY     -0.273900
     18 CE1         5.0890   -0.9480    0.7890 cc        1 XXY      0.314400
     19 NE2         5.8190    0.1490    0.4650 nd        1 XXY     -0.716000
     20 CD2         4.9750    0.9370   -0.3070 cd        1 XXY      0.203200
     21 O3         -3.3930   -1.8160   -0.5840 o         1 XXY     -0.856300
     22 HA1        -2.5380    0.8210    1.5190 h1        1 XXY      0.112700
     23 HN11       -0.9850    2.7040    1.9500 hn        1 XXY      0.332800
     24 HN12       -1.6010    3.4560    0.6550 hn        1 XXY      0.332800
     25 HB1        -3.0520    0.5630   -0.9510 h1        1 XXY      0.096700
     26 HG11       -4.4530    2.8860    0.5800 hc        1 XXY      0.034033
     27 HG12       -5.1310    1.9900   -0.8410 hc        1 XXY      0.034033
     28 HG13       -4.7790    1.0920    0.7080 hc        1 XXY      0.034033
     29 HOG1       -1.7540    2.3600   -1.6510 ho        1 XXY      0.413000
     30 HA31       -1.0900   -2.5950    0.5170 h1        1 XXY      0.028700
     31 HA32       -1.3380   -1.5500    1.9980 h1        1 XXY      0.028700
     32 HB21        2.5480    0.2030   -2.2120 hc        1 XXY      0.025200
     33 HB22        2.6220    1.8370   -1.4230 hc        1 XXY      0.025200
     34 HND1        3.0540   -1.5510    0.3340 hn        1 XXY      0.359700
     35 HE1         5.4320   -1.7850    1.3980 h5        1 XXY      0.029100
     36 HD2         5.2870    1.8980   -0.7040 h4        1 XXY      0.011100
@<TRIPOS>BOND
     1    1    2 2   
     2    1    6 1   
     3    1    7 1   
     4    2    3 1   
     5    3    4 2   
     6    3   15 1   
     7    4    5 1   
     8    4    6 1   
     9    6   12 1   
    10    7    8 1   
    11    7    9 1   
    12    7   22 1   
    13    8   23 1   
    14    8   24 1   
    15    9   10 1   
    16    9   11 1   
    17    9   25 1   
    18   10   26 1   
    19   10   27 1   
    20   10   28 1   
    21   11   29 1   
    22   12   13 1   
    23   12   30 1   
    24   12   31 1   
    25   13   14 1   
    26   13   21 1   
    27   15   16 1   
    28   15   32 1   
    29   15   33 1   
    30   16   17 1   
    31   16   20 2   
    32   17   18 1   
    33   17   34 1   
    34   18   19 2   
    35   18   35 1   
    36   19   20 1   
    37   20   36 1   
@<TRIPOS>SUBSTRUCTURE
     1 XXY         1 TEMP              0 ****  ****    0 ROOT
