@<TRIPOS>MOLECULE
XXZ
   49    47     1     0     0
SMALL
bcc


@<TRIPOS>ATOM
      1 F1         -5.3670    0.9350    3.9540 f         1 XXZ     -0.109000
      2 C2         -4.0430    1.1300    4.0370 c2        1 XXZ      0.162000
      3 C3         -3.4570    1.4080    5.2710 c2        1 XXZ     -0.228000
      4 C4         -2.0910    1.6800    5.3490 c1        1 XXZ     -0.044000
      5 C1         -1.3120    1.6720    4.1950 c1        1 XXZ     -0.230000
      6 C6         -1.9050    1.3900    2.9440 c1        1 XXZ      0.151000
      7 C7         -3.2540    1.1220    2.8660 c1        1 XXZ     -0.207000
      8 CG         -3.8540    0.6410    1.5570 c2        1 XXZ      0.177000
      9 N20        -3.0100    0.3650    0.4590 n1        1 XXZ     -0.292000
     10 N21        -5.2770    0.6300    1.3840 n3        1 XXZ     -0.338000
     11 N1         -1.0680    1.2650    1.7520 n3        1 XXZ     -0.327000
     12 C5         -1.6080    0.6560    0.5470 c2        1 XXZ      0.163000
     13 C10        -1.9880    1.6140   -0.3290 c3        1 XXZ     -0.190500
     14 C11        -0.9650    1.7590   -1.4520 c3        1 XXZ     -0.038500
     15 N12        -0.0170    0.5070   -1.5660 n         1 XXZ     -0.319000
     16 C13         0.6640    0.5590   -0.1490 c3        1 XXZ     -0.038500
     17 C14        -0.3430    0.4050    0.9860 c3        1 XXZ     -0.190500
     18 C15         0.1740   -0.4180   -2.6530 c2        1 XXZ      0.341000
     19 O16        -0.4610   -0.2810   -3.6850 o         1 XXZ     -0.350000
     20 C18         2.2000   -0.6970   -3.3320 c1        1 XXZ     -0.105000
     21 NH          5.8280   -3.3260   -3.7640 n3        1 XXZ     -0.350000
     22 CB          5.4910   -2.5010   -2.6410 c3        1 XXZ     -0.042000
     23 C8          3.9940   -2.1720   -2.6800 c2        1 XXZ     -0.069000
     24 CD1         3.0970   -2.9300   -1.9310 c2        1 XXZ     -0.115000
     25 CE1         1.7520   -2.5720   -1.8830 c1        1 XXZ     -0.092000
     26 CD2         3.5450   -1.0560   -3.3800 c1        1 XXZ     -0.135000
     27 CZ          1.3040   -1.4560   -2.5830 c1        1 XXZ     -0.113000
     28 H3         -4.0050    1.4130    6.0850 ha        1 XXZ      0.152000
     29 H4         -1.6780    1.8760    6.2190 ha        1 XXZ      0.139000
     30 H1         -0.3510    1.8630    4.2510 ha        1 XXZ      0.139000
     31 H211       -5.6360    0.6360    0.5390 hn        1 XXZ      0.210500
     32 H212       -5.8270    0.6630    2.1150 hn        1 XXZ      0.210500
     33 HN1        -0.7050    2.0860    1.5440 hn        1 XXZ      0.223000
     34 H101       -2.8610    1.3710   -0.7160 hc        1 XXZ      0.108250
     35 H102       -2.0720    2.4710    0.1440 hc        1 XXZ      0.108250
     36 H111       -0.4190    2.5580   -1.2830 h1        1 XXZ      0.097500
     37 H112       -1.4430    1.8740   -2.3050 h1        1 XXZ      0.097500
     38 H131        1.3250   -0.1640   -0.0870 h1        1 XXZ      0.097500
     39 H132        1.1260    1.4220   -0.0490 h1        1 XXZ      0.097500
     40 H141       -0.2980   -0.5170    1.3360 hc        1 XXZ      0.108250
     41 H142       -0.1190    1.0330    1.7030 hc        1 XXZ      0.108250
     42 H18         1.8850    0.0890   -3.8250 ha        1 XXZ      0.141000
     43 HNH1        6.1810   -4.1200   -3.4650 hn        1 XXZ      0.150000
     44 HNH2        6.4470   -2.8940   -4.2870 hn        1 XXZ      0.150000
     45 HB1         5.7010   -2.9780   -1.8090 h1        1 XXZ      0.075000
     46 HB2         6.0110   -1.6670   -2.6800 h1        1 XXZ      0.075000
     47 HD1         3.4130   -3.7180   -1.4370 ha        1 XXZ      0.155000
     48 HE1         1.1200   -3.1060   -1.3560 ha        1 XXZ      0.149000
     49 HD2         4.1770   -0.5210   -3.9080 ha        1 XXZ      0.135000
@<TRIPOS>BOND
     1    1    2 1   
     2    2    3 1   
     3    2    7 1   
     4    3    4 1   
     5    3   28 1   
     6    4   29 1   
     7    5    6 1   
     8    5   30 1   
     9    6   11 1   
    10    7    8 1   
    11    8    9 1   
    12    8   10 1   
    13   10   31 1   
    14   10   32 1   
    15   11   12 1   
    16   11   33 1   
    17   12   13 1   
    18   12   17 1   
    19   13   14 1   
    20   13   34 1   
    21   13   35 1   
    22   14   15 1   
    23   14   36 1   
    24   14   37 1   
    25   15   16 1   
    26   15   18 1   
    27   16   17 1   
    28   16   38 1   
    29   16   39 1   
    30   17   40 1   
    31   17   41 1   
    32   18   19 1   
    33   18   27 1   
    34   20   27 1   
    35   20   42 1   
    36   21   22 1   
    37   21   43 1   
    38   21   44 1   
    39   22   23 1   
    40   22   45 1   
    41   22   46 1   
    42   23   24 1   
    43   23   26 1   
    44   24   25 1   
    45   24   47 1   
    46   25   48 1   
    47   26   49 1   
@<TRIPOS>SUBSTRUCTURE
     1 XXZ         1 TEMP              0 ****  ****    0 ROOT
