@<TRIPOS>MOLECULE
XXZ
   49    52     1     0     0
SMALL
bcc


@<TRIPOS>ATOM
      1 F1          6.0190   -1.2630    1.3740 f         1 XXZ     -0.144900
      2 C2          5.2580   -1.1410    0.2580 ca        1 XXZ      0.196900
      3 C3          5.6500   -1.8850   -0.8690 ca        1 XXZ     -0.228000
      4 C4          4.8910   -1.8220   -2.0330 ca        1 XXZ     -0.043000
      5 C1          3.7390   -1.0560   -2.0890 ca        1 XXZ     -0.230000
      6 C6          3.3260   -0.3010   -0.9610 ca        1 XXZ      0.232600
      7 C7          4.1130   -0.3200    0.2310 ca        1 XXZ     -0.290900
      8 CG          3.6230    0.5440    1.3440 ce        1 XXZ      0.700800
      9 N20         2.4240    1.0840    1.3540 n2        1 XXZ     -0.704900
     10 N21         4.5060    0.8640    2.3790 nh        1 XXZ     -0.899800
     11 N1          2.1960    0.4920   -1.0350 nh        1 XXZ     -0.771600
     12 C5          1.5350    0.9630    0.2000 c3        1 XXZ      0.446400
     13 C10         0.9070    2.3690   -0.0820 c3        1 XXZ     -0.111900
     14 C11        -0.2100    2.3100   -1.1180 c3        1 XXZ      0.078000
     15 N12        -1.2440    1.3330   -0.8430 n         1 XXZ     -0.460800
     16 C13        -0.7640    0.0220   -0.4740 c3        1 XXZ      0.078000
     17 C14         0.3410    0.0200    0.5790 c3        1 XXZ     -0.111900
     18 C15        -2.5260    1.7710   -0.5050 c         1 XXZ      0.667700
     19 O16        -2.8080    2.9860   -0.5370 o         1 XXZ     -0.590100
     20 C18        -3.8980   -0.2630   -1.0750 ca        1 XXZ     -0.098500
     21 NH         -6.4440   -3.3520    0.5600 n3        1 XXZ     -0.916800
     22 C8         -5.6410   -1.0240    0.4230 ca        1 XXZ     -0.075300
     23 CD1        -5.3190    0.0060    1.3130 ca        1 XXZ     -0.124000
     24 CE1        -4.2970    0.9020    1.0110 ca        1 XXZ     -0.098500
     25 CD2        -4.9290   -1.1510   -0.7750 ca        1 XXZ     -0.124000
     26 CZ         -3.5770    0.7630   -0.1800 ca        1 XXZ     -0.133600
     27 H3          6.5540   -2.5070   -0.8160 ha        1 XXZ      0.152000
     28 H4          5.2070   -2.3980   -2.9180 ha        1 XXZ      0.140000
     29 H1          3.1460   -1.0290   -3.0140 ha        1 XXZ      0.140000
     30 H211        5.1790    0.1700    2.6080 hn        1 XXZ      0.415300
     31 H212        4.1160    1.3380    3.1640 hn        1 XXZ      0.415300
     32 HN1         1.5910    0.3490   -1.8120 hn        1 XXZ      0.428800
     33 H101        1.6940    3.0760   -0.4480 hc        1 XXZ      0.068700
     34 H102        0.5060    2.7690    0.8860 hc        1 XXZ      0.068700
     35 H111        0.2190    2.0650   -2.1320 h1        1 XXZ      0.058200
     36 H112       -0.6780    3.3360   -1.1900 h1        1 XXZ      0.058200
     37 H131       -1.6140   -0.6080   -0.0850 h1        1 XXZ      0.058200
     38 H132       -0.3900   -0.4760   -1.4160 h1        1 XXZ      0.058200
     39 H141        0.7040   -1.0320    0.7070 hc        1 XXZ      0.068700
     40 H142       -0.0750    0.3630    1.5620 hc        1 XXZ      0.068700
     41 H18        -3.3420   -0.3630   -2.0200 ha        1 XXZ      0.145500
     42 HNH1       -5.6020   -3.5890    1.0450 hn        1 XXZ      0.353300
     43 HNH2       -7.1920   -3.9280    0.8920 hn        1 XXZ      0.353300
     44 HB1        -7.6250   -1.7230    0.0290 h1        1 XXZ      0.037200
     45 HB2        -7.1470   -1.7320    1.7820 h1        1 XXZ      0.037200
     46 HD1        -5.8790    0.1180    2.2540 ha        1 XXZ      0.145000
     47 HE1        -4.0590    1.7290    1.6990 ha        1 XXZ      0.145500
     48 HD2        -5.1860   -1.9550   -1.4820 ha        1 XXZ      0.145000
     49 CB         -6.7750   -1.9560    0.7370 c3        1 XXZ      0.200100
@<TRIPOS>BOND
     1    1    2 1   
     2    2    3 ar  
     3    2    7 ar  
     4    3    4 ar  
     5    3   27 1   
     6    4    5 ar  
     7    4   28 1   
     8    5    6 ar  
     9    5   29 1   
    10    6    7 ar  
    11    6   11 1   
    12    7    8 1   
    13    8    9 2   
    14    8   10 1   
    15    9   12 1   
    16   10   30 1   
    17   10   31 1   
    18   11   12 1   
    19   11   32 1   
    20   12   13 1   
    21   12   17 1   
    22   13   14 1   
    23   13   33 1   
    24   13   34 1   
    25   14   15 1   
    26   14   35 1   
    27   14   36 1   
    28   15   16 1   
    29   15   18 1   
    30   16   17 1   
    31   16   37 1   
    32   16   38 1   
    33   17   39 1   
    34   17   40 1   
    35   18   19 2   
    36   18   26 1   
    37   20   25 ar  
    38   20   26 ar  
    39   20   41 1   
    40   21   42 1   
    41   21   43 1   
    42   21   49 1   
    43   22   23 ar  
    44   22   25 ar  
    45   22   49 1   
    46   23   24 ar  
    47   23   46 1   
    48   24   26 ar  
    49   24   47 1   
    50   25   48 1   
    51   44   49 1   
    52   45   49 1   
@<TRIPOS>SUBSTRUCTURE
     1 XXZ         1 TEMP              0 ****  ****    0 ROOT
