@<TRIPOS>MOLECULE
XXZ
   51    52     1     0     0
SMALL
bcc


@<TRIPOS>ATOM
      1 F1          1.3290    1.7060    0.1230 f         1 XXZ     -0.157500
      2 C2          2.1080    0.6130    0.0040 c2        1 XXZ      0.243300
      3 C3          2.9110    0.2460    1.2450 c3        1 XXZ     -0.063000
      4 C4          3.2360   -1.2170    1.1970 c2        1 XXZ     -0.122300
      5 C1          3.4690   -1.6800   -0.0200 c1        1 XXZ     -0.150800
      6 C6          3.2230   -1.1520   -1.2400 ce        1 XXZ      0.158900
      7 C7          2.1680   -0.0960   -1.1690 ce        1 XXZ     -0.319600
      8 CG          1.5130    0.1460   -2.4570 ce        1 XXZ      0.577500
      9 N20         1.8780   -0.3500   -3.5930 n2        1 XXZ     -0.544900
     10 N21         0.3060    1.0260   -2.4380 n4        1 XXZ     -0.810600
     11 N1          3.8380   -1.3890   -2.4490 nh        1 XXZ     -0.748000
     12 C5          3.0550   -1.2530   -3.6960 c3        1 XXZ      0.469600
     13 C10         3.9770   -0.6590   -4.8180 c3        1 XXZ     -0.082400
     14 C11         5.3760   -1.2630   -4.9150 c3        1 XXZ      0.079000
     15 N12         5.4470   -2.6550   -5.2740 n         1 XXZ     -0.530900
     16 C13         2.0410   -3.5500   -3.3810 c2        1 XXZ     -0.171000
     17 C14         2.5030   -2.5950   -4.1830 c2        1 XXZ     -0.217200
     18 C15         5.9460   -3.6150   -4.4390 c         1 XXZ      0.688300
     19 O16         6.1510   -3.3830   -3.2160 o         1 XXZ     -0.702100
     20 C18         7.6670   -5.4270   -4.8050 c3        1 XXZ     -0.039200
     21 NH          7.6290   -5.5380   -2.2880 n4        1 XXZ     -0.850600
     22 C8          9.1140   -6.9670   -3.5580 c1        1 XXZ     -0.302100
     23 CD1         4.5360   -6.3490   -6.3790 c2        1 XXZ     -0.181100
     24 CE1         5.3880   -5.6470   -5.7010 c1        1 XXZ      0.020200
     25 CD2         7.8260   -6.3250   -3.5640 c3        1 XXZ      0.256600
     26 CZ          6.2670   -4.9600   -5.0130 ce        1 XXZ     -0.257500
     27 H3          2.2940    0.4610    2.1600 hc        1 XXZ      0.120700
     28 H4          3.8180    0.9100    1.2840 hc        1 XXZ      0.120700
     29 H1          3.1790   -1.8090    2.1180 ha        1 XXZ      0.182000
     30 H211        0.5730    1.9380   -2.0430 hn        1 XXZ      0.478133
     31 H212       -0.0860    1.1610   -3.3800 hn        1 XXZ      0.478133
     32 HN1         4.5350   -2.1090   -2.4700 hn        1 XXZ      0.474800
     33 H101        4.1300    0.4380   -4.6280 hc        1 XXZ      0.079700
     34 H102        3.4370   -0.7680   -5.7950 hc        1 XXZ      0.079700
     35 H111        5.9170   -0.6770   -5.7210 h1        1 XXZ      0.085200
     36 H112        5.9410   -1.1010   -3.9510 h1        1 XXZ      0.085200
     37 H131        5.2660   -2.8930   -6.2240 hn        1 XXZ      0.333500
     38 H132        2.0190   -3.4740   -2.2830 ha        1 XXZ      0.135500
     39 H141        1.6450   -4.4960   -3.7800 ha        1 XXZ      0.135500
     40 H142        2.4910   -2.6990   -5.2790 ha        1 XXZ      0.152000
     41 H18         7.9940   -6.0430   -5.6900 hc        1 XXZ      0.102200
     42 HNH1        7.0080   -7.1160   -3.5740 hx        1 XXZ      0.119700
     43 HNH2        8.3260   -4.7900   -2.2290 hn        1 XXZ      0.467133
     44 HB1         7.7240   -6.1530   -1.4780 hn        1 XXZ      0.467133
     45 HB2         6.6940   -5.0980   -2.3010 hn        1 XXZ      0.467133
     46 HD1         3.8520   -7.0750   -5.9070 ha        1 XXZ      0.176000
     47 HE1         4.4480   -6.2690   -7.4770 ha        1 XXZ      0.176000
     48 HD2         8.3620   -4.5470   -4.7400 hc        1 XXZ      0.102200
     49 H213       -0.4010    0.5930   -1.8330 hn        1 XXZ      0.478133
     50 HH3        11.1030   -8.0500   -3.6380 ha        1 XXZ      0.206500
     51 CB         10.1650   -7.5390   -3.6020 c1        1 XXZ      0.054500
@<TRIPOS>BOND
     1    1    2 1   
     2    2    3 1   
     3    2    7 2   
     4    3    4 1   
     5    3   27 1   
     6    3   28 1   
     7    4    5 2   
     8    4   29 1   
     9    5    6 2   
    10    6    7 1   
    11    6   11 1   
    12    7    8 1   
    13    8    9 2   
    14    8   10 1   
    15    9   12 1   
    16   10   30 1   
    17   10   31 1   
    18   10   49 1   
    19   11   12 1   
    20   11   32 1   
    21   12   13 1   
    22   12   17 1   
    23   13   14 1   
    24   13   33 1   
    25   13   34 1   
    26   14   15 1   
    27   14   35 1   
    28   14   36 1   
    29   15   18 1   
    30   15   37 1   
    31   16   17 2   
    32   16   38 1   
    33   16   39 1   
    34   17   40 1   
    35   18   19 2   
    36   18   26 1   
    37   20   25 1   
    38   20   26 1   
    39   20   41 1   
    40   20   48 1   
    41   21   25 1   
    42   21   43 1   
    43   21   44 1   
    44   21   45 1   
    45   22   25 1   
    46   22   51 3   
    47   23   24 2   
    48   23   46 1   
    49   23   47 1   
    50   24   26 2   
    51   25   42 1   
    52   50   51 1   
@<TRIPOS>SUBSTRUCTURE
     1 XXZ         1 TEMP              0 ****  ****    0 ROOT
