@<TRIPOS>MOLECULE
XXZ
   51    51     1     0     0
SMALL
bcc


@<TRIPOS>ATOM
      1 F1          0.2480    1.8650    0.1840 f         1 XXZ     -0.156500
      2 C2          1.1900    0.9260    0.4010 c2        1 XXZ      0.238300
      3 C3          1.8310    0.9470    1.7810 c3        1 XXZ     -0.063000
      4 C4          2.3800   -0.4150    2.0860 c2        1 XXZ     -0.109300
      5 C1          2.8710   -1.0390    1.0280 c1        1 XXZ     -0.115800
      6 C6          2.7290   -0.8210   -0.2930 cc        1 XXZ      0.157900
      7 C7          1.5370    0.0310   -0.5830 cc        1 XXZ     -0.311600
      8 CG          1.0720   -0.0770   -1.9650 cc        1 XXZ      0.552500
      9 N20         1.7350   -0.6520   -2.9310 nd        1 XXZ     -0.509300
     10 N21        -0.2660    0.4910   -2.2770 nz        1 XXZ     -0.800600
     11 N1          3.5240   -1.2310   -1.3440 na        1 XXZ     -0.633800
     12 C5          3.0220   -1.2040   -2.6700 cd        1 XXZ      0.279600
     13 C10         5.1570   -1.4600   -7.0220 c3        1 XXZ     -0.115100
     14 C11         5.9990   -1.4130   -5.7580 c3        1 XXZ      0.084000
     15 N12         5.7880   -2.5240   -4.8390 n         1 XXZ     -0.440800
     16 C13         5.1150   -2.2390   -3.5930 c3        1 XXZ      0.120200
     17 C14         3.7420   -1.6690   -3.7400 c2        1 XXZ     -0.152200
     18 C15         6.3120   -3.7570   -5.1440 c         1 XXZ      0.705300
     19 O16         7.0040   -3.9080   -6.1870 o         1 XXZ     -0.714100
     20 C18         7.3700   -5.4500   -3.6850 ce        1 XXZ     -0.192100
     21 NH          8.5620   -5.9740   -6.8730 n+        1 XXZ     -0.915200
     22 C8          7.6650   -7.7330   -2.5320 c1        1 XXZ     -0.064900
     23 CD1         3.7970   -6.0600   -3.8870 c2        1 XXZ     -0.191100
     24 CE1         4.9460   -5.4890   -4.0650 c1        1 XXZ      0.007200
     25 CD2         7.5070   -6.6180   -3.1020 c1        1 XXZ     -0.027900
     26 CZ          6.1260   -4.9430   -4.2440 ce        1 XXZ     -0.176300
     27 H3          1.0500    1.2100    2.5470 hc        1 XXZ      0.123700
     28 H4          2.6060    1.7630    1.7960 hc        1 XXZ      0.123700
     29 H1          2.2730   -0.8290    3.0960 ha        1 XXZ      0.189000
     30 H211       -0.2790    1.4770   -1.9770 hn        1 XXZ      0.479800
     31 H212       -0.4840    0.4350   -3.2810 hn        1 XXZ      0.479800
     32 HN1         4.3350   -1.7740   -1.1460 hn        1 XXZ      0.478800
     33 H101        4.0660   -1.4160   -6.7950 hc        1 XXZ      0.053033
     34 H102        5.3640   -2.3930   -7.6010 hc        1 XXZ      0.053033
     35 H111        5.4250   -0.5810   -7.6580 hc        1 XXZ      0.053033
     36 H112        7.0890   -1.4130   -6.0530 h1        1 XXZ      0.067200
     37 H131        5.7850   -0.4570   -5.2020 h1        1 XXZ      0.067200
     38 H132        5.7570   -1.4980   -3.0230 h1        1 XXZ      0.079700
     39 H141        5.0530   -3.1850   -2.9740 h1        1 XXZ      0.079700
     40 H142        3.3140   -1.6140   -4.7560 ha        1 XXZ      0.180000
     41 H18         8.2300   -4.7540   -3.7270 ha        1 XXZ      0.145000
     42 HNH1        9.5750   -5.9910   -6.7480 hn        1 XXZ      0.474050
     43 HNH2        8.3020   -5.2120   -7.5140 hn        1 XXZ      0.474050
     44 HB1         8.2400   -6.8670   -7.2450 hn        1 XXZ      0.474050
     45 HB2         8.8020   -9.1670   -1.4860 ha        1 XXZ      0.160500
     46 HD1         3.1360   -5.8100   -3.0410 ha        1 XXZ      0.161000
     47 HE1         3.4130   -6.8380   -4.5690 ha        1 XXZ      0.161000
     48 HD2         8.0950   -5.7760   -5.9690 hn        1 XXZ      0.474050
     49 H213       -0.9730   -0.0320   -1.7450 hn        1 XXZ      0.479800
     50 HH3         7.0110   -9.5990   -1.8000 ha        1 XXZ      0.160500
     51 CB          7.8320   -8.8720   -1.9200 c2        1 XXZ     -0.126100
@<TRIPOS>BOND
     1    1    2 1   
     2    2    3 1   
     3    2    7 2   
     4    3    4 1   
     5    3   27 1   
     6    3   28 1   
     7    4    5 2   
     8    4   29 1   
     9    5    6 2   
    10    6    7 1   
    11    6   11 1   
    12    7    8 1   
    13    8    9 2   
    14    8   10 1   
    15    9   12 1   
    16   10   30 1   
    17   10   31 1   
    18   10   49 1   
    19   11   12 1   
    20   11   32 1   
    21   12   17 2   
    22   13   14 1   
    23   13   33 1   
    24   13   34 1   
    25   13   35 1   
    26   14   15 1   
    27   14   36 1   
    28   14   37 1   
    29   15   16 1   
    30   15   18 1   
    31   16   17 1   
    32   16   38 1   
    33   16   39 1   
    34   17   40 1   
    35   18   19 2   
    36   18   26 1   
    37   20   25 2   
    38   20   26 1   
    39   20   41 1   
    40   21   42 1   
    41   21   43 1   
    42   21   44 1   
    43   21   48 1   
    44   22   25 2   
    45   22   51 2   
    46   23   24 2   
    47   23   46 1   
    48   23   47 1   
    49   24   26 2   
    50   45   51 1   
    51   50   51 1   
@<TRIPOS>SUBSTRUCTURE
     1 XXZ         1 TEMP              0 ****  ****    0 ROOT
