@<TRIPOS>MOLECULE
XXZ
   51    52     1     0     0
SMALL
bcc


@<TRIPOS>ATOM
      1 F1         -0.1750    0.4350   -1.0180 f         1 XXZ     -0.154500
      2 C2          1.1210    0.3440   -0.6600 c2        1 XXZ      0.247300
      3 C3          1.3700    0.1010    0.8210 c3        1 XXZ     -0.066000
      4 C4          2.6970   -0.5850    0.9820 c2        1 XXZ     -0.133300
      5 C1          3.5960   -0.1950    0.0970 c1        1 XXZ     -0.165800
      6 C6          3.4980    0.5540   -1.0270 ce        1 XXZ      0.160900
      7 C7          2.1230    0.4670   -1.5990 ce        1 XXZ     -0.346600
      8 CG          1.9240    0.5220   -3.0470 ce        1 XXZ      0.571500
      9 N20         2.4490   -0.1170   -4.0340 nf        1 XXZ     -0.539300
     10 N21         0.9110    1.5630   -3.4590 n4        1 XXZ     -0.821600
     11 N1          4.5000    1.2540   -1.6430 nh        1 XXZ     -0.800600
     12 C5          3.3720   -1.1630   -4.0380 cf        1 XXZ      0.097400
     13 C10         3.9610   -1.4500   -5.3970 c3        1 XXZ     -0.047200
     14 C11         5.3040   -2.1660   -5.2630 c3        1 XXZ      0.079000
     15 N12         5.2630   -3.3060   -4.3670 n         1 XXZ     -0.443800
     16 C13         4.6790   -3.0810   -3.0640 c3        1 XXZ      0.118200
     17 C14         3.7180   -1.9420   -2.9810 c2        1 XXZ     -0.116200
     18 C15         5.7660   -4.5220   -4.7610 c         1 XXZ      0.688300
     19 O16         6.2890   -4.6570   -5.8980 o         1 XXZ     -0.667100
     20 C18         7.0560   -6.1930   -3.3430 c3        1 XXZ     -0.044200
     21 NH          7.6670   -7.0990   -5.6210 n4        1 XXZ     -0.848600
     22 C8          9.3420   -6.8860   -3.8820 c1        1 XXZ     -0.297100
     23 CD1         3.5110   -6.9040   -3.2180 c2        1 XXZ     -0.180100
     24 CE1         4.6160   -6.3030   -3.5300 c1        1 XXZ      0.008200
     25 CD2         8.1440   -6.3050   -4.4270 c3        1 XXZ      0.252600
     26 CZ          5.7400   -5.7080   -3.8460 ce        1 XXZ     -0.251500
     27 H3          0.5550   -0.5600    1.2260 hc        1 XXZ      0.119200
     28 H4          1.3090    1.0840    1.3630 hc        1 XXZ      0.119200
     29 H1          2.8100   -1.3650    1.7410 ha        1 XXZ      0.181000
     30 H211        1.1930    2.4680   -3.0720 hn        1 XXZ      0.470467
     31 H212        0.8300    1.6400   -4.4820 hn        1 XXZ      0.470467
     32 HN1         4.2400    1.9650   -2.2860 hn        1 XXZ      0.429300
     33 H101        5.3000    1.4510   -1.0790 hn        1 XXZ      0.429300
     34 H102        4.1360   -0.5070   -5.9800 hc        1 XXZ      0.086200
     35 H111        3.2350   -2.0780   -5.9810 hc        1 XXZ      0.086200
     36 H112        5.6350   -2.5060   -6.2880 h1        1 XXZ      0.085700
     37 H131        6.0720   -1.4400   -4.8670 h1        1 XXZ      0.085700
     38 H132        4.1390   -4.0150   -2.7230 h1        1 XXZ      0.083200
     39 H141        5.5100   -2.8730   -2.3200 h1        1 XXZ      0.083200
     40 H142        3.3170   -1.7840   -1.9620 ha        1 XXZ      0.167000
     41 H18         7.4500   -5.4690   -2.5740 hc        1 XXZ      0.099700
     42 HNH1        8.3700   -5.2630   -4.8330 hx        1 XXZ      0.133700
     43 HNH2        7.3310   -8.0180   -5.3280 hn        1 XXZ      0.467467
     44 HB1         8.4390   -7.2190   -6.2830 hn        1 XXZ      0.467467
     45 HB2         6.9010   -6.5740   -6.0780 hn        1 XXZ      0.467467
     46 HD1         2.9460   -6.6620   -2.3020 ha        1 XXZ      0.172000
     47 HE1         3.0690   -7.6970   -3.8460 ha        1 XXZ      0.172000
     48 HD2         6.9290   -7.1840   -2.8280 hc        1 XXZ      0.099700
     49 H213       -0.0020    1.2960   -3.0680 hn        1 XXZ      0.470467
     50 HH3        11.2520   -7.7020   -2.9750 ha        1 XXZ      0.205500
     51 CB         10.3510   -7.3160   -3.4010 c1        1 XXZ      0.047500
@<TRIPOS>BOND
     1    1    2 1   
     2    2    3 1   
     3    2    7 2   
     4    3    4 1   
     5    3   27 1   
     6    3   28 1   
     7    4    5 2   
     8    4   29 1   
     9    5    6 2   
    10    6    7 1   
    11    6   11 1   
    12    7    8 1   
    13    8    9 2   
    14    8   10 1   
    15    9   12 1   
    16   10   30 1   
    17   10   31 1   
    18   10   49 1   
    19   11   32 1   
    20   11   33 1   
    21   12   13 1   
    22   12   17 2   
    23   13   14 1   
    24   13   34 1   
    25   13   35 1   
    26   14   15 1   
    27   14   36 1   
    28   14   37 1   
    29   15   16 1   
    30   15   18 1   
    31   16   17 1   
    32   16   38 1   
    33   16   39 1   
    34   17   40 1   
    35   18   19 2   
    36   18   26 1   
    37   20   25 1   
    38   20   26 1   
    39   20   41 1   
    40   20   48 1   
    41   21   25 1   
    42   21   43 1   
    43   21   44 1   
    44   21   45 1   
    45   22   25 1   
    46   22   51 3   
    47   23   24 2   
    48   23   46 1   
    49   23   47 1   
    50   24   26 2   
    51   25   42 1   
    52   50   51 1   
@<TRIPOS>SUBSTRUCTURE
     1 XXZ         1 TEMP              0 ****  ****    0 ROOT
