@<TRIPOS>MOLECULE
XY1
   36    37     1     0     0
SMALL
bcc


@<TRIPOS>ATOM
      1 C29        -0.7960    0.0830   -0.1210 c         1 XY1      0.906200
      2 O30         0.3910   -0.2830   -0.3220 o         1 XY1     -0.799300
      3 C26        -1.3030    0.0430    1.3240 ca        1 XY1     -0.058600
      4 C25        -2.6180    0.4350    1.6140 ca        1 XY1     -0.129000
      5 C24        -3.0940    0.4150    2.9130 ca        1 XY1     -0.095500
      6 C27        -0.4690   -0.3770    2.3660 ca        1 XY1     -0.129000
      7 C28        -0.9260   -0.4040    3.6760 ca        1 XY1     -0.095500
      8 C23        -2.2490   -0.0040    3.9760 ca        1 XY1      0.015400
      9 N21        -2.8280    0.0230    5.2630 ne        1 XY1     -0.215400
     10 N20        -2.1980   -0.2720    6.2870 nf        1 XY1     -0.251400
     11 C18        -2.9290   -0.1740    7.5220 ca        1 XY1      0.053400
     12 C17        -2.2200    0.1240    8.7180 ca        1 XY1      0.188100
     13 O22        -0.8690    0.2980    8.7920 oh        1 XY1     -0.481100
     14 C16        -2.9170    0.2930    9.9300 ca        1 XY1     -0.158000
     15 C15        -4.3010    0.1930    9.9640 ca        1 XY1     -0.080000
     16 C19        -4.3160   -0.3720    7.6150 ca        1 XY1     -0.149000
     17 C9         -5.0120   -0.1240    8.8020 ca        1 XY1     -0.196300
     18 C14        -6.4960   -0.1790    8.7860 c3        1 XY1     -0.043100
     19 C12        -7.0940    1.0930    8.1770 c3        1 XY1      0.104800
     20 N3         -6.4650    1.4660    6.8760 n4        1 XY1     -0.840600
     21 OXT        -1.6100    0.4810   -0.9970 o         1 XY1     -0.799300
     22 H25        -3.2550    0.7580    0.7720 ha        1 XY1      0.172000
     23 H27         0.5600   -0.6850    2.1110 ha        1 XY1      0.172000
     24 H24        -4.1290    0.7260    3.1180 ha        1 XY1      0.115500
     25 H28        -0.2520   -0.7410    4.4790 ha        1 XY1      0.115500
     26 H19        -4.8620   -0.7630    6.7390 ha        1 XY1      0.134000
     27 H22        -0.4590    0.0710    7.9400 ho        1 XY1      0.461000
     28 H16        -2.3420    0.5140   10.8430 ha        1 XY1      0.167000
     29 H15        -4.8350    0.3550   10.9130 ha        1 XY1      0.140000
     30 H141       -6.8460   -1.0780    8.2090 hc        1 XY1      0.086700
     31 H142       -6.9070   -0.2670    9.8280 hc        1 XY1      0.086700
     32 H121       -8.1980    0.9500    8.0000 hx        1 XY1      0.101200
     33 H122       -6.9410    1.9590    8.8820 hx        1 XY1      0.101200
     34 H31N       -6.8710    2.3330    6.5170 hn        1 XY1      0.465800
     35 H32N       -5.4470    1.5890    7.0070 hn        1 XY1      0.465800
     36 H33        -6.5990    0.7160    6.1890 hn        1 XY1      0.465800
@<TRIPOS>BOND
     1    1    2 1   
     2    1    3 1   
     3    1   21 1   
     4    3    4 ar  
     5    3    6 ar  
     6    4    5 ar  
     7    4   22 1   
     8    5    8 ar  
     9    5   24 1   
    10    6    7 ar  
    11    6   23 1   
    12    7    8 ar  
    13    7   25 1   
    14    8    9 1   
    15    9   10 2   
    16   10   11 1   
    17   11   12 ar  
    18   11   16 ar  
    19   12   13 1   
    20   12   14 ar  
    21   13   27 1   
    22   14   15 ar  
    23   14   28 1   
    24   15   17 ar  
    25   15   29 1   
    26   16   17 ar  
    27   16   26 1   
    28   17   18 1   
    29   18   19 1   
    30   18   30 1   
    31   18   31 1   
    32   19   20 1   
    33   19   32 1   
    34   19   33 1   
    35   20   34 1   
    36   20   35 1   
    37   20   36 1   
@<TRIPOS>SUBSTRUCTURE
     1 XY1         1 TEMP              0 ****  ****    0 ROOT
