@<TRIPOS>MOLECULE
XY1
   36    37     1     0     0
SMALL
bcc


@<TRIPOS>ATOM
      1 C29        -0.8140    0.1140   -0.1310 c         1 XY1      0.906200
      2 O30         0.3670   -0.2670   -0.3380 o         1 XY1     -0.799300
      3 C26        -1.3180    0.0650    1.3160 ca        1 XY1     -0.058600
      4 C25        -2.6260    0.4730    1.6140 ca        1 XY1     -0.129000
      5 C24        -3.0990    0.4450    2.9140 ca        1 XY1     -0.095500
      6 C27        -0.4870   -0.3800    2.3500 ca        1 XY1     -0.129000
      7 C28        -0.9410   -0.4160    3.6620 ca        1 XY1     -0.095500
      8 C23        -2.2570    0.0010    3.9700 ca        1 XY1      0.015400
      9 N21        -2.8330    0.0210    5.2580 ne        1 XY1     -0.215400
     10 N20        -2.2040   -0.2940    6.2770 nf        1 XY1     -0.251400
     11 C18        -2.9310   -0.2010    7.5150 ca        1 XY1      0.053400
     12 C17        -2.2150    0.0740    8.7130 ca        1 XY1      0.188100
     13 O22        -0.8610    0.2290    8.7850 oh        1 XY1     -0.481100
     14 C16        -2.9060    0.2380    9.9280 ca        1 XY1     -0.158000
     15 C15        -4.2920    0.1570    9.9650 ca        1 XY1     -0.080000
     16 C19        -4.3200   -0.3810    7.6100 ca        1 XY1     -0.149000
     17 C9         -5.0100   -0.1380    8.8010 ca        1 XY1     -0.196300
     18 C14        -6.4950   -0.1720    8.7880 c3        1 XY1     -0.043100
     19 C12        -7.0770    1.1150    8.1960 c3        1 XY1      0.104800
     20 N3         -6.4460    1.4950    6.8980 nz        1 XY1     -0.840600
     21 OXT        -1.6240    0.5340   -0.9990 o         1 XY1     -0.799300
     22 H25        -3.2600    0.8150    0.7770 ha        1 XY1      0.172000
     23 H27         0.5370   -0.7000    2.0890 ha        1 XY1      0.172000
     24 H24        -4.1290    0.7680    3.1260 ha        1 XY1      0.115500
     25 H28        -0.2700   -0.7720    4.4580 ha        1 XY1      0.115500
     26 H19        -4.8730   -0.7540    6.7310 ha        1 XY1      0.134000
     27 H22        -0.4570    0.0060    7.9300 ho        1 XY1      0.461000
     28 H16        -2.3260    0.4420   10.8420 ha        1 XY1      0.167000
     29 H15        -4.8210    0.3160   10.9170 ha        1 XY1      0.140000
     30 H141       -6.8590   -1.0590    8.2030 hc        1 XY1      0.086700
     31 H142       -6.9040   -0.2660    9.8310 hc        1 XY1      0.086700
     32 H121       -6.9110    1.9710    8.9110 hx        1 XY1      0.101200
     33 H122       -8.1830    0.9890    8.0200 hx        1 XY1      0.101200
     34 H31N       -6.8410    2.3710    6.5500 hn        1 XY1      0.465800
     35 H32N       -6.5920    0.7550    6.2030 hn        1 XY1      0.465800
     36 H33        -5.4260    1.6030    7.0280 hn        1 XY1      0.465800
@<TRIPOS>BOND
     1    1    2 1   
     2    1    3 1   
     3    1   21 1   
     4    3    4 ar  
     5    3    6 ar  
     6    4    5 ar  
     7    4   22 1   
     8    5    8 ar  
     9    5   24 1   
    10    6    7 ar  
    11    6   23 1   
    12    7    8 ar  
    13    7   25 1   
    14    8    9 1   
    15    9   10 2   
    16   10   11 1   
    17   11   12 ar  
    18   11   16 ar  
    19   12   13 1   
    20   12   14 ar  
    21   13   27 1   
    22   14   15 ar  
    23   14   28 1   
    24   15   17 ar  
    25   15   29 1   
    26   16   17 ar  
    27   16   26 1   
    28   17   18 1   
    29   18   19 1   
    30   18   30 1   
    31   18   31 1   
    32   19   20 1   
    33   19   32 1   
    34   19   33 1   
    35   20   34 1   
    36   20   35 1   
    37   20   36 1   
@<TRIPOS>SUBSTRUCTURE
     1 XY1         1 TEMP              0 ****  ****    0 ROOT
