@<TRIPOS>MOLECULE
XY1
   36    37     1     0     0
SMALL
bcc


@<TRIPOS>ATOM
      1 C29        -0.8240    0.0930   -0.1350 c         1 XY1      0.906200
      2 O30         0.3450   -0.3210   -0.3470 o         1 XY1     -0.799300
      3 C26        -1.3280    0.0450    1.3120 ca        1 XY1     -0.058600
      4 C25        -2.6230    0.4890    1.6160 ca        1 XY1     -0.129000
      5 C24        -3.0950    0.4630    2.9160 ca        1 XY1     -0.095500
      6 C27        -0.5100   -0.4340    2.3410 ca        1 XY1     -0.129000
      7 C28        -0.9630   -0.4680    3.6530 ca        1 XY1     -0.095500
      8 C23        -2.2660   -0.0160    3.9660 ca        1 XY1      0.015400
      9 N21        -2.8400    0.0080    5.2560 ne        1 XY1     -0.215400
     10 N20        -2.2200   -0.3350    6.2700 nf        1 XY1     -0.251400
     11 C18        -2.9430   -0.2330    7.5100 ca        1 XY1      0.053400
     12 C17        -2.2180    0.0120    8.7100 ca        1 XY1      0.188100
     13 O22        -0.8610    0.1290    8.7820 oh        1 XY1     -0.481100
     14 C16        -2.9040    0.1840    9.9280 ca        1 XY1     -0.158000
     15 C15        -4.2910    0.1410    9.9640 ca        1 XY1     -0.080000
     16 C19        -4.3360   -0.3750    7.6050 ca        1 XY1     -0.149000
     17 C9         -5.0180   -0.1240    8.7990 ca        1 XY1     -0.196300
     18 C14        -6.5030   -0.1170    8.7870 c3        1 XY1     -0.043100
     19 C12        -7.0500    1.1910    8.2070 c3        1 XY1      0.104800
     20 N3         -6.4100    1.5660    6.9120 n4        1 XY1     -0.840600
     21 OXT        -1.6220    0.5450   -0.9980 o         1 XY1     -0.799300
     22 H25        -3.2470    0.8580    0.7830 ha        1 XY1      0.172000
     23 H27         0.5040   -0.7820    2.0750 ha        1 XY1      0.172000
     24 H24        -4.1150    0.8140    3.1320 ha        1 XY1      0.115500
     25 H28        -0.3020   -0.8520    4.4450 ha        1 XY1      0.115500
     26 H19        -4.9000   -0.7240    6.7230 ha        1 XY1      0.134000
     27 H22        -0.4630   -0.0980    7.9240 ho        1 XY1      0.461000
     28 H16        -2.3180    0.3620   10.8430 ha        1 XY1      0.167000
     29 H15        -4.8150    0.3040   10.9190 ha        1 XY1      0.140000
     30 H141       -6.8920   -0.9880    8.1940 hc        1 XY1      0.086700
     31 H142       -6.9140   -0.2090    9.8290 hc        1 XY1      0.086700
     32 H121       -6.8600    2.0350    8.9300 hx        1 XY1      0.101200
     33 H122       -8.1590    1.0970    8.0310 hx        1 XY1      0.101200
     34 H31N       -6.7800    2.4550    6.5720 hn        1 XY1      0.465800
     35 H32N       -6.5770    0.8360    6.2100 hn        1 XY1      0.465800
     36 H33        -5.3870    1.6440    7.0420 hn        1 XY1      0.465800
@<TRIPOS>BOND
     1    1    2 1   
     2    1    3 1   
     3    1   21 1   
     4    3    4 ar  
     5    3    6 ar  
     6    4    5 ar  
     7    4   22 1   
     8    5    8 ar  
     9    5   24 1   
    10    6    7 ar  
    11    6   23 1   
    12    7    8 ar  
    13    7   25 1   
    14    8    9 1   
    15    9   10 2   
    16   10   11 1   
    17   11   12 ar  
    18   11   16 ar  
    19   12   13 1   
    20   12   14 ar  
    21   13   27 1   
    22   14   15 ar  
    23   14   28 1   
    24   15   17 ar  
    25   15   29 1   
    26   16   17 ar  
    27   16   26 1   
    28   17   18 1   
    29   18   19 1   
    30   18   30 1   
    31   18   31 1   
    32   19   20 1   
    33   19   32 1   
    34   19   33 1   
    35   20   34 1   
    36   20   35 1   
    37   20   36 1   
@<TRIPOS>SUBSTRUCTURE
     1 XY1         1 TEMP              0 ****  ****    0 ROOT
