@<TRIPOS>MOLECULE
XY2
   37    37     1     0     0
SMALL
bcc


@<TRIPOS>ATOM
      1 C1         -0.2580   -0.1740   -0.5020 ca        1 XY2     -0.113200
      2 C2          0.9280    0.5360   -0.1220 ca        1 XY2     -0.092000
      3 C3          1.3240    0.5480    1.3120 ca        1 XY2     -0.125000
      4 C19         4.6630    3.6840    5.8280 c3        1 XY2     -0.188100
      5 C17         3.1790    3.5290    5.8060 c         1 XY2      0.558100
      6 O18         2.4050    3.8820    4.9310 o         1 XY2     -0.413100
      7 N15         2.5770    2.8510    7.0300 nx        1 XY2     -0.573200
      8 C16         1.2080    3.3510    7.3060 c3        1 XY2      0.027600
      9 C14         2.5670    1.3830    6.8140 c3        1 XY2      0.027600
     10 C13         1.2440    0.9820    4.3060 c1        1 XY2     -0.157500
     11 C12         1.0350   -1.4130    4.3170 c3        1 XY2      0.173100
     12 N5          1.8710    1.2600   -0.7720 nc        1 XY2     -0.010500
     13 O6          2.7370    1.6650    0.1460 os        1 XY2      0.231000
     14 N7          2.4640    1.2760    1.3810 nc        1 XY2     -0.094500
     15 N8         -0.6970   -0.2060   -1.9280 no        1 XY2      0.319200
     16 O10        -1.6720   -0.8560   -2.1900 o         1 XY2     -0.166000
     17 O9         -0.0760    0.4070   -2.7450 o         1 XY2     -0.166000
     18 C21        -0.9780   -0.8220    0.4690 ca        1 XY2     -0.035000
     19 C20        -0.5890   -0.8110    1.8480 ca        1 XY2     -0.097000
     20 C4          0.5300   -0.1500    2.2920 ca        1 XY2      0.097600
     21 H191        5.1690    2.7030    6.0100 hc        1 XY2      0.110033
     22 H192        4.9680    4.4110    6.6230 hc        1 XY2      0.110033
     23 H193        4.9950    4.0830    4.8320 hc        1 XY2      0.110033
     24 H161        0.5460    3.1110    6.4300 hx        1 XY2      0.116200
     25 H162        1.2420    4.4630    7.4560 hx        1 XY2      0.116200
     26 H163        0.8100    2.8500    8.2280 hx        1 XY2      0.116200
     27 H141        1.9560    1.1270    5.8260 hx        1 XY2      0.116200
     28 H142        2.0800    0.8840    7.6890 hx        1 XY2      0.116200
     29 H131        3.6200    1.0210    6.7050 hx        1 XY2      0.116200
     30 H132        1.1530    1.9490    3.7750 ha        1 XY2      0.046500
     31 H121        1.4500   -1.2800    5.3510 h1        1 XY2      0.074033
     32 H122        0.0140   -1.8740    4.3820 h1        1 XY2      0.074033
     33 H123        1.7110   -2.0830    3.7230 h1        1 XY2      0.074033
     34 H21        -1.2400   -1.3660    2.5480 ha        1 XY2      0.170000
     35 H20        -1.8980   -1.3810    0.2020 ha        1 XY2      0.199000
     36 N11         0.9440   -0.1130    3.6680 nh        1 XY2     -0.303800
     37 H151        3.1750    3.0710    7.8350 hn        1 XY2      0.436800
@<TRIPOS>BOND
     1    1    2 ar  
     2    1   15 1   
     3    1   18 ar  
     4    2    3 ar  
     5    2   12 2   
     6    3   14 2   
     7    3   20 ar  
     8    4    5 1   
     9    4   21 1   
    10    4   22 1   
    11    4   23 1   
    12    5    6 2   
    13    5    7 1   
    14    7    8 1   
    15    7    9 1   
    16    7   37 1   
    17    8   24 1   
    18    8   25 1   
    19    8   26 1   
    20    9   27 1   
    21    9   28 1   
    22    9   29 1   
    23   10   30 1   
    24   10   36 3   
    25   11   31 1   
    26   11   32 1   
    27   11   33 1   
    28   11   36 1   
    29   12   13 1   
    30   13   14 1   
    31   15   16 1   
    32   15   17 1   
    33   18   19 ar  
    34   18   35 1   
    35   19   20 ar  
    36   19   34 1   
    37   20   36 1   
@<TRIPOS>SUBSTRUCTURE
     1 XY2         1 TEMP              0 ****  ****    0 ROOT
