@<TRIPOS>MOLECULE
XY2
   36    37     1     0     0
SMALL
bcc


@<TRIPOS>ATOM
      1 C1         -2.7720    0.1750    0.5570 ca        1 XY2     -0.229200
      2 C2         -2.7730    0.3350   -0.8620 ca        1 XY2     -0.044000
      3 C3         -1.4950    0.1660   -1.6150 ca        1 XY2     -0.153000
      4 C19         3.2330   -0.7750    2.4440 c3        1 XY2     -0.171100
      5 C17         4.3820   -0.8660    1.4720 c         1 XY2      0.660100
      6 O18         5.4680   -1.3700    1.8170 o         1 XY2     -0.592100
      7 N15         4.2310   -0.3560    0.1830 n         1 XY2     -0.484800
      8 C16         5.3020   -0.4630   -0.7700 c3        1 XY2      0.074300
      9 C14         2.9820    0.1590   -0.3000 c3        1 XY2      0.073000
     10 C13         2.0730   -0.9200   -0.9520 c3        1 XY2      0.175800
     11 C12         1.0790    0.0640   -2.9760 c3        1 XY2      0.192100
     12 N5         -3.7180    0.6190   -1.7890 nc        1 XY2     -0.067500
     13 O6         -3.1010    0.6240   -2.9700 os        1 XY2      0.211000
     14 N7         -1.8100    0.3640   -2.9160 nc        1 XY2     -0.080500
     15 N8         -4.0100    0.3340    1.3440 no        1 XY2      0.332200
     16 O10        -3.9420    0.1840    2.5390 o         1 XY2     -0.205000
     17 O9         -5.0410    0.6050    0.7960 o         1 XY2     -0.205000
     18 C21        -1.5750   -0.1330    1.1740 ca        1 XY2      0.048000
     19 C20        -0.3660   -0.2910    0.4660 ca        1 XY2     -0.292000
     20 C4         -0.2610   -0.1680   -0.9230 ca        1 XY2      0.300600
     21 H191        2.3260   -1.2840    2.0380 hc        1 XY2      0.067367
     22 H192        3.5350   -1.2800    3.3960 hc        1 XY2      0.067367
     23 H193        2.9920    0.2930    2.6660 hc        1 XY2      0.067367
     24 H161        6.2210   -0.8810   -0.2770 h1        1 XY2      0.048367
     25 H162        5.0060   -1.1370   -1.6180 h1        1 XY2      0.048367
     26 H163        5.5410    0.5530   -1.1850 h1        1 XY2      0.048367
     27 H141        2.4180    0.6480    0.5440 h1        1 XY2      0.059700
     28 H142        3.2030    0.9560   -1.0680 h1        1 XY2      0.059700
     29 H131        2.6700   -1.4890   -1.7230 h1        1 XY2      0.069200
     30 H132        1.7480   -1.6610   -0.1690 h1        1 XY2      0.069200
     31 H121        0.5390   -0.6270   -3.6790 h1        1 XY2      0.060033
     32 H122        0.6940    1.1100   -3.1100 h1        1 XY2      0.060033
     33 H123        2.1710    0.0590   -3.2390 h1        1 XY2      0.060033
     34 H21        -1.5470   -0.2590    2.2750 ha        1 XY2      0.175000
     35 H20         0.5260   -0.5150    1.0730 ha        1 XY2      0.149000
     36 N11         0.9070   -0.3790   -1.6160 nh        1 XY2     -0.652000
@<TRIPOS>BOND
     1    1    2 ar  
     2    1   15 1   
     3    1   18 ar  
     4    2    3 ar  
     5    2   12 2   
     6    3   14 2   
     7    3   20 ar  
     8    4    5 1   
     9    4   21 1   
    10    4   22 1   
    11    4   23 1   
    12    5    6 2   
    13    5    7 1   
    14    7    8 1   
    15    7    9 1   
    16    8   24 1   
    17    8   25 1   
    18    8   26 1   
    19    9   10 1   
    20    9   27 1   
    21    9   28 1   
    22   10   29 1   
    23   10   30 1   
    24   10   36 1   
    25   11   31 1   
    26   11   32 1   
    27   11   33 1   
    28   11   36 1   
    29   12   13 1   
    30   13   14 1   
    31   15   16 1   
    32   15   17 1   
    33   18   19 ar  
    34   18   34 1   
    35   19   20 ar  
    36   19   35 1   
    37   20   36 1   
@<TRIPOS>SUBSTRUCTURE
     1 XY2         1 TEMP              0 ****  ****    0 ROOT
