@<TRIPOS>MOLECULE
XY2
   36    36     1     0     0
SMALL
bcc


@<TRIPOS>ATOM
      1 C1          0.0580    0.1090   -0.1620 ca        1 XY2     -0.195200
      2 C2          1.4760   -0.0520   -0.0580 ca        1 XY2     -0.063000
      3 C3          2.1020   -0.0950    1.2960 ca        1 XY2     -0.143000
      4 C19         2.3590    4.2150    4.6650 c3        1 XY2     -0.174100
      5 C17         1.3710    3.8660    5.7520 c         1 XY2      0.655100
      6 O18         0.3010    4.4920    5.8860 o         1 XY2     -0.608100
      7 N15         1.7010    2.8240    6.5980 n         1 XY2     -0.588900
      8 C16         0.8800    2.4250    7.6940 c3        1 XY2      0.080300
      9 C14         3.6950    0.4930    5.2460 c2        1 XY2     -0.304000
     10 C13         3.0820    0.5040    4.0510 c2        1 XY2      0.066000
     11 C12         1.0480   -0.6050    4.8410 c3        1 XY2      0.185100
     12 N5          2.4880   -0.2110   -0.9420 nc        1 XY2     -0.057500
     13 O6          3.6010   -0.3390   -0.2250 os        1 XY2      0.213000
     14 N7          3.4260   -0.2830    1.0820 nc        1 XY2     -0.074500
     15 N8         -0.6030    0.1720   -1.4840 no        1 XY2      0.327200
     16 O10        -1.8060    0.2390   -1.5080 o         1 XY2     -0.197500
     17 O9          0.0560    0.1580   -2.4850 o         1 XY2     -0.197500
     18 C21        -0.6750    0.2010    1.0000 ca        1 XY2      0.027000
     19 C20        -0.0810    0.1530    2.2870 ca        1 XY2     -0.235000
     20 C4          1.2850    0.0040    2.4900 ca        1 XY2      0.269600
     21 H191        2.7290    3.3010    4.1390 hc        1 XY2      0.065033
     22 H192        1.8560    4.8850    3.9250 hc        1 XY2      0.065033
     23 H193        3.2280    4.7560    5.1110 hc        1 XY2      0.065033
     24 H161        2.5490    2.3310    6.4490 hn        1 XY2      0.311500
     25 H162        1.4710    2.4520    8.6500 h1        1 XY2      0.042033
     26 H163       -0.0020    3.1130    7.7900 h1        1 XY2      0.042033
     27 H141        0.5070    1.3750    7.5360 h1        1 XY2      0.042033
     28 H142        3.3130   -0.0080    6.1420 ha        1 XY2      0.130000
     29 H131        4.6650    0.9920    5.3640 ha        1 XY2      0.130000
     30 H132        3.5450    1.0440    3.2000 h4        1 XY2      0.156000
     31 H121        0.6290    0.2420    5.4500 h1        1 XY2      0.056367
     32 H122        0.2050   -1.2320    4.4470 h1        1 XY2      0.056367
     33 H123        1.6870   -1.2500    5.5030 h1        1 XY2      0.056367
     34 H21        -0.7640    0.2540    3.1480 ha        1 XY2      0.163000
     35 H20        -1.7750    0.3290    0.9480 ha        1 XY2      0.181000
     36 N11         1.8570   -0.1100    3.7540 nh        1 XY2     -0.544800
@<TRIPOS>BOND
     1    1    2 ar  
     2    1   15 1   
     3    1   18 ar  
     4    2    3 ar  
     5    2   12 2   
     6    3   14 2   
     7    3   20 ar  
     8    4    5 1   
     9    4   21 1   
    10    4   22 1   
    11    4   23 1   
    12    5    6 2   
    13    5    7 1   
    14    7    8 1   
    15    7   24 1   
    16    8   25 1   
    17    8   26 1   
    18    8   27 1   
    19    9   10 2   
    20    9   28 1   
    21    9   29 1   
    22   10   30 1   
    23   10   36 1   
    24   11   31 1   
    25   11   32 1   
    26   11   33 1   
    27   11   36 1   
    28   12   13 1   
    29   13   14 1   
    30   15   16 1   
    31   15   17 1   
    32   18   19 ar  
    33   18   35 1   
    34   19   20 ar  
    35   19   34 1   
    36   20   36 1   
@<TRIPOS>SUBSTRUCTURE
     1 XY2         1 TEMP              0 ****  ****    0 ROOT
