@<TRIPOS>MOLECULE
XY3
   74    77     1     0     0
SMALL
bcc


@<TRIPOS>ATOM
      1 N1         -1.3950    0.1950    1.1420 nc        1 XY3     -0.615000
      2 N3         -7.2130    0.6550   12.1760 n3        1 XY3     -0.737600
      3 C4         -0.5220   -0.2980    5.8540 cg        1 XY3     -0.010000
      4 C5         -0.4420   -0.6510    7.2140 ca        1 XY3     -0.009000
      5 C6          0.4390    0.0150    8.0910 ca        1 XY3      0.042700
      6 C7          0.4930   -0.3900    9.4360 ca        1 XY3     -0.130000
      7 C8         -0.3030   -1.4210    9.9120 ca        1 XY3     -0.066000
      8 C10        -1.2510   -1.6940    7.6940 ca        1 XY3     -0.006000
      9 C13        -3.4340   -2.6570   11.4260 ca        1 XY3     -0.076400
     10 C15        -5.7280   -2.5340   12.1510 ca        1 XY3     -0.116000
     11 C17        -4.3430   -0.5560   12.2200 ca        1 XY3     -0.130300
     12 C21        -8.0800    0.1960   11.0970 c3        1 XY3      0.164300
     13 C22        -8.6140    1.3450   10.2200 c3        1 XY3      0.169300
     14 C24        -7.8090    1.7460   12.9440 c3        1 XY3      0.164300
     15 C26         0.9670    2.1720    3.1730 c3        1 XY3     -0.010400
     16 C81         0.0320    2.0640    0.2560 c         1 XY3      0.496600
     17 O2          0.8480    2.9750    0.3180 o         1 XY3     -0.428100
     18 N82        -0.0150    1.2680    2.6490 na        1 XY3     -0.083900
     19 C84        -0.4500    1.1950    1.3070 cd        1 XY3      0.232000
     20 C1         -1.5640   -0.3690    2.3640 cc        1 XY3      0.364200
     21 C2         -0.7100    0.2820    3.3330 cd        1 XY3     -0.010600
     22 C3         -0.5930   -0.0090    4.6900 ch        1 XY3     -0.114000
     23 C9         -1.1900   -2.0790    9.0430 ca        1 XY3     -0.200600
     24 C11         1.3150    1.1180    7.6400 c3        1 XY3     -0.084800
     25 C12        -2.0570   -3.1910    9.4340 c         1 XY3      0.577700
     26 O1         -2.6280   -3.9850    8.6970 o         1 XY3     -0.423100
     27 N2         -2.3020   -3.4370   10.9160 n4        1 XY3     -0.536200
     28 C14        -4.6760   -3.2840   11.6440 ca        1 XY3     -0.070000
     29 C16        -5.5840   -1.1670   12.4470 ca        1 XY3      0.048700
     30 C18        -3.2710   -1.2940   11.7120 ca        1 XY3     -0.069000
     31 C19        -4.0790    0.9340   12.4900 c3        1 XY3      0.703200
     32 F1         -4.6390    1.4280   13.6360 f         1 XY3     -0.219967
     33 F2         -2.7380    1.2230   12.6340 f         1 XY3     -0.219967
     34 F3         -4.4820    1.7640   11.4790 f         1 XY3     -0.219967
     35 C23        -8.3450    2.8810   12.0520 c3        1 XY3      0.169300
     36 N4         -9.2370    2.3980   11.0080 n3        1 XY3     -0.730600
     37 N5         -0.5660    1.7980   -1.1040 n4        1 XY3     -0.735400
     38 C27       -10.6710    4.4510   10.9190 c3        1 XY3      0.127400
     39 O3         -9.8250    5.3730   11.5880 oh        1 XY3     -0.612800
     40 H7          1.1890    0.1250   10.1220 ha        1 XY3      0.177000
     41 H8         -0.1980   -1.7050   10.9710 ha        1 XY3      0.139000
     42 H10        -1.9390   -2.2180    7.0060 ha        1 XY3      0.176000
     43 H15        -6.7020   -3.0260   12.3250 ha        1 XY3      0.181000
     44 H20        -7.5940   -1.1870   13.2230 h1        1 XY3      0.073200
     45 H20A       -6.4530   -0.0240   14.0320 h1        1 XY3      0.073200
     46 H21        -8.9600   -0.3920   11.4920 h1        1 XY3      0.042200
     47 H21A       -7.4740   -0.4890   10.4400 h1        1 XY3      0.042200
     48 H22        -7.7680    1.7380    9.5830 h1        1 XY3      0.049450
     49 H22A       -9.3930    0.9120    9.5320 h1        1 XY3      0.049450
     50 H24        -7.0020    2.1780   13.6010 h1        1 XY3      0.042200
     51 H24A       -8.6450    1.3750   13.6050 h1        1 XY3      0.042200
     52 H26         0.7620    3.2130    2.7980 h1        1 XY3      0.092700
     53 H26A        0.9250    2.1570    4.2950 h1        1 XY3      0.092700
     54 H26B        1.9920    1.8570    2.8310 h1        1 XY3      0.092700
     55 H1         -2.2560   -1.1960    2.5510 h4        1 XY3      0.085100
     56 H11         2.3820    0.7730    7.6300 hc        1 XY3      0.074700
     57 H11A        1.2400    1.9880    8.3440 hc        1 XY3      0.074700
     58 H11B        1.0470    1.4700    6.6140 hc        1 XY3      0.074700
     59 HN2        -2.5140   -4.4390   11.0460 hn        1 XY3      0.465800
     60 H14        -4.8300   -4.3540   11.4190 ha        1 XY3      0.167000
     61 H18        -2.3020   -0.7900   11.5440 ha        1 XY3      0.164000
     62 H23        -8.9290    3.5900   12.7060 h1        1 XY3      0.049450
     63 H23A       -7.4710    3.4530   11.6230 h1        1 XY3      0.049450
     64 H25       -10.4000    2.9780    9.3700 h1        1 XY3      0.044200
     65 H25A       -8.9480    4.0510    9.6670 h1        1 XY3      0.044200
     66 HN5        -0.1720    2.4530   -1.7920 hn        1 XY3      0.480133
     67 HN5A       -1.5860    1.9130   -1.0640 hn        1 XY3      0.480133
     68 H27       -11.3370    3.9320   11.6580 h1        1 XY3      0.039200
     69 H27A      -11.3060    4.9940   10.1670 h1        1 XY3      0.039200
     70 HO3       -10.3990    6.0230   12.0100 ho        1 XY3      0.410000
     71 C20        -6.7700   -0.4370   13.0280 c3        1 XY3      0.183100
     72 C25        -9.7710    3.4620   10.1700 c3        1 XY3      0.170800
     73 H221       -1.4640   -3.2040   11.4590 hn        1 XY3      0.465800
     74 H53        -0.3600    0.8330   -1.3910 hn        1 XY3      0.480133
@<TRIPOS>BOND
     1    1   19 2   
     2    1   20 1   
     3    2   12 1   
     4    2   14 1   
     5    2   71 1   
     6    3    4 1   
     7    3   22 3   
     8    4    5 ar  
     9    4    8 ar  
    10    5    6 ar  
    11    5   24 1   
    12    6    7 ar  
    13    6   40 1   
    14    7   23 ar  
    15    7   41 1   
    16    8   23 ar  
    17    8   42 1   
    18    9   27 1   
    19    9   28 ar  
    20    9   30 ar  
    21   10   28 ar  
    22   10   29 ar  
    23   10   43 1   
    24   11   29 ar  
    25   11   30 ar  
    26   11   31 1   
    27   12   13 1   
    28   12   46 1   
    29   12   47 1   
    30   13   36 1   
    31   13   48 1   
    32   13   49 1   
    33   14   35 1   
    34   14   50 1   
    35   14   51 1   
    36   15   18 1   
    37   15   52 1   
    38   15   53 1   
    39   15   54 1   
    40   16   17 2   
    41   16   19 1   
    42   16   37 1   
    43   18   19 1   
    44   18   21 1   
    45   20   21 2   
    46   20   55 1   
    47   21   22 1   
    48   23   25 1   
    49   24   56 1   
    50   24   57 1   
    51   24   58 1   
    52   25   26 2   
    53   25   27 1   
    54   27   59 1   
    55   27   73 1   
    56   28   60 1   
    57   29   71 1   
    58   30   61 1   
    59   31   32 1   
    60   31   33 1   
    61   31   34 1   
    62   35   36 1   
    63   35   62 1   
    64   35   63 1   
    65   36   72 1   
    66   37   66 1   
    67   37   67 1   
    68   37   74 1   
    69   38   39 1   
    70   38   68 1   
    71   38   69 1   
    72   38   72 1   
    73   39   70 1   
    74   44   71 1   
    75   45   71 1   
    76   64   72 1   
    77   65   72 1   
@<TRIPOS>SUBSTRUCTURE
     1 XY3         1 TEMP              0 ****  ****    0 ROOT
