@<TRIPOS>MOLECULE
XY3
   73    76     1     0     0
SMALL
bcc


@<TRIPOS>ATOM
      1 N1          0.8430    1.5760   -0.3300 nc        1 XY3     -0.618000
      2 N3          2.5120   -7.8930   12.9710 n3        1 XY3     -0.726600
      3 C4          1.1260    0.5360    4.3680 cg        1 XY3      0.075000
      4 C5          1.2310    0.4400    5.7650 ca        1 XY3     -0.052000
      5 C6          1.1980    1.5890    6.5840 ca        1 XY3      0.002700
      6 C7          1.2880    1.4330    7.9730 ca        1 XY3     -0.143000
      7 C8          1.4170    0.1710    8.5470 ca        1 XY3     -0.060000
      8 C10         1.3610   -0.8330    6.3470 ca        1 XY3     -0.032000
      9 C13         2.6670   -3.7200   10.0570 ca        1 XY3      0.052600
     10 C15         2.1910   -6.0260   10.6290 ca        1 XY3     -0.094000
     11 C17         4.0940   -4.9360   11.6170 ca        1 XY3     -0.135300
     12 C21         2.2170   -7.0300   14.1090 c3        1 XY3      0.161800
     13 C22         1.1120   -7.5930   15.0240 c3        1 XY3      0.173300
     14 C24         2.7470   -9.2750   13.3730 c3        1 XY3      0.161800
     15 C26         0.6300   -1.7620    1.2420 c3        1 XY3     -0.009400
     16 C81         0.4920   -0.5680   -1.5830 c         1 XY3      0.498600
     17 O2          0.3340   -1.7740   -1.7410 o         1 XY3     -0.454100
     18 N82         0.7350   -0.3700    0.9170 na        1 XY3     -0.087900
     19 C84         0.6870    0.1950   -0.3830 cd        1 XY3      0.200000
     20 C1          0.9890    1.8890    0.9760 cc        1 XY3      0.348200
     21 C2          0.9270    0.6850    1.7900 cd        1 XY3      0.043400
     22 C3          1.0320    0.5870    3.1700 ch        1 XY3     -0.210000
     23 C9          1.4630   -0.9660    7.7330 ca        1 XY3     -0.156600
     24 C11         1.0500    2.9450    6.0080 c3        1 XY3     -0.072800
     25 C12         1.5720   -2.3530    8.2840 c         1 XY3      0.679700
     26 O1          0.9580   -3.2920    7.7430 o         1 XY3     -0.583100
     27 N2          2.3870   -2.5110    9.3920 ns        1 XY3     -0.461100
     28 C14         1.8650   -4.8740    9.9270 ca        1 XY3     -0.123000
     29 C16         3.3030   -6.0820   11.4800 ca        1 XY3     -0.044300
     30 C18         3.7880   -3.7700   10.9140 ca        1 XY3     -0.143000
     31 C19         5.3190   -4.9050   12.5340 c3        1 XY3      0.687200
     32 F1          5.0560   -5.1970   13.8500 f         1 XY3     -0.234967
     33 F2          5.9610   -3.6910   12.5950 f         1 XY3     -0.234967
     34 F3          6.3170   -5.7810   12.1790 f         1 XY3     -0.234967
     35 C23         1.6350   -9.8310   14.2840 c3        1 XY3      0.173300
     36 N4          1.3640   -8.9680   15.4210 n3        1 XY3     -0.735600
     37 N5          0.4790    0.2600   -2.8530 nz        1 XY3     -0.738400
     38 C27        -1.0370   -9.7010   15.8340 c3        1 XY3      0.093400
     39 O3         -1.7840  -10.1830   16.9380 oh        1 XY3     -0.595800
     40 H7          1.2530    2.3250    8.6180 ha        1 XY3      0.157000
     41 H8          1.4620    0.0810    9.6450 ha        1 XY3      0.154000
     42 H10         1.3700   -1.7380    5.7170 ha        1 XY3      0.162000
     43 H15         1.5560   -6.9220   10.5210 ha        1 XY3      0.163000
     44 H20         4.5630   -7.2810   12.7740 h1        1 XY3      0.053700
     45 H20A        3.8240   -8.1450   11.3530 h1        1 XY3      0.053700
     46 H21         3.1390   -6.8300   14.7300 h1        1 XY3      0.043200
     47 H21A        1.8580   -6.0440   13.7010 h1        1 XY3      0.043200
     48 H22         0.1190   -7.4810   14.4980 h1        1 XY3      0.038450
     49 H22A        1.0830   -6.9610   15.9550 h1        1 XY3      0.038450
     50 H24         2.7730   -9.9050   12.4410 h1        1 XY3      0.043200
     51 H24A        3.7390   -9.3930   13.9010 h1        1 XY3      0.043200
     52 H26        -0.1470   -2.2460    0.5900 h1        1 XY3      0.092367
     53 H26A        1.6210   -2.2660    1.0690 h1        1 XY3      0.092367
     54 H26B        0.3410   -1.8690    2.3230 h1        1 XY3      0.092367
     55 H1          1.1320    2.9090    1.3420 h4        1 XY3      0.082100
     56 H11         1.4480    2.9900    4.9650 hc        1 XY3      0.060700
     57 H11A       -0.0340    3.2290    5.9860 hc        1 XY3      0.060700
     58 H11B        1.5950    3.7010    6.6280 hc        1 XY3      0.060700
     59 HN2         2.9170   -1.7220    9.6920 hn        1 XY3      0.322500
     60 H14         0.9810   -4.8730    9.2660 ha        1 XY3      0.174000
     61 H18         4.4350   -2.8850   11.0400 ha        1 XY3      0.150000
     62 H23         1.9790  -10.8280   14.6770 h1        1 XY3      0.038450
     63 H23A        0.7120  -10.0040   13.6570 h1        1 XY3      0.038450
     64 H25         0.3530   -8.8120   17.2420 h1        1 XY3      0.068200
     65 H25A        0.7790  -10.5000   16.7110 h1        1 XY3      0.068200
     66 HN5         1.3700    0.7590   -2.9470 hn        1 XY3      0.473133
     67 HN5A       -0.2770    0.9510   -2.8050 hn        1 XY3      0.473133
     68 H27        -1.4740   -8.7320   15.4700 h1        1 XY3      0.021700
     69 H27A       -1.0620  -10.4480   14.9960 h1        1 XY3      0.021700
     70 HO3        -2.6820  -10.3320   16.6180 ho        1 XY3      0.402000
     71 C20         3.6170   -7.3850   12.1630 c3        1 XY3      0.200100
     72 C25         0.3960   -9.5020   16.3520 c3        1 XY3      0.170800
     73 H53         0.3370   -0.3530   -3.6640 hn        1 XY3      0.473133
@<TRIPOS>BOND
     1    1   19 2   
     2    1   20 1   
     3    2   12 1   
     4    2   14 1   
     5    2   71 1   
     6    3    4 1   
     7    3   22 3   
     8    4    5 ar  
     9    4    8 ar  
    10    5    6 ar  
    11    5   24 1   
    12    6    7 ar  
    13    6   40 1   
    14    7   23 ar  
    15    7   41 1   
    16    8   23 ar  
    17    8   42 1   
    18    9   27 1   
    19    9   28 ar  
    20    9   30 ar  
    21   10   28 ar  
    22   10   29 ar  
    23   10   43 1   
    24   11   29 ar  
    25   11   30 ar  
    26   11   31 1   
    27   12   13 1   
    28   12   46 1   
    29   12   47 1   
    30   13   36 1   
    31   13   48 1   
    32   13   49 1   
    33   14   35 1   
    34   14   50 1   
    35   14   51 1   
    36   15   18 1   
    37   15   52 1   
    38   15   53 1   
    39   15   54 1   
    40   16   17 2   
    41   16   19 1   
    42   16   37 1   
    43   18   19 1   
    44   18   21 1   
    45   20   21 2   
    46   20   55 1   
    47   21   22 1   
    48   23   25 1   
    49   24   56 1   
    50   24   57 1   
    51   24   58 1   
    52   25   26 2   
    53   25   27 1   
    54   27   59 1   
    55   28   60 1   
    56   29   71 1   
    57   30   61 1   
    58   31   32 1   
    59   31   33 1   
    60   31   34 1   
    61   35   36 1   
    62   35   62 1   
    63   35   63 1   
    64   36   72 1   
    65   37   66 1   
    66   37   67 1   
    67   37   73 1   
    68   38   39 1   
    69   38   68 1   
    70   38   69 1   
    71   38   72 1   
    72   39   70 1   
    73   44   71 1   
    74   45   71 1   
    75   64   72 1   
    76   65   72 1   
@<TRIPOS>SUBSTRUCTURE
     1 XY3         1 TEMP              0 ****  ****    0 ROOT
