@<TRIPOS>MOLECULE
XY3
   72    75     1     0     0
SMALL
bcc


@<TRIPOS>ATOM
      1 N1          8.5810   -2.9840   -0.4400 nc        1 XY3     -0.653000
      2 N3         -6.2340   -0.6200    0.1920 n3        1 XY3     -0.730600
      3 C4          5.5020    0.6940    0.1210 cg        1 XY3     -0.083000
      4 C5          4.4370    1.5930    0.3050 ca        1 XY3      0.015000
      5 C6          4.6320    2.9840    0.1800 ca        1 XY3     -0.025300
      6 C7          3.5470    3.8450    0.3830 ca        1 XY3     -0.140000
      7 C8          2.2840    3.3480    0.6900 ca        1 XY3     -0.092000
      8 C10         3.1630    1.0920    0.6230 ca        1 XY3     -0.050000
      9 C13        -1.6810    1.5820    0.6480 ca        1 XY3      0.070600
     10 C15        -3.4950    0.3570    1.6920 ca        1 XY3     -0.109000
     11 C17        -3.9810    1.8480   -0.1280 ca        1 XY3     -0.118300
     12 C21        -5.8880   -1.8660    0.8570 c3        1 XY3      0.170300
     13 C22        -6.2720   -3.1100    0.0340 c3        1 XY3      0.168300
     14 C24        -7.6160   -0.5960   -0.2650 c3        1 XY3      0.170300
     15 C26         9.3670    0.5960   -0.4140 c3        1 XY3      0.015600
     16 C81        10.9260   -2.0180   -0.7310 c         1 XY3      0.602600
     17 O2         11.6290   -0.9850   -0.8000 o         1 XY3     -0.629100
     18 N82         8.7790   -0.7060   -0.3830 na        1 XY3     -0.131900
     19 C84         9.4500   -1.9310   -0.5220 cd        1 XY3      0.345000
     20 C1          7.3330   -2.4370   -0.2460 cc        1 XY3      0.337200
     21 C2          7.4220   -1.0150   -0.2060 cd        1 XY3     -0.100600
     22 C3          6.4030   -0.0850   -0.0310 ch        1 XY3     -0.078000
     23 C9          2.0900    1.9680    0.8030 ca        1 XY3     -0.157600
     24 C11         5.9590    3.5410   -0.1700 c3        1 XY3     -0.063800
     25 C12         0.7610    1.3830    1.1530 c         1 XY3      0.684700
     26 O1          0.6630    0.4400    1.9580 o         1 XY3     -0.578100
     27 N2         -0.3350    1.9540    0.5150 n         1 XY3     -0.469100
     28 C14        -2.1430    0.6660    1.6180 ca        1 XY3     -0.128000
     29 C16        -4.4340    0.9330    0.8290 ca        1 XY3     -0.050300
     30 C18        -2.6280    2.1710   -0.2230 ca        1 XY3     -0.150000
     31 C19        -4.9470    2.5490   -1.0830 c3        1 XY3      0.687200
     32 F1         -5.8090    3.4270   -0.4640 f         1 XY3     -0.237633
     33 F2         -4.3450    3.3220   -2.0490 f         1 XY3     -0.237633
     34 F3         -5.7730    1.7230   -1.8020 f         1 XY3     -0.237633
     35 C23        -8.0010   -1.8470   -1.0780 c3        1 XY3      0.168300
     36 N4         -7.6610   -3.0920   -0.4030 n3        1 XY3     -0.741600
     37 N5         11.4790   -3.2610   -0.8440 n         1 XY3     -0.646000
     38 C27        -8.2720   -5.5110   -0.3360 c3        1 XY3      0.135400
     39 O3         -9.4600   -5.4090    0.4200 oh        1 XY3     -0.601800
     40 H7          3.6990    4.9330    0.3000 ha        1 XY3      0.143000
     41 H8          1.4530    4.0500    0.8610 ha        1 XY3      0.141000
     42 H10         3.0080    0.0070    0.7420 ha        1 XY3      0.164000
     43 H15        -3.8380   -0.3610    2.4560 ha        1 XY3      0.143000
     44 H20        -6.5180    1.4270    0.6300 h1        1 XY3      0.049200
     45 H20A       -6.0990    0.4070    2.0750 h1        1 XY3      0.049200
     46 H21        -4.7710   -1.8770    1.0000 h1        1 XY3      0.039200
     47 H21A       -6.3700   -1.9440    1.8760 h1        1 XY3      0.039200
     48 H22        -5.5610   -3.1970   -0.8400 h1        1 XY3      0.040450
     49 H22A       -6.1250   -4.0120    0.6900 h1        1 XY3      0.040450
     50 H24        -8.3390   -0.4870    0.5950 h1        1 XY3      0.039200
     51 H24A       -7.7340    0.2980   -0.9410 h1        1 XY3      0.039200
     52 H26         9.8640    0.7600   -1.4100 h1        1 XY3      0.071367
     53 H26A        8.5730    1.3710   -0.2480 h1        1 XY3      0.071367
     54 H26B       10.1550    0.6720    0.3840 h1        1 XY3      0.071367
     55 H1          6.4360   -3.0480   -0.1420 h4        1 XY3      0.054100
     56 H11         6.0710    3.5780   -1.2840 hc        1 XY3      0.053700
     57 H11A        6.0760    4.5790    0.2290 hc        1 XY3      0.053700
     58 H11B        6.7820    2.9060    0.2430 hc        1 XY3      0.053700
     59 HN2        -0.1460    2.6520   -0.1710 hn        1 XY3      0.322500
     60 H14        -1.4400    0.1860    2.3200 ha        1 XY3      0.180000
     61 H18        -2.3050    2.8930   -0.9910 ha        1 XY3      0.149000
     62 H23        -9.1170   -1.8260   -1.2240 h1        1 XY3      0.040450
     63 H23A       -7.5150   -1.7790   -2.0950 h1        1 XY3      0.040450
     64 H25        -8.9680   -4.0400   -1.7550 h1        1 XY3      0.044700
     65 H25A       -7.2200   -4.5180   -1.9490 h1        1 XY3      0.044700
     66 HN5        10.9310   -4.0820   -0.7900 hn        1 XY3      0.328000
     67 HN5A       12.4570   -3.3380   -0.9830 hn        1 XY3      0.328000
     68 H27        -8.4440   -6.3890   -1.0160 h1        1 XY3      0.043700
     69 H27A       -7.4030   -5.7290    0.3390 h1        1 XY3      0.043700
     70 HO3        -9.3870   -4.6190    0.9690 ho        1 XY3      0.412000
     71 C20        -5.8840    0.5580    0.9750 c3        1 XY3      0.210100
     72 C25        -8.0170   -4.2630   -1.1920 c3        1 XY3      0.125800
@<TRIPOS>BOND
     1    1   19 2   
     2    1   20 1   
     3    2   12 1   
     4    2   14 1   
     5    2   71 1   
     6    3    4 1   
     7    3   22 3   
     8    4    5 ar  
     9    4    8 ar  
    10    5    6 ar  
    11    5   24 1   
    12    6    7 ar  
    13    6   40 1   
    14    7   23 ar  
    15    7   41 1   
    16    8   23 ar  
    17    8   42 1   
    18    9   27 1   
    19    9   28 ar  
    20    9   30 ar  
    21   10   28 ar  
    22   10   29 ar  
    23   10   43 1   
    24   11   29 ar  
    25   11   30 ar  
    26   11   31 1   
    27   12   13 1   
    28   12   46 1   
    29   12   47 1   
    30   13   36 1   
    31   13   48 1   
    32   13   49 1   
    33   14   35 1   
    34   14   50 1   
    35   14   51 1   
    36   15   18 1   
    37   15   52 1   
    38   15   53 1   
    39   15   54 1   
    40   16   17 2   
    41   16   19 1   
    42   16   37 1   
    43   18   19 1   
    44   18   21 1   
    45   20   21 2   
    46   20   55 1   
    47   21   22 1   
    48   23   25 1   
    49   24   56 1   
    50   24   57 1   
    51   24   58 1   
    52   25   26 2   
    53   25   27 1   
    54   27   59 1   
    55   28   60 1   
    56   29   71 1   
    57   30   61 1   
    58   31   32 1   
    59   31   33 1   
    60   31   34 1   
    61   35   36 1   
    62   35   62 1   
    63   35   63 1   
    64   36   72 1   
    65   37   66 1   
    66   37   67 1   
    67   38   39 1   
    68   38   68 1   
    69   38   69 1   
    70   38   72 1   
    71   39   70 1   
    72   44   71 1   
    73   45   71 1   
    74   64   72 1   
    75   65   72 1   
@<TRIPOS>SUBSTRUCTURE
     1 XY3         1 TEMP              0 ****  ****    0 ROOT
