@<TRIPOS>MOLECULE
XYA
   32    34     1     0     0
SMALL
bcc


@<TRIPOS>ATOM
      1 O5'        -3.0550    2.0900   -1.5320 oh        1 XYA     -0.590800
      2 C5'        -3.0950    1.3770   -0.3160 c3        1 XYA      0.122400
      3 C4'        -3.0140   -0.1290   -0.5620 c3        1 XYA      0.057100
      4 O4'        -1.7660   -0.4260   -1.2050 os        1 XYA     -0.412600
      5 C1'        -0.9200   -1.2260   -0.3640 c3        1 XYA      0.221800
      6 N9          0.1580   -0.4480    0.1920 na        1 XYA     -0.293000
      7 C8          0.0750    0.5210    1.2310 cc        1 XYA      0.404700
      8 N7          1.2040    1.2150    1.4090 nd        1 XYA     -0.540100
      9 C5          2.0930    0.7280    0.4350 ca        1 XYA     -0.236200
     10 C6          3.4510    1.0530    0.1080 ca        1 XYA      0.762200
     11 N1          4.0590    0.3850   -0.9320 nb        1 XYA     -0.793000
     12 C2          3.3330   -0.5620   -1.5800 ca        1 XYA      0.688900
     13 N3          2.0590   -0.9780   -1.3790 nb        1 XYA     -0.738000
     14 C4          1.4450   -0.3100   -0.3580 ca        1 XYA      0.469800
     15 N6          4.1310    1.9940    0.8340 nh        1 XYA     -0.958500
     16 C2'        -1.8400   -1.8530    0.7330 c3        1 XYA      0.112100
     17 O2'        -2.2250   -3.1570    0.3530 oh        1 XYA     -0.580800
     18 C3'        -3.1150   -0.9790    0.7190 c3        1 XYA      0.117100
     19 O3'        -3.0700   -0.2010    1.9030 oh        1 XYA     -0.601800
     20 H5'        -2.2450    1.8270   -1.9900 ho        1 XYA      0.419000
     21 H5'1       -4.0830    1.6420    0.1460 h1        1 XYA      0.052200
     22 H5'2       -2.2580    1.7020    0.3590 h1        1 XYA      0.052200
     23 H4'        -3.8000   -0.4360   -1.3070 h1        1 XYA      0.090700
     24 H1'        -0.4830   -2.0090   -1.0540 h2        1 XYA      0.126700
     25 H8         -0.8490    0.6260    1.8200 h5        1 XYA      0.090800
     26 H2          3.8720   -1.0730   -2.4080 h5        1 XYA      0.053100
     27 HN61        5.0460    2.2680    0.5730 hn        1 XYA      0.448800
     28 HN62        3.6410    2.5120    1.5190 hn        1 XYA      0.448800
     29 H2'        -1.3660   -1.8560    1.7500 h1        1 XYA      0.086700
     30 H1         -1.4500   -3.7240    0.4690 ho        1 XYA      0.418000
     31 H3'        -4.0350   -1.6210    0.7030 h1        1 XYA      0.083700
     32 H3         -3.9190    0.2520    1.9750 ho        1 XYA      0.417000
@<TRIPOS>BOND
     1    1    2 1   
     2    1   20 1   
     3    2    3 1   
     4    2   21 1   
     5    2   22 1   
     6    3    4 1   
     7    3   18 1   
     8    3   23 1   
     9    4    5 1   
    10    5    6 1   
    11    5   16 1   
    12    5   24 1   
    13    6    7 1   
    14    6   14 1   
    15    7    8 2   
    16    7   25 1   
    17    8    9 1   
    18    9   10 ar  
    19    9   14 ar  
    20   10   11 ar  
    21   10   15 1   
    22   11   12 ar  
    23   12   13 ar  
    24   12   26 1   
    25   13   14 ar  
    26   15   27 1   
    27   15   28 1   
    28   16   17 1   
    29   16   18 1   
    30   16   29 1   
    31   17   30 1   
    32   18   19 1   
    33   18   31 1   
    34   19   32 1   
@<TRIPOS>SUBSTRUCTURE
     1 XYA         1 TEMP              0 ****  ****    0 ROOT
