@<TRIPOS>MOLECULE
XYA
   33    35     1     0     0
SMALL
bcc


@<TRIPOS>ATOM
      1 O5'         1.0260   -0.6820   -0.3520 oh        1 XYA     -0.601800
      2 C5'         1.0120   -1.0270    1.0170 c3        1 XYA      0.115400
      3 C4'         1.9000   -0.0690    1.8130 c3        1 XYA      0.060100
      4 O4'         1.8880   -0.4770    3.1930 os        1 XYA     -0.392600
      5 C1'         3.1930   -0.8200    3.6490 c3        1 XYA      0.245800
      6 N9          3.3120   -2.2660    3.7940 na        1 XYA     -0.269000
      7 C8          3.4500   -3.2270    2.7670 cc        1 XYA      0.507700
      8 N7          3.4010   -4.5050    3.1940 nd        1 XYA     -0.593100
      9 C5          3.1960   -4.4110    4.5730 ca        1 XYA     -0.134200
     10 C6          3.0540   -5.3480    5.6100 ca        1 XYA      0.513200
     11 N1          2.8580   -4.9720    6.9000 nb        1 XYA     -0.680000
     12 C2          2.8080   -3.6310    7.1450 ca        1 XYA      0.672900
     13 N3          2.9300   -2.6000    6.2670 nb        1 XYA     -0.613000
     14 C4          3.1210   -2.9870    4.9830 ca        1 XYA      0.467800
     15 N6          3.1200   -6.7820    5.2750 n4        1 XYA     -0.814300
     16 C2'         4.2130   -0.2490    2.6130 c3        1 XYA      0.114100
     17 O2'         4.6610    0.9680    3.1660 oh        1 XYA     -0.575800
     18 C3'         3.3670   -0.0280    1.3370 c3        1 XYA      0.090100
     19 O3'         3.6910   -1.0920    0.4640 oh        1 XYA     -0.622800
     20 H5'         0.4470    0.0810   -0.4710 ho        1 XYA      0.419000
     21 H5'1       -0.0260   -1.0190    1.4380 h1        1 XYA      0.064700
     22 H5'2        1.4270   -2.0710    1.0570 h1        1 XYA      0.064700
     23 H4'         1.4600    0.9670    1.8080 h1        1 XYA      0.091700
     24 H1'         3.3050   -0.3450    4.6700 h2        1 XYA      0.153700
     25 H8          3.6010   -2.9110    1.7130 h5        1 XYA      0.131800
     26 H2          2.6460   -3.3480    8.2120 h5        1 XYA      0.100100
     27 HN61        2.3590   -6.9980    4.6190 hn        1 XYA      0.477467
     28 HN62        4.0220   -6.9680    4.8180 hn        1 XYA      0.477467
     29 H2'         5.0750   -0.9380    2.4080 h1        1 XYA      0.083700
     30 H1          5.3630    1.3020    2.5900 ho        1 XYA      0.431000
     31 H3'         3.5990    0.9600    0.8580 h1        1 XYA      0.083700
     32 H3          3.2030   -0.9510   -0.3630 ho        1 XYA      0.452000
     33 H63         3.0290   -7.3670    6.1160 hn        1 XYA      0.477467
@<TRIPOS>BOND
     1    1    2 1   
     2    1   20 1   
     3    2    3 1   
     4    2   21 1   
     5    2   22 1   
     6    3    4 1   
     7    3   18 1   
     8    3   23 1   
     9    4    5 1   
    10    5    6 1   
    11    5   16 1   
    12    5   24 1   
    13    6    7 1   
    14    6   14 1   
    15    7    8 2   
    16    7   25 1   
    17    8    9 1   
    18    9   10 ar  
    19    9   14 ar  
    20   10   11 ar  
    21   10   15 1   
    22   11   12 ar  
    23   12   13 ar  
    24   12   26 1   
    25   13   14 ar  
    26   15   27 1   
    27   15   28 1   
    28   15   33 1   
    29   16   17 1   
    30   16   18 1   
    31   16   29 1   
    32   17   30 1   
    33   18   19 1   
    34   18   31 1   
    35   19   32 1   
@<TRIPOS>SUBSTRUCTURE
     1 XYA         1 TEMP              0 ****  ****    0 ROOT
