@<TRIPOS>MOLECULE
XYA
   32    34     1     0     0
SMALL
bcc


@<TRIPOS>ATOM
      1 O5'         0.5980   -1.5850    0.2520 oh        1 XYA     -0.599800
      2 C5'         1.9560   -1.2000    0.3850 c3        1 XYA      0.109400
      3 C4'         2.0020   -0.0150    1.3480 c3        1 XYA      0.138100
      4 O4'         1.4020   -0.3450    2.6100 os        1 XYA     -0.388600
      5 C1'         2.3970   -0.7810    3.5410 c3        1 XYA      0.224800
      6 N9          2.3040   -2.2090    3.7390 na        1 XYA     -0.293000
      7 C8          1.4000   -3.1240    3.1430 cc        1 XYA      0.427700
      8 N7          1.5440   -4.3800    3.5910 nd        1 XYA     -0.554100
      9 C5          2.5880   -4.3190    4.5280 ca        1 XYA     -0.226200
     10 C6          3.2200   -5.3080    5.3540 ca        1 XYA      0.762200
     11 N1          4.2380   -4.9160    6.1960 nb        1 XYA     -0.796000
     12 C2          4.5960   -3.6060    6.1840 ca        1 XYA      0.687900
     13 N3          4.1030   -2.5710    5.4630 nb        1 XYA     -0.760000
     14 C4          3.0830   -2.9530    4.6360 ca        1 XYA      0.448800
     15 N6          2.8310   -6.6190    5.2830 nh        1 XYA     -0.957500
     16 C2'         3.7860   -0.3120    2.9910 c3        1 XYA      0.077100
     17 O2'         4.3700    0.6240    3.8670 oh        1 XYA     -0.592800
     18 C3'         3.4500    0.4140    1.6660 c3        1 XYA      0.116100
     19 O3'         4.3030    0.0050    0.6190 oh        1 XYA     -0.590800
     20 H5'         0.5640   -2.2170   -0.4760 ho        1 XYA      0.406000
     21 H5'1        2.5540   -2.0570    0.7950 h1        1 XYA      0.046700
     22 H5'2        2.3850   -0.8840   -0.6030 h1        1 XYA      0.046700
     23 H4'         1.3800    0.8340    0.9570 h1        1 XYA      0.100700
     24 H1'         2.1530   -0.2620    4.5170 h2        1 XYA      0.106700
     25 H8          0.6770   -2.7720    2.3880 h5        1 XYA      0.103800
     26 H2          5.4260   -3.3490    6.8790 h5        1 XYA      0.050100
     27 HN61        2.0380   -6.8480    4.7360 hn        1 XYA      0.448800
     28 HN62        3.2100   -7.2910    5.9020 hn        1 XYA      0.448800
     29 H2'         4.4850   -1.1720    2.8070 h1        1 XYA      0.079700
     30 H1          4.6370    0.1380    4.6600 ho        1 XYA      0.431000
     31 H3'         3.5090    1.5270    1.8120 h1        1 XYA      0.077700
     32 H3          5.1790    0.3560    0.8270 ho        1 XYA      0.419000
@<TRIPOS>BOND
     1    1    2 1   
     2    1   20 1   
     3    2    3 1   
     4    2   21 1   
     5    2   22 1   
     6    3    4 1   
     7    3   18 1   
     8    3   23 1   
     9    4    5 1   
    10    5    6 1   
    11    5   16 1   
    12    5   24 1   
    13    6    7 1   
    14    6   14 1   
    15    7    8 2   
    16    7   25 1   
    17    8    9 1   
    18    9   10 ar  
    19    9   14 ar  
    20   10   11 ar  
    21   10   15 1   
    22   11   12 ar  
    23   12   13 ar  
    24   12   26 1   
    25   13   14 ar  
    26   15   27 1   
    27   15   28 1   
    28   16   17 1   
    29   16   18 1   
    30   16   29 1   
    31   17   30 1   
    32   18   19 1   
    33   18   31 1   
    34   19   32 1   
@<TRIPOS>SUBSTRUCTURE
     1 XYA         1 TEMP              0 ****  ****    0 ROOT
