@<TRIPOS>MOLECULE
XYA
   32    30     1     0     0
SMALL
bcc


@<TRIPOS>ATOM
      1 O5'        -2.9660    2.2100   -2.6860 oh        1 XYA     -0.594800
      2 C5'        -1.5860    2.0650   -2.6270 c3        1 XYA      0.130400
      3 C4'        -1.1560    2.0810   -1.2400 c3        1 XYA      0.093100
      4 O4'        -1.4560    0.9710   -0.6800 os        1 XYA     -0.415600
      5 C1'        -0.3140    0.7110    0.3350 c3        1 XYA      0.225800
      6 N9          0.1130   -0.4890    0.2220 n3        1 XYA     -0.137400
      7 C8          0.4510   -1.2910   -0.8390 c1        1 XYA      0.170400
      8 N7          0.5780   -2.5630   -0.3790 ne        1 XYA     -0.384400
      9 C5          0.3210   -2.5550    0.9620 cg        1 XYA     -0.192000
     10 C6          0.5010   -3.5190    1.9210 c1        1 XYA      0.295800
     11 N1          0.3940   -3.1970    3.2250 n1        1 XYA     -0.592800
     12 C2          0.1030   -1.8890    3.5970 c1        1 XYA      0.409300
     13 N3         -0.0720   -0.9450    2.6550 n1        1 XYA     -0.538800
     14 C4          0.0350   -1.2690    1.3300 c1        1 XYA      0.349500
     15 N6          0.9340   -4.9400    1.8900 n3        1 XYA     -0.819400
     16 C2'         0.8430    1.7570   -0.0290 c3        1 XYA      0.076100
     17 O2'         0.8910    2.8650    1.0000 oh        1 XYA     -0.582800
     18 C3'         0.5120    2.2190   -1.1580 c3        1 XYA      0.119100
     19 O3'         1.1020    1.4580   -2.1830 oh        1 XYA     -0.597800
     20 H5'        -3.2100    2.4730   -3.5340 ho        1 XYA      0.413000
     21 H5'1       -1.3450    1.2620   -3.0120 h1        1 XYA      0.060700
     22 H5'2       -1.1650    2.7890   -3.1010 h1        1 XYA      0.060700
     23 H4'        -1.5720    2.8080   -0.7700 h1        1 XYA      0.091700
     24 H1'        -0.6650    0.8840    1.3220 h2        1 XYA      0.124700
     25 H8          0.4600   -1.0270   -1.7640 DU        1 XYA      0.218000
     26 H2          0.0200   -1.6430    4.5870 ha        1 XYA      0.132500
     27 HN61        0.8690   -5.4190    2.5950 hn        1 XYA      0.448300
     28 HN62        1.3650   -5.3020    1.0930 hn        1 XYA      0.448300
     29 H2'         1.6900    1.3140   -0.0830 h1        1 XYA      0.071700
     30 H1          1.7840    3.1550    1.1150 ho        1 XYA      0.418000
     31 H3'         0.7710    3.1230   -1.2320 h1        1 XYA      0.082700
     32 H3          1.7700    1.9010   -2.5300 ho        1 XYA      0.416000
@<TRIPOS>BOND
     1    1    2 1   
     2    1   20 1   
     3    2    3 1   
     4    2   21 1   
     5    2   22 1   
     6    3    4 1   
     7    3   18 1   
     8    3   23 1   
     9    4    5 1   
    10    5    6 1   
    11    5   16 1   
    12    5   24 1   
    13    6    7 2   
    14    6   14 1   
    15    7    8 2   
    16    8    9 1   
    17    9   10 3   
    18   10   15 1   
    19   11   12 3   
    20   12   26 1   
    21   13   14 3   
    22   15   27 1   
    23   15   28 1   
    24   16   17 1   
    25   16   18 1   
    26   16   29 1   
    27   17   30 1   
    28   18   19 1   
    29   18   31 1   
    30   19   32 1   
@<TRIPOS>SUBSTRUCTURE
     1 XYA         1 TEMP              0 ****  ****    0 ROOT
