@<TRIPOS>MOLECULE
XYA
   32    34     1     0     0
SMALL
bcc


@<TRIPOS>ATOM
      1 O5'         0.6690   -1.6160    0.1920 oh        1 XYA     -0.599800
      2 C5'         2.0140   -1.2010    0.3660 c3        1 XYA      0.109400
      3 C4'         2.0050   -0.0220    1.3370 c3        1 XYA      0.138100
      4 O4'         1.3790   -0.3740    2.5790 os        1 XYA     -0.388600
      5 C1'         2.3570   -0.7930    3.5350 c3        1 XYA      0.224800
      6 N9          2.2900   -2.2240    3.7220 na        1 XYA     -0.293000
      7 C8          1.4250   -3.1560    3.0960 cc        1 XYA      0.427700
      8 N7          1.5850   -4.4100    3.5400 nd        1 XYA     -0.554100
      9 C5          2.6000   -4.3330    4.5070 ca        1 XYA     -0.226200
     10 C6          3.2320   -5.3120    5.3460 ca        1 XYA      0.762200
     11 N1          4.2150   -4.9020    6.2180 nb        1 XYA     -0.796000
     12 C2          4.5440   -3.5840    6.2230 ca        1 XYA      0.687900
     13 N3          4.0480   -2.5560    5.4950 nb        1 XYA     -0.760000
     14 C4          3.0610   -2.9560    4.6370 ca        1 XYA      0.448800
     15 N6          2.8740   -6.6310    5.2550 nv        1 XYA     -0.957500
     16 C2'         3.7490   -0.2900    3.0270 c3        1 XYA      0.077100
     17 O2'         4.2870    0.6540    3.9250 oh        1 XYA     -0.592800
     18 C3'         3.4340    0.4370    1.6980 c3        1 XYA      0.116100
     19 O3'         4.3260    0.0540    0.6730 oh        1 XYA     -0.590800
     20 H5'         0.6700   -2.2440   -0.5410 ho        1 XYA      0.406000
     21 H5'1        2.6200   -2.0470    0.7880 h1        1 XYA      0.046700
     22 H5'2        2.4630   -0.8700   -0.6080 h1        1 XYA      0.046700
     23 H4'         1.3750    0.8150    0.9340 h1        1 XYA      0.100700
     24 H1'         2.0740   -0.2860    4.5070 h2        1 XYA      0.106700
     25 H8          0.7150   -2.8150    2.3230 h5        1 XYA      0.103800
     26 H2          5.3470   -3.3130    6.9430 h5        1 XYA      0.050100
     27 HN61        2.1030   -6.8750    4.6850 hn        1 XYA      0.448800
     28 HN62        3.2510   -7.2980    5.8810 hn        1 XYA      0.448800
     29 H2'         4.4730   -1.1320    2.8580 h1        1 XYA      0.079700
     30 H1          4.5430    0.1690    4.7220 ho        1 XYA      0.431000
     31 H3'         3.4640    1.5500    1.8520 h1        1 XYA      0.077700
     32 H3          5.1870    0.4230    0.9070 ho        1 XYA      0.419000
@<TRIPOS>BOND
     1    1    2 1   
     2    1   20 1   
     3    2    3 1   
     4    2   21 1   
     5    2   22 1   
     6    3    4 1   
     7    3   18 1   
     8    3   23 1   
     9    4    5 1   
    10    5    6 1   
    11    5   16 1   
    12    5   24 1   
    13    6    7 1   
    14    6   14 1   
    15    7    8 2   
    16    7   25 1   
    17    8    9 1   
    18    9   10 ar  
    19    9   14 ar  
    20   10   11 ar  
    21   10   15 1   
    22   11   12 ar  
    23   12   13 ar  
    24   12   26 1   
    25   13   14 ar  
    26   15   27 1   
    27   15   28 1   
    28   16   17 1   
    29   16   18 1   
    30   16   29 1   
    31   17   30 1   
    32   18   19 1   
    33   18   31 1   
    34   19   32 1   
@<TRIPOS>SUBSTRUCTURE
     1 XYA         1 TEMP              0 ****  ****    0 ROOT
