@<TRIPOS>MOLECULE
XYD
   21    21     1     0     0
SMALL
bcc


@<TRIPOS>ATOM
      1 C1         -0.0160    0.0330    0.0140 ca        1 XYD     -0.076400
      2 C2          1.3920   -0.0280   -0.0240 ca        1 XYD     -0.045300
      3 C3          2.0740   -0.0830    1.1990 ca        1 XYD     -0.099000
      4 C4          1.3850   -0.0770    2.4060 ca        1 XYD     -0.072000
      5 C5         -0.0180   -0.0160    2.4330 ca        1 XYD     -0.036300
      6 C6         -0.7220    0.0390    1.2290 ca        1 XYD     -0.108000
      7 N          -0.7600    0.0900   -1.2460 n4        1 XYD     -0.698000
      8 C8         -0.7350   -0.0100    3.7280 c3        1 XYD     -0.074800
      9 C9          2.1370   -0.0360   -1.3020 c3        1 XYD     -0.087800
     10 H3          3.1770   -0.1310    1.1960 ha        1 XYD      0.172000
     11 H4          1.9420   -0.1200    3.3580 ha        1 XYD      0.172000
     12 H6         -1.8240    0.0870    1.2520 ha        1 XYD      0.155000
     13 H1N        -0.5430   -0.7420   -1.8070 hn        1 XYD      0.461467
     14 H2N        -0.4760    0.9270   -1.7700 hn        1 XYD      0.461467
     15 H81        -1.8430    0.0330    3.5880 hc        1 XYD      0.070033
     16 H82        -0.4880   -0.9350    4.3090 hc        1 XYD      0.070033
     17 H83        -0.4210    0.8760    4.3370 hc        1 XYD      0.070033
     18 H91         1.9350    0.8970   -1.8890 hc        1 XYD      0.067700
     19 H92         1.8570   -0.9240   -1.9240 hc        1 XYD      0.067700
     20 H93         3.2420   -0.0870   -1.1220 hc        1 XYD      0.067700
     21 HN3        -1.7680    0.1270   -1.0620 hn        1 XYD      0.461467
@<TRIPOS>BOND
     1    1    2 ar  
     2    1    6 ar  
     3    1    7 1   
     4    2    3 ar  
     5    2    9 1   
     6    3    4 ar  
     7    3   10 1   
     8    4    5 ar  
     9    4   11 1   
    10    5    6 ar  
    11    5    8 1   
    12    6   12 1   
    13    7   13 1   
    14    7   14 1   
    15    7   21 1   
    16    8   15 1   
    17    8   16 1   
    18    8   17 1   
    19    9   18 1   
    20    9   19 1   
    21    9   20 1   
@<TRIPOS>SUBSTRUCTURE
     1 XYD         1 TEMP              0 ****  ****    0 ROOT
