@<TRIPOS>MOLECULE
XYD
   20    20     1     0     0
SMALL
bcc


@<TRIPOS>ATOM
      1 C1         -0.0230    0.0040   -0.0340 ca        1 XYD      0.139600
      2 C2          1.3960    0.0640   -0.0320 ca        1 XYD     -0.139300
      3 C3          2.0740    0.0820    1.1880 ca        1 XYD     -0.091000
      4 C4          1.3910    0.0390    2.3990 ca        1 XYD     -0.169000
      5 C5         -0.0060   -0.0240    2.4100 ca        1 XYD     -0.044300
      6 C6         -0.7050   -0.0480    1.2040 ca        1 XYD     -0.190000
      7 N          -0.7480    0.0750   -1.2300 nh        1 XYD     -0.815200
      8 C8         -0.7430   -0.0550    3.6950 c3        1 XYD     -0.054800
      9 C9          2.1580    0.1150   -1.3010 c3        1 XYD     -0.045800
     10 H3          3.1750    0.1320    1.1890 ha        1 XYD      0.128000
     11 H4          1.9480    0.0540    3.3470 ha        1 XYD      0.130000
     12 H6         -1.8040   -0.0970    1.2220 ha        1 XYD      0.130000
     13 H1N        -1.6720   -0.2920   -1.1660 hn        1 XYD      0.385800
     14 H2N        -0.2530   -0.2600   -2.0280 hn        1 XYD      0.385800
     15 H81        -0.1290   -0.5340    4.4960 hc        1 XYD      0.043700
     16 H82        -0.9860    0.9890    4.0180 hc        1 XYD      0.043700
     17 H83        -1.7010   -0.6210    3.5960 hc        1 XYD      0.043700
     18 H91         1.9580   -0.7970   -1.9190 hc        1 XYD      0.039700
     19 H92         1.8690    1.0160   -1.8980 hc        1 XYD      0.039700
     20 H93         3.2580    0.1650   -1.1070 hc        1 XYD      0.039700
@<TRIPOS>BOND
     1    1    2 ar  
     2    1    6 ar  
     3    1    7 1   
     4    2    3 ar  
     5    2    9 1   
     6    3    4 ar  
     7    3   10 1   
     8    4    5 ar  
     9    4   11 1   
    10    5    6 ar  
    11    5    8 1   
    12    6   12 1   
    13    7   13 1   
    14    7   14 1   
    15    8   15 1   
    16    8   16 1   
    17    8   17 1   
    18    9   18 1   
    19    9   19 1   
    20    9   20 1   
@<TRIPOS>SUBSTRUCTURE
     1 XYD         1 TEMP              0 ****  ****    0 ROOT
