@<TRIPOS>MOLECULE
XYD
   20    20     1     0     0
SMALL
bcc


@<TRIPOS>ATOM
      1 C1         -0.7850   -0.0860   -0.7220 ca        1 XYD      0.139600
      2 C2          0.5680   -0.0040   -1.1430 ca        1 XYD     -0.139300
      3 C3          1.5770    0.0690   -0.1800 ca        1 XYD     -0.091000
      4 C4          1.2830    0.0680    1.1790 ca        1 XYD     -0.169000
      5 C5         -0.0470   -0.0060    1.6060 ca        1 XYD     -0.044300
      6 C6         -1.0710   -0.0780    0.6620 ca        1 XYD     -0.189000
      7 N          -1.8220   -0.2540   -1.6500 nh        1 XYD     -0.815200
      8 C8         -0.3680    0.0090    3.0520 c3        1 XYD     -0.054800
      9 C9          0.9200   -0.0050   -2.5820 c3        1 XYD     -0.045800
     10 H3          2.6270    0.1280   -0.5070 ha        1 XYD      0.128000
     11 H4          2.0950    0.1240    1.9180 ha        1 XYD      0.130000
     12 H6         -2.1140   -0.1400    1.0080 ha        1 XYD      0.130000
     13 H1N        -2.7170    0.0210   -1.3100 hn        1 XYD      0.385800
     14 H2N        -1.6230    0.1130   -2.5550 hn        1 XYD      0.385800
     15 H81        -0.4740    1.0650    3.4080 hc        1 XYD      0.043367
     16 H82        -1.3270   -0.5280    3.2580 hc        1 XYD      0.043367
     17 H83         0.4440   -0.4800    3.6450 hc        1 XYD      0.043367
     18 H91         0.5590   -0.9420   -3.0750 hc        1 XYD      0.039700
     19 H92         0.4540    0.8690   -3.1040 hc        1 XYD      0.039700
     20 H93         2.0270    0.0590   -2.7250 hc        1 XYD      0.039700
@<TRIPOS>BOND
     1    1    2 ar  
     2    1    6 ar  
     3    1    7 1   
     4    2    3 ar  
     5    2    9 1   
     6    3    4 ar  
     7    3   10 1   
     8    4    5 ar  
     9    4   11 1   
    10    5    6 ar  
    11    5    8 1   
    12    6   12 1   
    13    7   13 1   
    14    7   14 1   
    15    8   15 1   
    16    8   16 1   
    17    8   17 1   
    18    9   18 1   
    19    9   19 1   
    20    9   20 1   
@<TRIPOS>SUBSTRUCTURE
     1 XYD         1 TEMP              0 ****  ****    0 ROOT
