@<TRIPOS>MOLECULE
XYD
   20    20     1     0     0
SMALL
bcc


@<TRIPOS>ATOM
      1 C1         -0.0260    0.0210   -0.0320 ca        1 XYD      0.139600
      2 C2          1.3890   -0.0950   -0.0320 ca        1 XYD     -0.139300
      3 C3          2.0680   -0.1450    1.1860 ca        1 XYD     -0.091000
      4 C4          1.3890   -0.0790    2.3980 ca        1 XYD     -0.169000
      5 C5         -0.0040    0.0400    2.4110 ca        1 XYD     -0.044300
      6 C6         -0.7030    0.0960    1.2070 ca        1 XYD     -0.190000
      7 N          -0.7550   -0.0160   -1.2280 nv        1 XYD     -0.815200
      8 C8         -0.7370    0.0950    3.6990 c3        1 XYD     -0.054800
      9 C9          2.1470   -0.1710   -1.3030 c3        1 XYD     -0.045800
     10 H3          3.1660   -0.2380    1.1850 ha        1 XYD      0.128000
     11 H4          1.9460   -0.1190    3.3450 ha        1 XYD      0.130000
     12 H6         -1.8000    0.1890    1.2270 ha        1 XYD      0.130000
     13 H1N        -1.6630    0.3880   -1.1600 hn        1 XYD      0.385800
     14 H2N        -0.2480    0.3020   -2.0250 hn        1 XYD      0.385800
     15 H81        -0.1090    0.5640    4.4960 hc        1 XYD      0.043700
     16 H82        -1.6810    0.6850    3.5990 hc        1 XYD      0.043700
     17 H83        -1.0040   -0.9410    4.0270 hc        1 XYD      0.043700
     18 H91         3.2440   -0.2660   -1.1120 hc        1 XYD      0.039700
     19 H92         1.8210   -1.0580   -1.9030 hc        1 XYD      0.039700
     20 H93         1.9830    0.7500   -1.9180 hc        1 XYD      0.039700
@<TRIPOS>BOND
     1    1    2 ar  
     2    1    6 ar  
     3    1    7 1   
     4    2    3 ar  
     5    2    9 1   
     6    3    4 ar  
     7    3   10 1   
     8    4    5 ar  
     9    4   11 1   
    10    5    6 ar  
    11    5    8 1   
    12    6   12 1   
    13    7   13 1   
    14    7   14 1   
    15    8   15 1   
    16    8   16 1   
    17    8   17 1   
    18    9   18 1   
    19    9   19 1   
    20    9   20 1   
@<TRIPOS>SUBSTRUCTURE
     1 XYD         1 TEMP              0 ****  ****    0 ROOT
