@<TRIPOS>MOLECULE
XYF
   19    19     1     0     0
SMALL
bcc


@<TRIPOS>ATOM
      1 O3         -0.0440    0.2940    0.0180 oh        1 XYF     -0.618800
      2 C3          1.3670    0.1050    0.0020 c3        1 XYF      0.154100
      3 C4          1.8430    0.0330    1.4580 c3        1 XYF      0.080100
      4 O4          1.6840    1.3210    2.0380 oh        1 XYF     -0.600800
      5 C5          3.3490   -0.3700    1.5040 c3        1 XYF      0.356400
      6 F5          3.7300   -0.6610    2.8010 f         1 XYF     -0.274300
      7 O5          3.6260   -1.5440    0.8160 os        1 XYF     -0.516600
      8 C1          3.3050   -1.4440   -0.6390 c3        1 XYF      0.555600
      9 C2          1.7540   -1.1990   -0.6990 c3        1 XYF     -0.000900
     10 O2          1.3230   -1.1150   -2.0510 oh        1 XYF     -0.646800
     11 O1          3.6920   -2.5520   -1.1680 o         1 XYF     -0.800500
     12 HO3        -0.3620   -0.0150   -0.8400 ho        1 XYF      0.407000
     13 H3          1.8350    0.9890   -0.5130 h1        1 XYF      0.043700
     14 H4          1.2270   -0.7160    2.0230 h1        1 XYF      0.053700
     15 HO4         2.0490    1.2520    2.9280 ho        1 XYF      0.389000
     16 H5          3.9630    0.5030    1.1280 h2        1 XYF      0.019700
     17 H1          3.8040   -0.4860   -1.0020 h2        1 XYF     -0.074300
     18 H2          1.2210   -2.0620   -0.2160 h1        1 XYF      0.045700
     19 HO2         1.9520   -1.6530   -2.5530 ho        1 XYF      0.426000
@<TRIPOS>BOND
     1    1    2 1   
     2    1   12 1   
     3    2    3 1   
     4    2    9 1   
     5    2   13 1   
     6    3    4 1   
     7    3    5 1   
     8    3   14 1   
     9    4   15 1   
    10    5    6 1   
    11    5    7 1   
    12    5   16 1   
    13    7    8 1   
    14    8    9 1   
    15    8   11 1   
    16    8   17 1   
    17    9   10 1   
    18    9   18 1   
    19   10   19 1   
@<TRIPOS>SUBSTRUCTURE
     1 XYF         1 TEMP              0 ****  ****    0 ROOT
