@<TRIPOS>MOLECULE
XYF
   19    19     1     0     0
SMALL
bcc


@<TRIPOS>ATOM
      1 O3          2.1210   -1.6680   -0.8320 oh        1 XYF     -0.643800
      2 C3          2.2310   -0.3380   -0.3280 c3        1 XYF      0.111100
      3 C4          2.3880    0.5900   -1.5410 c3        1 XYF      0.080100
      4 O4          3.6170    0.3450   -2.2080 oh        1 XYF     -0.612800
      5 C5          2.4090    2.0740   -1.0670 c3        1 XYF      0.397400
      6 F5          2.2870    2.9420   -2.1320 f         1 XYF     -0.259300
      7 O5          1.3020    2.3950   -0.2840 os        1 XYF     -0.518600
      8 C1          1.1950    1.5880    0.9590 c3        1 XYF      0.557600
      9 C2          1.0090    0.1010    0.4710 c3        1 XYF      0.001100
     10 O2          0.8590   -0.7710    1.5820 oh        1 XYF     -0.647800
     11 O1          0.1930    2.0600    1.6140 o         1 XYF     -0.801500
     12 HO3         1.5990   -2.1600   -0.1860 ho        1 XYF      0.417000
     13 H3          3.1560   -0.2940    0.3120 h1        1 XYF      0.043700
     14 H4          1.5370    0.4310   -2.2570 h1        1 XYF      0.052700
     15 HO4         3.6600   -0.6100   -2.3450 ho        1 XYF      0.403000
     16 H5          3.3850    2.2670   -0.5320 h2        1 XYF      0.023700
     17 H1          2.2190    1.6390    1.4560 h2        1 XYF     -0.076300
     18 H2          0.0850    0.0240   -0.1610 h1        1 XYF      0.046700
     19 HO2         0.4850   -0.2220    2.2870 ho        1 XYF      0.427000
@<TRIPOS>BOND
     1    1    2 1   
     2    1   12 1   
     3    2    3 1   
     4    2    9 1   
     5    2   13 1   
     6    3    4 1   
     7    3    5 1   
     8    3   14 1   
     9    4   15 1   
    10    5    6 1   
    11    5    7 1   
    12    5   16 1   
    13    7    8 1   
    14    8    9 1   
    15    8   11 1   
    16    8   17 1   
    17    9   10 1   
    18    9   18 1   
    19   10   19 1   
@<TRIPOS>SUBSTRUCTURE
     1 XYF         1 TEMP              0 ****  ****    0 ROOT
