@<TRIPOS>MOLECULE
XYF
   19    19     1     0     0
SMALL
bcc


@<TRIPOS>ATOM
      1 O3         -0.0330    0.3160   -0.0070 oh        1 XYF     -0.618800
      2 C3          1.3770    0.1130   -0.0090 c3        1 XYF      0.154100
      3 C4          1.8360    0.0410    1.4520 c3        1 XYF      0.080100
      4 O4          1.6840    1.3330    2.0260 oh        1 XYF     -0.600800
      5 C5          3.3380   -0.3770    1.5150 c3        1 XYF      0.356400
      6 F5          3.7030   -0.6670    2.8170 f         1 XYF     -0.274300
      7 O5          3.6100   -1.5560    0.8340 os        1 XYF     -0.516600
      8 C1          3.3040   -1.4590   -0.6240 c3        1 XYF      0.555600
      9 C2          1.7570   -1.1980   -0.7010 c3        1 XYF     -0.000900
     10 O2          1.3400   -1.1150   -2.0570 oh        1 XYF     -0.646800
     11 O1          3.6850   -2.5720   -1.1450 o         1 XYF     -0.800500
     12 HO3        -0.3450    0.0070   -0.8670 ho        1 XYF      0.407000
     13 H3          1.8590    0.9900   -0.5220 h1        1 XYF      0.043700
     14 H4          1.2070   -0.7010    2.0140 h1        1 XYF      0.053700
     15 HO4         2.0390    1.2630    2.9210 ho        1 XYF      0.389000
     16 H5          3.9640    0.4890    1.1420 h2        1 XYF      0.019700
     17 H1          3.8170   -0.5070   -0.9850 h2        1 XYF     -0.074300
     18 H2          1.2100   -2.0540   -0.2200 h1        1 XYF      0.045700
     19 HO2         1.9690   -1.6610   -2.5510 ho        1 XYF      0.426000
@<TRIPOS>BOND
     1    1    2 1   
     2    1   12 1   
     3    2    3 1   
     4    2    9 1   
     5    2   13 1   
     6    3    4 1   
     7    3    5 1   
     8    3   14 1   
     9    4   15 1   
    10    5    6 1   
    11    5    7 1   
    12    5   16 1   
    13    7    8 1   
    14    8    9 1   
    15    8   11 1   
    16    8   17 1   
    17    9   10 1   
    18    9   18 1   
    19   10   19 1   
@<TRIPOS>SUBSTRUCTURE
     1 XYF         1 TEMP              0 ****  ****    0 ROOT
