@<TRIPOS>MOLECULE
XYG
   33    30     1     0     0
SMALL
bcc


@<TRIPOS>ATOM
      1 N          -1.6990   -1.6310   -2.7650 n1        1 XYG     -0.236000
      2 CB1        -3.4930   -0.2250   -1.8820 c3        1 XYG     -0.259000
      3 CA1        -2.1910   -0.9820   -1.7420 c2        1 XYG      0.073000
      4 C1         -1.4570   -0.9890   -0.4190 c2        1 XYG      0.159000
      5 N2         -0.4780   -0.1360   -0.2050 n1        1 XYG     -0.216000
      6 OH          3.7250    5.1910    0.3890 oh        1 XYG     -0.260000
      7 CD2         1.3750    2.5050    1.3110 c1        1 XYG     -0.061000
      8 CE2         1.9970    3.7430    1.2630 c1        1 XYG     -0.166000
      9 CZ          3.1200    3.9240    0.4710 c2        1 XYG      0.067000
     10 CE1         3.6220    2.8670   -0.2720 c2        1 XYG     -0.223000
     11 CD1         3.0000    1.6290   -0.2240 c1        1 XYG     -0.089000
     12 CG2         1.8770    1.4480    0.5680 c1        1 XYG     -0.057000
     13 CB2         1.5500    0.0710    1.1040 c2        1 XYG     -0.079000
     14 CA2         0.4420   -0.5700    0.6820 c1        1 XYG     -0.082000
     15 C2         -0.0700   -1.9950    1.1150 c2        1 XYG      0.308000
     16 O2          0.6070   -2.8830    1.5920 o         1 XYG     -0.322000
     17 N3         -1.3500   -2.1790    0.3180 n         1 XYG     -0.243000
     18 CA3        -1.9620   -3.4210   -0.0050 c3        1 XYG     -0.116000
     19 C          -2.4800   -4.0710    1.2590 c2        1 XYG      0.320000
     20 O          -1.9090   -5.0940    1.7200 o         1 XYG     -0.561500
     21 OXT        -3.4960   -3.6030    1.8370 o         1 XYG     -0.561500
     22 HA31       -1.3030   -4.0090   -0.4290 h1        1 XYG      0.101000
     23 HA32       -2.7070   -3.2670   -0.6220 h1        1 XYG      0.101000
     24 HN2        -2.1420   -1.6270   -3.5640 DU        1 XYG      0.137000
     25 HB11       -4.2430   -0.8530   -1.8270 hc        1 XYG      0.116667
     26 HB12       -3.5660    0.4350   -1.1610 hc        1 XYG      0.116667
     27 HB13       -3.5130    0.2330   -2.7480 hc        1 XYG      0.116667
     28 HB2         2.1410   -0.3520    1.7550 ha        1 XYG      0.140000
     29 HD2         0.5840    2.3770    1.8690 ha        1 XYG      0.169000
     30 HE2         1.6430    4.4870    1.7860 ha        1 XYG      0.144000
     31 HOH         4.6090    5.0990    0.4020 ho        1 XYG      0.209000
     32 HE1         4.4130    2.9940   -0.8290 ha        1 XYG      0.123000
     33 HD1         3.3530    0.8840   -0.7470 ha        1 XYG      0.130000
@<TRIPOS>BOND
     1    1    3 1   
     2    2    3 1   
     3    2   25 1   
     4    2   26 1   
     5    2   27 1   
     6    3    4 1   
     7    4    5 1   
     8    4   17 1   
     9    6    9 1   
    10    6   31 1   
    11    7   12 1   
    12    7   29 1   
    13    8    9 1   
    14    8   30 1   
    15    9   10 1   
    16   10   11 1   
    17   10   32 1   
    18   11   33 1   
    19   12   13 1   
    20   13   14 1   
    21   13   28 1   
    22   14   15 1   
    23   15   16 1   
    24   15   17 1   
    25   17   18 1   
    26   18   19 1   
    27   18   22 1   
    28   18   23 1   
    29   19   20 1   
    30   19   21 1   
@<TRIPOS>SUBSTRUCTURE
     1 XYG         1 TEMP              0 ****  ****    0 ROOT
