@<TRIPOS>MOLECULE
XYG
   33    34     1     0     0
SMALL
bcc


@<TRIPOS>ATOM
      1 N          -6.6450   -0.5290    1.0830 n2        1 XYG     -0.768100
      2 CB1        -6.2230   -0.3300   -1.3850 c3        1 XYG     -0.215400
      3 CA1        -5.8700   -0.4760    0.0600 ce        1 XYG      0.436000
      4 C1         -4.3880   -0.5710    0.2660 cc        1 XYG      0.452600
      5 N2         -3.5710    0.4870    0.1830 nd        1 XYG     -0.644300
      6 CD2        -1.6620    2.8750   -0.5030 ca        1 XYG     -0.074500
      7 CE2        -1.3820    4.2320   -0.6460 ca        1 XYG     -0.194500
      8 CZ         -0.2620    4.7770   -0.0080 ca        1 XYG      0.112100
      9 CE1         0.5860    3.9710    0.7680 ca        1 XYG     -0.194500
     10 CD1         0.2950    2.6190    0.8960 ca        1 XYG     -0.074500
     11 CG2        -0.8330    2.0520    0.2730 ca        1 XYG     -0.069800
     12 CA2        -2.2530   -0.0120    0.4020 cd        1 XYG      0.038400
     13 C2         -2.3590   -1.5220    0.6350 c         1 XYG      0.670700
     14 O2         -1.4490   -2.3160    0.8890 o         1 XYG     -0.597500
     15 N3         -3.7550   -1.7970    0.5950 n         1 XYG     -0.354300
     16 CA3        -4.3170   -3.1060    0.3990 c3        1 XYG     -0.050000
     17 C          -4.7370   -3.5090   -1.0450 c         1 XYG      0.900600
     18 O          -4.4060   -2.7840   -2.0240 o         1 XYG     -0.826800
     19 OXT        -5.4070   -4.5740   -1.1270 o         1 XYG     -0.826800
     20 HA31       -5.2250   -3.1890    1.0590 h1        1 XYG      0.061700
     21 HA32       -3.5470   -3.8520    0.7420 h1        1 XYG      0.061700
     22 HN2        -7.6200   -0.4680    0.8680 hn        1 XYG      0.381400
     23 HB11       -5.7520    0.5970   -1.7950 hc        1 XYG      0.077033
     24 HB12       -5.8140   -1.2170   -1.9510 hc        1 XYG      0.077033
     25 HB13       -7.3280   -0.2760   -1.5380 hc        1 XYG      0.077033
     26 HB2        -0.1750    0.0210    0.6500 ha        1 XYG      0.141000
     27 HD2        -2.5420    2.4510   -1.0140 ha        1 XYG      0.150000
     28 HE2        -2.0390    4.8690   -1.2540 ha        1 XYG      0.133500
     29 HOH        -0.6000    6.5420   -0.6520 ho        1 XYG      0.413000
     30 HE1         1.4610    4.4150    1.2590 ha        1 XYG      0.133500
     31 HD1         0.9550    1.9790    1.5020 ha        1 XYG      0.150000
     32 CB2        -1.0730    0.6340    0.4440 ce        1 XYG     -0.065200
     33 OH          0.0720    6.1120   -0.1050 oh        1 XYG     -0.509100
@<TRIPOS>BOND
     1    1    3 2   
     2    1   22 1   
     3    2    3 1   
     4    2   23 1   
     5    2   24 1   
     6    2   25 1   
     7    3    4 1   
     8    4    5 2   
     9    4   15 1   
    10    5   12 1   
    11    6    7 ar  
    12    6   11 ar  
    13    6   27 1   
    14    7    8 ar  
    15    7   28 1   
    16    8    9 ar  
    17    8   33 1   
    18    9   10 ar  
    19    9   30 1   
    20   10   11 ar  
    21   10   31 1   
    22   11   32 1   
    23   12   13 1   
    24   12   32 2   
    25   13   14 2   
    26   13   15 1   
    27   15   16 1   
    28   16   17 1   
    29   16   20 1   
    30   16   21 1   
    31   17   18 1   
    32   17   19 1   
    33   26   32 1   
    34   29   33 1   
@<TRIPOS>SUBSTRUCTURE
     1 XYG         1 TEMP              0 ****  ****    0 ROOT
