@<TRIPOS>MOLECULE
XYH
   21    20     1     0     0
SMALL
bcc


@<TRIPOS>ATOM
      1 O1B        -3.3280    1.1540   -1.0670 o         1 XYH     -0.822800
      2 O1A        -2.9150    0.6730    1.0930 o         1 XYH     -0.822800
      3 C1         -2.7260    0.5400   -0.1550 c         1 XYH      0.893600
      4 C2         -1.6040   -0.4700   -0.5310 c3        1 XYH     -0.020900
      5 OH2        -1.6630   -1.6120    0.3060 oh        1 XYH     -0.628800
      6 C3         -0.2570    0.2450   -0.3290 c3        1 XYH      0.094100
      7 OH3         0.0150    0.4360    1.0540 oh        1 XYH     -0.655800
      8 C4          0.9220   -0.5330   -0.9370 c3        1 XYH      0.092100
      9 OH4         0.7790   -1.9310   -0.8560 oh        1 XYH     -0.581800
     10 C5          2.2690   -0.1350   -0.3280 c         1 XYH      0.574100
     11 OH5         3.1880   -0.9500   -0.1450 o         1 XYH     -0.583100
     12 N6          2.5140    1.2640   -0.1340 n         1 XYH     -0.356400
     13 OH6         3.5980    1.5420    0.6030 oh        1 XYH     -0.451100
     14 H21        -1.6990   -0.8450   -1.5800 h1        1 XYH      0.075700
     15 HO2        -2.0470   -1.3190    1.1490 ho        1 XYH      0.422000
     16 H31        -0.3120    1.2560   -0.8250 h1        1 XYH      0.052700
     17 HO3        -0.8390    0.6090    1.4910 ho        1 XYH      0.458000
     18 H41         0.9730   -0.3140   -2.0440 h1        1 XYH      0.085700
     19 HO4         0.3930   -2.1360    0.0090 ho        1 XYH      0.436000
     20 HN6         1.7220    1.7200    0.3180 hn        1 XYH      0.318500
     21 HO6         4.3540    1.1450    0.1300 ho        1 XYH      0.420000
@<TRIPOS>BOND
     1    1    3 1   
     2    2    3 1   
     3    3    4 1   
     4    4    5 1   
     5    4    6 1   
     6    4   14 1   
     7    5   15 1   
     8    6    7 1   
     9    6    8 1   
    10    6   16 1   
    11    7   17 1   
    12    8    9 1   
    13    8   10 1   
    14    8   18 1   
    15    9   19 1   
    16   10   11 2   
    17   10   12 1   
    18   12   13 1   
    19   12   20 1   
    20   13   21 1   
@<TRIPOS>SUBSTRUCTURE
     1 XYH         1 TEMP              0 ****  ****    0 ROOT
