@<TRIPOS>MOLECULE
XYH
   22    21     1     0     0
SMALL
bcc


@<TRIPOS>ATOM
      1 O1B        -0.1300    0.1420    0.6850 o         1 XYH     -0.794300
      2 O1A         1.5540    0.8610   -0.6370 o         1 XYH     -0.794300
      3 C1          1.0690    0.4520    0.4430 c         1 XYH      0.905600
      4 C2          2.0940    0.2440    1.6060 c3        1 XYH     -0.033900
      5 OH2         3.3780   -0.0780    1.1070 oh        1 XYH     -0.656800
      6 C3          1.6130   -0.8650    2.5480 c3        1 XYH      0.125100
      7 OH3         1.0600   -1.9920    1.8840 oh        1 XYH     -0.708800
      8 C4          2.7760   -1.4220    3.3940 c3        1 XYH      0.115100
      9 OH4         3.6450   -2.2720    2.6780 oh        1 XYH     -0.630800
     10 C5          2.1850   -2.2720    4.5260 c         1 XYH      0.560100
     11 OH5         2.0550   -2.0310    5.7050 o         1 XYH     -0.384100
     12 N6          1.6400   -3.6150    3.9850 n4        1 XYH     -0.476300
     13 OH6         1.2630   -4.4180    5.0000 oh        1 XYH     -0.359300
     14 H21         2.1850    1.1960    2.1960 h1        1 XYH      0.059700
     15 HO2         3.3810    0.1590    0.1610 ho        1 XYH      0.458000
     16 H31         0.8250   -0.4200    3.2200 h1        1 XYH      0.070700
     17 HO3         0.4220   -1.6640    1.2150 ho        1 XYH      0.504000
     18 H41         3.3650   -0.5870    3.8690 h1        1 XYH      0.126700
     19 HO4         3.6620   -1.9700    1.7500 ho        1 XYH      0.491000
     20 HN6         0.8520   -3.3820    3.3380 hn        1 XYH      0.485800
     21 HO6         0.7420   -5.1650    4.6320 ho        1 XYH      0.452000
     22 H62         2.4080   -4.0440    3.4310 hn        1 XYH      0.485800
@<TRIPOS>BOND
     1    1    3 1   
     2    2    3 1   
     3    3    4 1   
     4    4    5 1   
     5    4    6 1   
     6    4   14 1   
     7    5   15 1   
     8    6    7 1   
     9    6    8 1   
    10    6   16 1   
    11    7   17 1   
    12    8    9 1   
    13    8   10 1   
    14    8   18 1   
    15    9   19 1   
    16   10   11 2   
    17   10   12 1   
    18   12   13 1   
    19   12   20 1   
    20   12   22 1   
    21   13   21 1   
@<TRIPOS>SUBSTRUCTURE
     1 XYH         1 TEMP              0 ****  ****    0 ROOT
