@<TRIPOS>MOLECULE
XYH
   22    21     1     0     0
SMALL
bcc


@<TRIPOS>ATOM
      1 O1B        -0.1250    0.0570    0.6090 o         1 XYH     -0.794300
      2 O1A         1.5680    0.7680   -0.7050 o         1 XYH     -0.794300
      3 C1          1.0730    0.3810    0.3780 c         1 XYH      0.905600
      4 C2          2.0810    0.2200    1.5620 c3        1 XYH     -0.033900
      5 OH2         3.3790   -0.0930    1.0930 oh        1 XYH     -0.656800
      6 C3          1.6030   -0.8710    2.5270 c3        1 XYH      0.125100
      7 OH3         1.0790   -2.0240    1.8830 oh        1 XYH     -0.708800
      8 C4          2.7610   -1.3860    3.4050 c3        1 XYH      0.115100
      9 OH4         3.6550   -2.2410    2.7250 oh        1 XYH     -0.630800
     10 C5          2.1660   -2.2160    4.5500 c         1 XYH      0.560100
     11 OH5         2.0130   -1.9460    5.7200 o         1 XYH     -0.384100
     12 N6          1.6520   -3.5820    4.0360 ny        1 XYH     -0.476300
     13 OH6         1.2710   -4.3630    5.0660 oh        1 XYH     -0.359300
     14 H21         2.1470    1.1900    2.1280 h1        1 XYH      0.059700
     15 HO2         3.3930    0.1180    0.1410 ho        1 XYH      0.458000
     16 H31         0.7970   -0.4210    3.1740 h1        1 XYH      0.070700
     17 HO3         0.4470   -1.7250    1.1960 ho        1 XYH      0.504000
     18 H41         3.3290   -0.5290    3.8660 h1        1 XYH      0.126700
     19 HO4         3.6820   -1.9620    1.7900 ho        1 XYH      0.491000
     20 HN6         2.4350   -4.0120    3.5060 hn        1 XYH      0.485800
     21 HO6         0.7680   -5.1280    4.7100 ho        1 XYH      0.452000
     22 H62         0.8700   -3.3780    3.3710 hn        1 XYH      0.485800
@<TRIPOS>BOND
     1    1    3 1   
     2    2    3 1   
     3    3    4 1   
     4    4    5 1   
     5    4    6 1   
     6    4   14 1   
     7    5   15 1   
     8    6    7 1   
     9    6    8 1   
    10    6   16 1   
    11    7   17 1   
    12    8    9 1   
    13    8   10 1   
    14    8   18 1   
    15    9   19 1   
    16   10   11 2   
    17   10   12 1   
    18   12   13 1   
    19   12   20 1   
    20   12   22 1   
    21   13   21 1   
@<TRIPOS>SUBSTRUCTURE
     1 XYH         1 TEMP              0 ****  ****    0 ROOT
