@<TRIPOS>MOLECULE
XYH
   21    20     1     0     0
SMALL
bcc


@<TRIPOS>ATOM
      1 O1B        -1.1330   -1.2560   -3.1400 o         1 XYH     -0.819300
      2 O1A        -2.8420   -1.8080   -1.9030 o         1 XYH     -0.819300
      3 C1         -1.6180   -1.5310   -2.0120 c         1 XYH      0.897600
      4 C2         -0.7320   -1.5290   -0.7870 c3        1 XYH     -0.028900
      5 OH2        -1.2010   -2.4860    0.1330 oh        1 XYH     -0.624800
      6 C3         -0.7590   -0.1600   -0.1470 c3        1 XYH      0.105100
      7 OH3        -1.8680   -0.0670    0.7160 oh        1 XYH     -0.631800
      8 C4          0.5120    0.0530    0.6410 c3        1 XYH      0.070100
      9 OH4         0.3820   -0.5410    1.9110 oh        1 XYH     -0.572800
     10 C5          0.7630    1.5360    0.8020 c         1 XYH      0.560100
     11 OH5        -0.1270    2.2630    1.1960 o         1 XYH     -0.583100
     12 N6          2.0370    2.0780    0.4930 n         1 XYH     -0.362400
     13 OH6         2.2640    3.4200    0.6390 oh        1 XYH     -0.446100
     14 H21         0.1850   -1.7490   -1.0470 h1        1 XYH      0.054700
     15 HO2        -0.8710   -3.2850   -0.0760 ho        1 XYH      0.425000
     16 H31        -0.8300    0.5230   -0.8430 h1        1 XYH      0.049700
     17 HO3        -2.4310    0.5490    0.4100 ho        1 XYH      0.456000
     18 H41         1.2630   -0.3540    0.1660 h1        1 XYH      0.113700
     19 HO4         1.1840   -0.7870    2.2060 ho        1 XYH      0.421000
     20 HN6         2.7060    1.5310    0.1970 hn        1 XYH      0.312500
     21 HO6         3.1140    3.6000    0.4460 ho        1 XYH      0.423000
@<TRIPOS>BOND
     1    1    3 1   
     2    2    3 1   
     3    3    4 1   
     4    4    5 1   
     5    4    6 1   
     6    4   14 1   
     7    5   15 1   
     8    6    7 1   
     9    6    8 1   
    10    6   16 1   
    11    7   17 1   
    12    8    9 1   
    13    8   10 1   
    14    8   18 1   
    15    9   19 1   
    16   10   11 2   
    17   10   12 1   
    18   12   13 1   
    19   12   20 1   
    20   13   21 1   
@<TRIPOS>SUBSTRUCTURE
     1 XYH         1 TEMP              0 ****  ****    0 ROOT
