@<TRIPOS>MOLECULE
XYH
   22    21     1     0     0
SMALL
bcc


@<TRIPOS>ATOM
      1 O1B        -0.0930   -0.0120    0.5250 o         1 XYH     -0.794300
      2 O1A         1.6270    0.7450   -0.7270 o         1 XYH     -0.794300
      3 C1          1.1030    0.3460    0.3380 c         1 XYH      0.905600
      4 C2          2.0700    0.2200    1.5600 c3        1 XYH     -0.033900
      5 OH2         3.3930   -0.0570    1.1420 oh        1 XYH     -0.656800
      6 C3          1.5870   -0.8810    2.5110 c3        1 XYH      0.125100
      7 OH3         1.1220   -2.0520    1.8550 oh        1 XYH     -0.708800
      8 C4          2.7250   -1.3580    3.4360 c3        1 XYH      0.115100
      9 OH4         3.6700   -2.1880    2.7960 oh        1 XYH     -0.630800
     10 C5          2.1110   -2.2000    4.5610 c         1 XYH      0.560100
     11 OH5         1.9050   -1.9300    5.7230 o         1 XYH     -0.384100
     12 N6          1.6570   -3.5830    4.0360 n4        1 XYH     -0.476300
     13 OH6         1.2600   -4.3700    5.0550 oh        1 XYH     -0.359300
     14 H21         2.0860    1.1930    2.1230 h1        1 XYH      0.059700
     15 HO2         3.4370    0.1510    0.1900 ho        1 XYH      0.458000
     16 H31         0.7440   -0.4530    3.1250 h1        1 XYH      0.070700
     17 HO3         0.5080   -1.7740    1.1420 ho        1 XYH      0.504000
     18 H41         3.2500   -0.4820    3.9140 h1        1 XYH      0.126700
     19 HO4         3.7240   -1.9130    1.8610 ho        1 XYH      0.491000
     20 HN6         0.8960   -3.4050    3.3400 hn        1 XYH      0.485800
     21 HO6         0.7920   -5.1500    4.6840 ho        1 XYH      0.452000
     22 H62         2.4720   -3.9920    3.5390 hn        1 XYH      0.485800
@<TRIPOS>BOND
     1    1    3 1   
     2    2    3 1   
     3    3    4 1   
     4    4    5 1   
     5    4    6 1   
     6    4   14 1   
     7    5   15 1   
     8    6    7 1   
     9    6    8 1   
    10    6   16 1   
    11    7   17 1   
    12    8    9 1   
    13    8   10 1   
    14    8   18 1   
    15    9   19 1   
    16   10   11 2   
    17   10   12 1   
    18   12   13 1   
    19   12   20 1   
    20   12   22 1   
    21   13   21 1   
@<TRIPOS>SUBSTRUCTURE
     1 XYH         1 TEMP              0 ****  ****    0 ROOT
