@<TRIPOS>MOLECULE
XYL
   22    21     1     0     0
SMALL
bcc


@<TRIPOS>ATOM
      1 C1          0.9400    0.5260    2.0210 c3        1 XYL      0.105400
      2 C2         -0.2980    0.0040    1.2820 c3        1 XYL      0.109100
      3 C3          0.1130   -0.7510    0.0010 c3        1 XYL      0.071100
      4 C4         -0.2950    0.0010   -1.2810 c3        1 XYL      0.109100
      5 C5          0.9440    0.5180   -2.0220 c3        1 XYL      0.105400
      6 O1          0.5370    1.6850    2.7290 oh        1 XYL     -0.589800
      7 O2         -1.0730   -0.8450    2.1060 oh        1 XYL     -0.584800
      8 O3         -0.4720   -2.0420    0.0020 oh        1 XYL     -0.603800
      9 O4         -1.0730   -0.8470   -2.1030 oh        1 XYL     -0.584800
     10 O5          0.5450    1.6740   -2.7350 oh        1 XYL     -0.589800
     11 H11         1.7460    0.8030    1.2880 h1        1 XYL      0.027700
     12 H12         1.3310   -0.2550    2.7250 h1        1 XYL      0.027700
     13 H2         -0.9890    0.8660    1.0580 h1        1 XYL      0.108700
     14 H3          1.2190   -0.9650    0.0030 h1        1 XYL      0.074700
     15 H4         -0.9840    0.8670   -1.0600 h1        1 XYL      0.108700
     16 H51         1.7510    0.7960   -1.2900 h1        1 XYL      0.027700
     17 H52         1.3340   -0.2680   -2.7220 h1        1 XYL      0.027700
     18 HO1         1.2480    1.8960    3.3450 ho        1 XYL      0.403000
     19 HO2        -0.5560   -1.6450    2.2730 ho        1 XYL      0.408000
     20 HO3        -1.4340   -1.9250    0.0020 ho        1 XYL      0.429000
     21 HO4        -0.5580   -1.6490   -2.2690 ho        1 XYL      0.408000
     22 HO5         1.2570    1.8810   -3.3520 ho        1 XYL      0.403000
@<TRIPOS>BOND
     1    1    2 1   
     2    1    6 1   
     3    1   11 1   
     4    1   12 1   
     5    2    3 1   
     6    2    7 1   
     7    2   13 1   
     8    3    4 1   
     9    3    8 1   
    10    3   14 1   
    11    4    5 1   
    12    4    9 1   
    13    4   15 1   
    14    5   10 1   
    15    5   16 1   
    16    5   17 1   
    17    6   18 1   
    18    7   19 1   
    19    8   20 1   
    20    9   21 1   
    21   10   22 1   
@<TRIPOS>SUBSTRUCTURE
     1 XYL         1 TEMP              0 ****  ****    0 ROOT
