@<TRIPOS>MOLECULE
XYL
   22    21     1     0     0
SMALL
bcc


@<TRIPOS>ATOM
      1 C1         -0.0050    0.3370    0.1090 c3        1 XYL      0.089400
      2 C2          1.4800   -0.0350    0.0140 c3        1 XYL      0.117100
      3 C3          2.0600   -0.2140    1.4280 c3        1 XYL      0.155100
      4 C4          3.5920   -0.0720    1.4350 c3        1 XYL      0.117100
      5 C5          4.0720    0.2670    2.8530 c3        1 XYL      0.089400
      6 O1         -0.4870    0.3880   -1.2250 oh        1 XYL     -0.613800
      7 O2          1.6380   -1.2710   -0.6630 oh        1 XYL     -0.593800
      8 O3          1.6600   -1.4430    1.9920 oh        1 XYL     -0.594800
      9 O4          4.1300   -1.3140    1.0150 oh        1 XYL     -0.593800
     10 O5          5.4890    0.2850    2.7980 oh        1 XYL     -0.613800
     11 H11        -0.5520   -0.4430    0.7010 h1        1 XYL      0.041700
     12 H12        -0.1280    1.3400    0.5950 h1        1 XYL      0.041700
     13 H2          2.0350    0.7710   -0.5420 h1        1 XYL      0.050700
     14 H3          1.6180    0.5730    2.1050 h1        1 XYL      0.069700
     15 H4          3.9170    0.7390    0.7260 h1        1 XYL      0.050700
     16 H51         3.6910    1.2740    3.1650 h1        1 XYL      0.041700
     17 H52         3.7100   -0.5160    3.5710 h1        1 XYL      0.041700
     18 HO1        -1.4490    0.4120   -1.1730 ho        1 XYL      0.410000
     19 HO2         1.1550   -1.1920   -1.4970 ho        1 XYL      0.423000
     20 HO3         2.0250   -2.1440    1.4300 ho        1 XYL      0.440000
     21 HO4         5.0870   -1.2600    1.1500 ho        1 XYL      0.423000
     22 HO5         5.8040    0.2870    3.7090 ho        1 XYL      0.410000
@<TRIPOS>BOND
     1    1    2 1   
     2    1    6 1   
     3    1   11 1   
     4    1   12 1   
     5    2    3 1   
     6    2    7 1   
     7    2   13 1   
     8    3    4 1   
     9    3    8 1   
    10    3   14 1   
    11    4    5 1   
    12    4    9 1   
    13    4   15 1   
    14    5   10 1   
    15    5   16 1   
    16    5   17 1   
    17    6   18 1   
    18    7   19 1   
    19    8   20 1   
    20    9   21 1   
    21   10   22 1   
@<TRIPOS>SUBSTRUCTURE
     1 XYL         1 TEMP              0 ****  ****    0 ROOT
