@<TRIPOS>MOLECULE
XYL
   22    21     1     0     0
SMALL
bcc


@<TRIPOS>ATOM
      1 C1         -0.0420    0.2800    0.1720 c3        1 XYL      0.089400
      2 C2          1.4550   -0.0260    0.0340 c3        1 XYL      0.117100
      3 C3          2.0700   -0.2390    1.4290 c3        1 XYL      0.155100
      4 C4          3.5950   -0.0310    1.4150 c3        1 XYL      0.117100
      5 C5          4.0880    0.2650    2.8370 c3        1 XYL      0.089400
      6 O1         -0.5520    0.3660   -1.1490 oh        1 XYL     -0.613800
      7 O2          1.6490   -1.2260   -0.6960 oh        1 XYL     -0.593800
      8 O3          1.7330   -1.5060    1.9470 oh        1 XYL     -0.594800
      9 O4          4.1760   -1.2300    0.9300 oh        1 XYL     -0.593800
     10 O5          5.5020    0.3470    2.7570 oh        1 XYL     -0.613800
     11 H11        -0.5450   -0.5450    0.7410 h1        1 XYL      0.041700
     12 H12        -0.1950    1.2570    0.7020 h1        1 XYL      0.041700
     13 H2          1.9650    0.8240   -0.4970 h1        1 XYL      0.050700
     14 H3          1.6090    0.4990    2.1470 h1        1 XYL      0.069700
     15 H4          3.8710    0.8220    0.7360 h1        1 XYL      0.050700
     16 H51         3.6720    1.2410    3.2010 h1        1 XYL      0.041700
     17 H52         3.7740   -0.5630    3.5260 h1        1 XYL      0.041700
     18 HO1        -1.5130    0.3490   -1.0790 ho        1 XYL      0.410000
     19 HO2         1.1470   -1.1330   -1.5170 ho        1 XYL      0.423000
     20 HO3         2.1160   -2.1670    1.3500 ho        1 XYL      0.440000
     21 HO4         5.1310   -1.1410    1.0500 ho        1 XYL      0.423000
     22 HO5         5.8350    0.3220    3.6610 ho        1 XYL      0.410000
@<TRIPOS>BOND
     1    1    2 1   
     2    1    6 1   
     3    1   11 1   
     4    1   12 1   
     5    2    3 1   
     6    2    7 1   
     7    2   13 1   
     8    3    4 1   
     9    3    8 1   
    10    3   14 1   
    11    4    5 1   
    12    4    9 1   
    13    4   15 1   
    14    5   10 1   
    15    5   16 1   
    16    5   17 1   
    17    6   18 1   
    18    7   19 1   
    19    8   20 1   
    20    9   21 1   
    21   10   22 1   
@<TRIPOS>SUBSTRUCTURE
     1 XYL         1 TEMP              0 ****  ****    0 ROOT
