@<TRIPOS>MOLECULE
XYM
   15    14     1     0     0
SMALL
bcc


@<TRIPOS>ATOM
      1 OAA         4.0200   -0.3610   -1.1510 o         1 XYM     -0.853300
      2 OAB        -3.1010   -1.7140    0.4450 o         1 XYM     -0.848300
      3 OAC         4.0440    0.2200    0.9950 o         1 XYM     -0.853300
      4 OAD        -4.2440    0.1390   -0.0450 o         1 XYM     -0.848300
      5 OAE        -2.0760    1.6180   -0.4690 oh        1 XYM     -0.544100
      6 CAF        -0.6360   -0.2020    0.0080 c2        1 XYM     -0.156400
      7 CAG         1.9920   -0.6930    0.1130 c3        1 XYM     -0.133300
      8 SAH         0.8320    0.6050   -0.2260 ss        1 XYM     -0.223700
      9 CAI         3.4480   -0.2210   -0.0310 c         1 XYM      0.924600
     10 CAJ        -3.1540   -0.4990    0.1160 c         1 XYM      0.893800
     11 CAK        -1.8810    0.2970   -0.1130 ce        1 XYM     -0.011100
     12 HOAE       -3.0410    1.7520   -0.4950 ho        1 XYM      0.425000
     13 HAF        -0.5810   -1.2660    0.2960 h4        1 XYM      0.146000
     14 HAG         1.8420   -1.0650    1.1530 h1        1 XYM      0.040700
     15 HAGA        1.8230   -1.5380   -0.5950 h1        1 XYM      0.040700
@<TRIPOS>BOND
     1    1    9 1   
     2    2   10 1   
     3    3    9 1   
     4    4   10 1   
     5    5   11 1   
     6    5   12 1   
     7    6    8 1   
     8    6   11 2   
     9    6   13 1   
    10    7    8 1   
    11    7    9 1   
    12    7   14 1   
    13    7   15 1   
    14   10   11 1   
@<TRIPOS>SUBSTRUCTURE
     1 XYM         1 TEMP              0 ****  ****    0 ROOT
