@<TRIPOS>MOLECULE
XYM
   15    14     1     0     0
SMALL
bcc


@<TRIPOS>ATOM
      1 OAA         0.5980   -1.1290    0.1920 o         1 XYM     -0.853300
      2 OAB         5.5760    0.4310   -5.0890 o         1 XYM     -0.848300
      3 OAC         1.0380    0.9750    0.7600 o         1 XYM     -0.853300
      4 OAD         7.5710   -0.1960   -4.3110 o         1 XYM     -0.848300
      5 OAE         6.6960   -0.6780   -1.8490 oh        1 XYM     -0.544100
      6 CAF         4.4820   -0.0600   -2.4220 c2        1 XYM     -0.156400
      7 CAG         2.0900    0.1200   -1.2360 c3        1 XYM     -0.133300
      8 SAH         3.7750   -0.3220   -0.9070 ss        1 XYM     -0.223700
      9 CAI         1.1990   -0.0300    0.0070 c         1 XYM      0.924600
     10 CAJ         6.3260    0.0240   -4.1620 c         1 XYM      0.893800
     11 CAK         5.7700   -0.2350   -2.7730 ce        1 XYM     -0.011100
     12 HOAE        7.5470   -0.7280   -2.3200 ho        1 XYM      0.425000
     13 HAF         3.8180    0.2960   -3.2270 h4        1 XYM      0.146000
     14 HAG         2.0420    1.1790   -1.5800 h1        1 XYM      0.040700
     15 HAGA        1.6840   -0.5340   -2.0430 h1        1 XYM      0.040700
@<TRIPOS>BOND
     1    1    9 1   
     2    2   10 1   
     3    3    9 1   
     4    4   10 1   
     5    5   11 1   
     6    5   12 1   
     7    6    8 1   
     8    6   11 2   
     9    6   13 1   
    10    7    8 1   
    11    7    9 1   
    12    7   14 1   
    13    7   15 1   
    14   10   11 1   
@<TRIPOS>SUBSTRUCTURE
     1 XYM         1 TEMP              0 ****  ****    0 ROOT
