@<TRIPOS>MOLECULE
XYN
   15    14     1     0     0
SMALL
bcc


@<TRIPOS>ATOM
      1 OBA         4.0740   -0.0740    1.0190 o         1 XYN     -0.849300
      2 OBB        -3.6260   -0.8520    1.2100 o         1 XYN     -0.830300
      3 OBC        -2.0460    1.6440    0.0160 o         1 XYN     -0.579100
      4 OBD         4.0230   -0.1090   -1.2060 o         1 XYN     -0.849300
      5 OBE        -3.6760   -0.8870   -1.0250 o         1 XYN     -0.830300
      6 CBF         2.0050   -0.7240   -0.0380 c3        1 XYN     -0.119300
      7 CBG        -0.6610   -0.3450    0.0170 c3        1 XYN     -0.126300
      8 SBH         0.8360    0.6080   -0.0320 ss        1 XYN     -0.294200
      9 CBI         3.4650   -0.2410   -0.0780 c         1 XYN      0.926600
     10 CBJ        -3.1880   -0.5110    0.0760 c         1 XYN      0.847600
     11 CBK        -1.9560    0.4120    0.0340 c         1 XYN      0.491100
     12 HBF         1.8640   -1.3390    0.8810 h1        1 XYN      0.035700
     13 HBFA        1.8230   -1.3680   -0.9290 h1        1 XYN      0.035700
     14 HBG        -0.6930   -1.0240   -0.8750 h1        1 XYN      0.070700
     15 HBGA       -0.6530   -0.9950    0.9300 h1        1 XYN      0.070700
@<TRIPOS>BOND
     1    1    9 1   
     2    2   10 1   
     3    3   11 2   
     4    4    9 1   
     5    5   10 1   
     6    6    8 1   
     7    6    9 1   
     8    6   12 1   
     9    6   13 1   
    10    7    8 1   
    11    7   11 1   
    12    7   14 1   
    13    7   15 1   
    14   10   11 1   
@<TRIPOS>SUBSTRUCTURE
     1 XYN         1 TEMP              0 ****  ****    0 ROOT
