@<TRIPOS>MOLECULE
XYN
   15    14     1     0     0
SMALL
bcc


@<TRIPOS>ATOM
      1 OBA         1.1460    1.0260    0.6140 o         1 XYN     -0.849300
      2 OBB         2.1850    1.2040   -7.0540 o         1 XYN     -0.830300
      3 OBC        -0.3470   -0.0160   -5.5570 o         1 XYN     -0.579100
      4 OBD         1.2120   -1.1970    0.5730 o         1 XYN     -0.849300
      5 OBE         2.2510   -1.0300   -7.0960 o         1 XYN     -0.830300
      6 CBF         1.8800   -0.0270   -1.4270 c3        1 XYN     -0.119300
      7 CBG         1.5930    0.0140   -4.1050 c3        1 XYN     -0.126300
      8 SBH         0.5890   -0.0430   -2.6410 ss        1 XYN     -0.294200
      9 CBI         1.3480   -0.0700    0.0150 c         1 XYN      0.926600
     10 CBJ         1.8450    0.0680   -6.6240 c         1 XYN      0.847600
     11 CBK         0.8800    0.0170   -5.4250 c         1 XYN      0.491100
     12 HBF         2.5420   -0.9110   -1.5840 h1        1 XYN      0.035700
     13 HBFA        2.4890    0.8990   -1.5500 h1        1 XYN      0.035700
     14 HBG         2.2300    0.9350   -4.0770 h1        1 XYN      0.070700
     15 HBGA        2.2830   -0.8690   -4.1110 h1        1 XYN      0.070700
@<TRIPOS>BOND
     1    1    9 1   
     2    2   10 1   
     3    3   11 2   
     4    4    9 1   
     5    5   10 1   
     6    6    8 1   
     7    6    9 1   
     8    6   12 1   
     9    6   13 1   
    10    7    8 1   
    11    7   11 1   
    12    7   14 1   
    13    7   15 1   
    14   10   11 1   
@<TRIPOS>SUBSTRUCTURE
     1 XYN         1 TEMP              0 ****  ****    0 ROOT
