@<TRIPOS>MOLECULE
XYP
   20    20     1     0     0
SMALL
bcc


@<TRIPOS>ATOM
      1 O4A         0.5580   -0.3120   -2.6630 oh        1 XYP     -0.606800
      2 C1B         0.4770    0.3380   -1.4180 c3        1 XYP      0.305900
      3 C2B        -0.8140   -0.1460   -0.7200 c3        1 XYP      0.124100
      4 C3B        -0.7800    0.1860    0.7790 c3        1 XYP      0.153100
      5 C4B         0.5660   -0.2490    1.3880 c3        1 XYP      0.065100
      6 C5B         1.7390    0.3240    0.5920 c3        1 XYP      0.110400
      7 O2B        -1.9110    0.5570   -1.2720 oh        1 XYP     -0.582800
      8 O3B        -1.8290   -0.5480    1.3850 oh        1 XYP     -0.584800
      9 O4B         0.5680    0.2580    2.7140 oh        1 XYP     -0.598800
     10 O5B         1.6680   -0.0810   -0.7660 os        1 XYP     -0.449600
     11 HO4A        1.4930   -0.4040   -2.8940 ho        1 XYP      0.434000
     12 H1B         0.4720    1.4570   -1.5490 h2        1 XYP      0.054700
     13 H2B        -0.9360   -1.2540   -0.8660 h1        1 XYP      0.077700
     14 H3B        -0.9360    1.2890    0.9350 h1        1 XYP      0.068700
     15 H4B         0.6200   -1.3730    1.4020 h1        1 XYP      0.064700
     16 H5B1        1.7490    1.4440    0.6620 h1        1 XYP      0.060200
     17 H5B2        2.7160   -0.0900    0.9550 h1        1 XYP      0.060200
     18 HO2B       -2.0180    0.2270   -2.1740 ho        1 XYP      0.417000
     19 HO3B       -1.8430   -0.2800    2.3130 ho        1 XYP      0.417000
     20 HO4B        1.3530   -0.0980    3.1480 ho        1 XYP      0.409000
@<TRIPOS>BOND
     1    1    2 1   
     2    1   11 1   
     3    2    3 1   
     4    2   10 1   
     5    2   12 1   
     6    3    4 1   
     7    3    7 1   
     8    3   13 1   
     9    4    5 1   
    10    4    8 1   
    11    4   14 1   
    12    5    6 1   
    13    5    9 1   
    14    5   15 1   
    15    6   10 1   
    16    6   16 1   
    17    6   17 1   
    18    7   18 1   
    19    8   19 1   
    20    9   20 1   
@<TRIPOS>SUBSTRUCTURE
     1 XYP         1 TEMP              0 ****  ****    0 ROOT
