@<TRIPOS>MOLECULE
XYS
   20    20     1     0     0
SMALL
bcc


@<TRIPOS>ATOM
      1 C1         -0.6500    0.4550   -1.4780 c3        1 XYS      0.292900
      2 C2          0.7560    0.5960   -0.8580 c3        1 XYS      0.139100
      3 C3          0.8340   -0.1550    0.4800 c3        1 XYS      0.119100
      4 C4         -0.3580    0.2440    1.3690 c3        1 XYS      0.071100
      5 C5         -1.6700   -0.0150    0.6300 c3        1 XYS      0.099400
      6 O1         -0.8030   -0.8810   -1.8950 oh        1 XYS     -0.632800
      7 O2          1.7220    0.1430   -1.7760 oh        1 XYS     -0.570800
      8 O3          2.0520    0.2160    1.0980 oh        1 XYS     -0.585800
      9 O4         -0.2640   -0.5650    2.5320 oh        1 XYS     -0.599800
     10 O5         -1.7180    0.7160   -0.5890 os        1 XYS     -0.438600
     11 H1         -0.7950    1.1850   -2.3240 h2        1 XYS      0.086700
     12 H2          0.9920    1.6860   -0.7020 h1        1 XYS      0.103700
     13 H3          0.8140   -1.2670    0.3000 h1        1 XYS      0.062700
     14 H4         -0.2710    1.3300    1.6490 h1        1 XYS      0.060700
     15 H51        -1.7880   -1.1110    0.4220 h1        1 XYS      0.062700
     16 H52        -2.5490    0.3660    1.2130 h1        1 XYS      0.062700
     17 HO1        -1.6680   -0.9590   -2.3170 ho        1 XYS      0.424000
     18 HO2         1.5700   -0.8030   -1.9140 ho        1 XYS      0.416000
     19 HO3         2.0720   -0.2390    1.9510 ho        1 XYS      0.418000
     20 HO4        -0.9710   -0.2850    3.1250 ho        1 XYS      0.409000
@<TRIPOS>BOND
     1    1    2 1   
     2    1    6 1   
     3    1   10 1   
     4    1   11 1   
     5    2    3 1   
     6    2    7 1   
     7    2   12 1   
     8    3    4 1   
     9    3    8 1   
    10    3   13 1   
    11    4    5 1   
    12    4    9 1   
    13    4   14 1   
    14    5   10 1   
    15    5   15 1   
    16    5   16 1   
    17    6   17 1   
    18    7   18 1   
    19    8   19 1   
    20    9   20 1   
@<TRIPOS>SUBSTRUCTURE
     1 XYS         1 TEMP              0 ****  ****    0 ROOT
