@<TRIPOS>MOLECULE
XYW
   72    77     1     0     0
SMALL
bcc


@<TRIPOS>ATOM
      1 C1         -0.6230    1.7980    0.1630 c3        1 XYW     -0.360300
      2 S2          0.7440    0.9070    0.6150 sy        1 XYW      1.396300
      3 O3          1.0050    1.1300    1.9750 o         1 XYW     -0.657800
      4 O4          0.5780   -0.4210    0.2010 o         1 XYW     -0.657800
      5 C5          1.9070    1.6740   -0.3230 ca        1 XYW     -0.373500
      6 C6          2.7370    2.6520    0.2370 ca        1 XYW     -0.031000
      7 C7          3.7070    3.2820   -0.5350 ca        1 XYW     -0.140000
      8 C8          3.8570    2.9570   -1.8800 ca        1 XYW     -0.102000
      9 C9          3.0370    1.9670   -2.4660 ca        1 XYW      0.105600
     10 N10         3.2500    1.5750   -3.8090 nh        1 XYW     -0.704300
     11 C11         2.2290    1.7010   -4.7790 ca        1 XYW      0.871900
     12 N12         0.9050    1.7760   -4.3690 nb        1 XYW     -0.742000
     13 C13        -0.0120    1.8010   -5.3500 ca        1 XYW      0.467200
     14 C14         0.3090    1.7710   -6.7140 ca        1 XYW     -0.418600
     15 C15         1.6860    1.7140   -7.0510 ca        1 XYW      0.578800
     16 N16         2.6520    1.6790   -6.1040 nb        1 XYW     -0.734000
     17 C17         2.0550    1.6960   -8.4540 cc        1 XYW     -0.288900
     18 S18         0.9770    1.1270   -9.6280 ss        1 XYW     -0.114300
     19 C19         2.1370    1.4690  -10.8850 cc        1 XYW      0.641300
     20 N20         3.2990    1.9900  -10.4290 nd        1 XYW     -0.688000
     21 C21         3.2470    2.1200   -9.0470 cd        1 XYW      0.477800
     22 C22         4.4030    2.6830   -8.3380 ca        1 XYW     -0.091500
     23 C23         5.2660    1.8470   -7.6230 ca        1 XYW     -0.099000
     24 C24         6.3570    2.4020   -6.9600 ca        1 XYW     -0.114000
     25 C25         6.6030    3.7710   -6.9960 ca        1 XYW     -0.173000
     26 C26         5.7460    4.6210   -7.7300 ca        1 XYW      0.157600
     27 N27         5.9580    6.0100   -7.7930 nh        1 XYW     -0.774500
     28 S28         7.3120    6.8570   -7.4970 sy        1 XYW      1.516200
     29 O29         6.9520    8.2130   -7.4060 o         1 XYW     -0.635800
     30 O30         8.0510    6.3300   -6.4280 o         1 XYW     -0.635800
     31 C31         8.2100    6.6400   -8.9410 ca        1 XYW     -0.436500
     32 C32         7.6990    7.0700  -10.1910 ca        1 XYW      0.261400
     33 F33         6.4550    7.6000  -10.2540 f         1 XYW     -0.113900
     34 C34         8.4380    6.9630  -11.3800 ca        1 XYW     -0.207500
     35 C35         9.7130    6.4070  -11.3450 ca        1 XYW     -0.022000
     36 C36        10.2510    5.9570  -10.1470 ca        1 XYW     -0.207500
     37 C37         9.5040    6.0700   -8.9580 ca        1 XYW      0.261400
     38 F38        10.0610    5.6160   -7.8150 f         1 XYW     -0.113900
     39 C39         4.6430    4.0560   -8.4080 ca        1 XYW     -0.141000
     40 N40         1.7800    1.3080  -12.2280 nh        1 XYW     -0.709300
     41 C41         0.9730    0.1260  -12.5120 c3        1 XYW      0.148300
     42 C42         0.4780    0.1070  -13.9640 c3        1 XYW      0.122400
     43 O43         1.5510    0.2730  -14.8810 os        1 XYW     -0.408600
     44 C44         2.2680    1.4810  -14.6530 c3        1 XYW      0.122400
     45 C45         2.8160    1.5610  -13.2220 c3        1 XYW      0.148300
     46 C46         2.0710    1.3250   -1.6670 ca        1 XYW      0.002000
     47 H11C       -1.5590    1.3240    0.5520 h1        1 XYW      0.115367
     48 H12C       -0.6120    2.8430    0.5590 h1        1 XYW      0.115367
     49 H13C       -0.7500    1.8780   -0.9450 h1        1 XYW      0.115367
     50 H6          2.6240    2.9100    1.3060 ha        1 XYW      0.161000
     51 H46         1.4390    0.5230   -2.0900 ha        1 XYW      0.172000
     52 H7          4.3580    4.0460   -0.0840 ha        1 XYW      0.146000
     53 H8          4.6260    3.4730   -2.4780 ha        1 XYW      0.143000
     54 H10         4.1720    1.7670   -4.1510 hn        1 XYW      0.442800
     55 H13        -1.0640    1.8550   -5.0120 h4        1 XYW      0.029100
     56 H14        -0.4670    1.8030   -7.4870 ha        1 XYW      0.157000
     57 H23         5.0720    0.7650   -7.5730 ha        1 XYW      0.148000
     58 H39         3.9600    4.6920   -8.9930 ha        1 XYW      0.141000
     59 H24         7.0410    1.7500   -6.3940 ha        1 XYW      0.138000
     60 H25         7.4680    4.1750   -6.4420 ha        1 XYW      0.169000
     61 H27         5.1620    6.5030   -8.1440 hn        1 XYW      0.459800
     62 H34         8.0000    7.3190  -12.3240 ha        1 XYW      0.162500
     63 H35        10.2970    6.3220  -12.2760 ha        1 XYW      0.150000
     64 H36        11.2560    5.5110  -10.1090 ha        1 XYW      0.162500
     65 H411        1.5590   -0.8190  -12.3200 h1        1 XYW      0.061450
     66 H412        0.0770    0.1340  -11.8270 h1        1 XYW      0.061450
     67 H451        3.2230    2.5970  -13.0530 h1        1 XYW      0.061450
     68 H452        3.6640    0.8260  -13.1140 h1        1 XYW      0.061450
     69 H421       -0.2910    0.9060  -14.1320 h1        1 XYW      0.061200
     70 H422        0.0510   -0.9010  -14.2070 h1        1 XYW      0.061200
     71 H441        1.6050    2.3590  -14.8750 h1        1 XYW      0.061200
     72 H442        3.1190    1.4440  -15.3830 h1        1 XYW      0.061200
@<TRIPOS>BOND
     1    1    2 1   
     2    1   47 1   
     3    1   48 1   
     4    1   49 1   
     5    2    3 2   
     6    2    4 2   
     7    2    5 1   
     8    5    6 ar  
     9    5   46 ar  
    10    6    7 ar  
    11    6   50 1   
    12    7    8 ar  
    13    7   52 1   
    14    8    9 ar  
    15    8   53 1   
    16    9   10 1   
    17    9   46 ar  
    18   10   11 1   
    19   10   54 1   
    20   11   12 ar  
    21   11   16 ar  
    22   12   13 ar  
    23   13   14 ar  
    24   13   55 1   
    25   14   15 ar  
    26   14   56 1   
    27   15   16 ar  
    28   15   17 1   
    29   17   18 1   
    30   17   21 2   
    31   18   19 1   
    32   19   20 2   
    33   19   40 1   
    34   20   21 1   
    35   21   22 1   
    36   22   23 ar  
    37   22   39 ar  
    38   23   24 ar  
    39   23   57 1   
    40   24   25 ar  
    41   24   59 1   
    42   25   26 ar  
    43   25   60 1   
    44   26   27 1   
    45   26   39 ar  
    46   27   28 1   
    47   27   61 1   
    48   28   29 2   
    49   28   30 2   
    50   28   31 1   
    51   31   32 ar  
    52   31   37 ar  
    53   32   33 1   
    54   32   34 ar  
    55   34   35 ar  
    56   34   62 1   
    57   35   36 ar  
    58   35   63 1   
    59   36   37 ar  
    60   36   64 1   
    61   37   38 1   
    62   39   58 1   
    63   40   41 1   
    64   40   45 1   
    65   41   42 1   
    66   41   65 1   
    67   41   66 1   
    68   42   43 1   
    69   42   69 1   
    70   42   70 1   
    71   43   44 1   
    72   44   45 1   
    73   44   71 1   
    74   44   72 1   
    75   45   67 1   
    76   45   68 1   
    77   46   51 1   
@<TRIPOS>SUBSTRUCTURE
     1 XYW         1 TEMP              0 ****  ****    0 ROOT
