@<TRIPOS>MOLECULE
XYW
   72    77     1     0     0
SMALL
bcc


@<TRIPOS>ATOM
      1 C1         -0.6100    1.7830    0.1720 c3        1 XYW     -0.360300
      2 S2          0.7560    0.8870    0.6180 sy        1 XYW      1.396300
      3 O3          1.0200    1.1040    1.9790 o         1 XYW     -0.657800
      4 O4          0.5860   -0.4390    0.1990 o         1 XYW     -0.657800
      5 C5          1.9190    1.6550   -0.3190 ca        1 XYW     -0.373500
      6 C6          2.7520    2.6290    0.2440 ca        1 XYW     -0.031000
      7 C7          3.7220    3.2600   -0.5270 ca        1 XYW     -0.140000
      8 C8          3.8690    2.9400   -1.8730 ca        1 XYW     -0.102000
      9 C9          3.0470    1.9540   -2.4630 ca        1 XYW      0.105600
     10 N10         3.2570    1.5660   -3.8070 nu        1 XYW     -0.704300
     11 C11         2.2350    1.6970   -4.7750 ca        1 XYW      0.871900
     12 N12         0.9110    1.7730   -4.3630 nb        1 XYW     -0.742000
     13 C13        -0.0070    1.8030   -5.3420 ca        1 XYW      0.467200
     14 C14         0.3120    1.7750   -6.7070 ca        1 XYW     -0.418600
     15 C15         1.6880    1.7170   -7.0460 ca        1 XYW      0.578800
     16 N16         2.6550    1.6780   -6.1000 nb        1 XYW     -0.734000
     17 C17         2.0550    1.7020   -8.4500 cc        1 XYW     -0.288900
     18 S18         0.9750    1.1380   -9.6230 ss        1 XYW     -0.114300
     19 C19         2.1330    1.4820  -10.8810 cc        1 XYW      0.641300
     20 N20         3.2960    1.9990  -10.4260 nd        1 XYW     -0.688000
     21 C21         3.2470    2.1260   -9.0430 cd        1 XYW      0.477800
     22 C22         4.4050    2.6850   -8.3350 ca        1 XYW     -0.091500
     23 C23         5.2670    1.8450   -7.6230 ca        1 XYW     -0.099000
     24 C24         6.3610    2.3970   -6.9610 ca        1 XYW     -0.114000
     25 C25         6.6080    3.7660   -6.9940 ca        1 XYW     -0.173000
     26 C26         5.7520    4.6200   -7.7230 ca        1 XYW      0.157600
     27 N27         5.9650    6.0080   -7.7820 nu        1 XYW     -0.774500
     28 S28         7.3250    6.8510   -7.4980 sy        1 XYW      1.516200
     29 O29         6.9680    8.2070   -7.3970 o         1 XYW     -0.635800
     30 O30         8.0750    6.3170   -6.4400 o         1 XYW     -0.635800
     31 C31         8.2050    6.6390   -8.9530 ca        1 XYW     -0.436500
     32 C32         7.6800    7.0750  -10.1950 ca        1 XYW      0.261400
     33 F33         6.4360    7.6070  -10.2420 f         1 XYW     -0.113900
     34 C34         8.4050    6.9720  -11.3940 ca        1 XYW     -0.207500
     35 C35         9.6800    6.4150  -11.3760 ca        1 XYW     -0.022000
     36 C36        10.2320    5.9590  -10.1870 ca        1 XYW     -0.207500
     37 C37         9.4990    6.0680   -8.9880 ca        1 XYW      0.261400
     38 F38        10.0680    5.6090   -7.8540 f         1 XYW     -0.113900
     39 C39         4.6460    4.0580   -8.4010 ca        1 XYW     -0.141000
     40 N40         1.7730    1.3240  -12.2240 nh        1 XYW     -0.709300
     41 C41         0.9620    0.1450  -12.5090 c3        1 XYW      0.148300
     42 C42         0.4670    0.1310  -13.9620 c3        1 XYW      0.122400
     43 O43         1.5390    0.2950  -14.8790 os        1 XYW     -0.408600
     44 C44         2.2590    1.5010  -14.6500 c3        1 XYW      0.122400
     45 C45         2.8090    1.5770  -13.2190 c3        1 XYW      0.148300
     46 C46         2.0810    1.3100   -1.6640 ca        1 XYW      0.002000
     47 H11C       -0.7380    1.8680   -0.9350 h1        1 XYW      0.115367
     48 H12C       -0.5960    2.8260    0.5720 h1        1 XYW      0.115367
     49 H13C       -1.5460    1.3090    0.5600 h1        1 XYW      0.115367
     50 H6          2.6410    2.8830    1.3140 ha        1 XYW      0.161000
     51 H46         1.4460    0.5110   -2.0900 ha        1 XYW      0.172000
     52 H7          4.3760    4.0220   -0.0740 ha        1 XYW      0.146000
     53 H8          4.6380    3.4560   -2.4700 ha        1 XYW      0.143000
     54 H10         4.1780    1.7580   -4.1500 hn        1 XYW      0.442800
     55 H13        -1.0580    1.8570   -5.0030 h4        1 XYW      0.029100
     56 H14        -0.4650    1.8110   -7.4780 ha        1 XYW      0.157000
     57 H23         5.0730    0.7640   -7.5770 ha        1 XYW      0.148000
     58 H39         3.9630    4.6970   -8.9820 ha        1 XYW      0.141000
     59 H24         7.0450    1.7420   -6.3980 ha        1 XYW      0.138000
     60 H25         7.4760    4.1670   -6.4400 ha        1 XYW      0.169000
     61 H27         5.1680    6.5040   -8.1230 hn        1 XYW      0.459800
     62 H34         7.9560    7.3320  -12.3310 ha        1 XYW      0.162500
     63 H35        10.2530    6.3320  -12.3140 ha        1 XYW      0.150000
     64 H36        11.2370    5.5120  -10.1620 ha        1 XYW      0.162500
     65 H411        0.0670    0.1540  -11.8240 h1        1 XYW      0.061450
     66 H412        1.5470   -0.8010  -12.3200 h1        1 XYW      0.061450
     67 H451        3.2200    2.6110  -13.0490 h1        1 XYW      0.061450
     68 H452        3.6550    0.8390  -13.1130 h1        1 XYW      0.061450
     69 H421       -0.3010    0.9330  -14.1270 h1        1 XYW      0.061200
     70 H422        0.0360   -0.8750  -14.2060 h1        1 XYW      0.061200
     71 H441        1.5990    2.3810  -14.8690 h1        1 XYW      0.061200
     72 H442        3.1090    1.4630  -15.3810 h1        1 XYW      0.061200
@<TRIPOS>BOND
     1    1    2 1   
     2    1   47 1   
     3    1   48 1   
     4    1   49 1   
     5    2    3 2   
     6    2    4 2   
     7    2    5 1   
     8    5    6 ar  
     9    5   46 ar  
    10    6    7 ar  
    11    6   50 1   
    12    7    8 ar  
    13    7   52 1   
    14    8    9 ar  
    15    8   53 1   
    16    9   10 1   
    17    9   46 ar  
    18   10   11 1   
    19   10   54 1   
    20   11   12 ar  
    21   11   16 ar  
    22   12   13 ar  
    23   13   14 ar  
    24   13   55 1   
    25   14   15 ar  
    26   14   56 1   
    27   15   16 ar  
    28   15   17 1   
    29   17   18 1   
    30   17   21 2   
    31   18   19 1   
    32   19   20 2   
    33   19   40 1   
    34   20   21 1   
    35   21   22 1   
    36   22   23 ar  
    37   22   39 ar  
    38   23   24 ar  
    39   23   57 1   
    40   24   25 ar  
    41   24   59 1   
    42   25   26 ar  
    43   25   60 1   
    44   26   27 1   
    45   26   39 ar  
    46   27   28 1   
    47   27   61 1   
    48   28   29 2   
    49   28   30 2   
    50   28   31 1   
    51   31   32 ar  
    52   31   37 ar  
    53   32   33 1   
    54   32   34 ar  
    55   34   35 ar  
    56   34   62 1   
    57   35   36 ar  
    58   35   63 1   
    59   36   37 ar  
    60   36   64 1   
    61   37   38 1   
    62   39   58 1   
    63   40   41 1   
    64   40   45 1   
    65   41   42 1   
    66   41   65 1   
    67   41   66 1   
    68   42   43 1   
    69   42   69 1   
    70   42   70 1   
    71   43   44 1   
    72   44   45 1   
    73   44   71 1   
    74   44   72 1   
    75   45   67 1   
    76   45   68 1   
    77   46   51 1   
@<TRIPOS>SUBSTRUCTURE
     1 XYW         1 TEMP              0 ****  ****    0 ROOT
