@<TRIPOS>MOLECULE
XYZ
   20    20     1     0     0
SMALL
bcc


@<TRIPOS>ATOM
      1 C4          0.9550   -0.3190    0.6260 c3        1 XYZ      0.097100
      2 O           0.3680    0.9680    0.8820 os        1 XYZ     -0.446600
      3 C1         -0.9890    1.0170    0.4630 c3        1 XYZ      0.305900
      4 C2         -1.4160   -0.3960   -0.0010 c3        1 XYZ      0.047100
      5 O2         -2.4620   -0.9170    0.7920 oh        1 XYZ     -0.587800
      6 C3         -0.1730   -1.2880    0.2250 c3        1 XYZ      0.122100
      7 O3          0.1900   -1.9620   -0.9630 oh        1 XYZ     -0.590800
      8 C5          2.0340   -0.1540   -0.4440 c3        1 XYZ      0.129400
      9 O5          3.0930    0.6520    0.0250 oh        1 XYZ     -0.595800
     10 O1         -1.0240    1.9620   -0.5700 oh        1 XYZ     -0.605800
     11 H4          1.4240   -0.6310    1.5990 h1        1 XYZ      0.088700
     12 H1         -1.6130    1.4270    1.3020 h2        1 XYZ      0.109700
     13 H2         -1.7120   -0.3800   -1.0850 h1        1 XYZ      0.071700
     14 HO2        -3.2280   -0.3450    0.6570 ho        1 XYZ      0.415000
     15 H3         -0.3730   -2.0250    1.0500 h1        1 XYZ      0.077700
     16 HO3        -0.4730   -2.6490   -1.1030 ho        1 XYZ      0.416000
     17 H51         1.5850    0.2900   -1.3720 h1        1 XYZ      0.058700
     18 H52         2.4950   -1.1480   -0.6850 h1        1 XYZ      0.058700
     19 H5          2.7070    1.4870    0.3220 ho        1 XYZ      0.411000
     20 HO1        -0.2880    1.7850   -1.1710 ho        1 XYZ      0.418000
@<TRIPOS>BOND
     1    1    2 1   
     2    1    6 1   
     3    1    8 1   
     4    1   11 1   
     5    2    3 1   
     6    3    4 1   
     7    3   10 1   
     8    3   12 1   
     9    4    5 1   
    10    4    6 1   
    11    4   13 1   
    12    5   14 1   
    13    6    7 1   
    14    6   15 1   
    15    7   16 1   
    16    8    9 1   
    17    8   17 1   
    18    8   18 1   
    19    9   19 1   
    20   10   20 1   
@<TRIPOS>SUBSTRUCTURE
     1 XYZ         1 TEMP              0 ****  ****    0 ROOT
