@<TRIPOS>MOLECULE
XYZ
   20    20     1     0     0
SMALL
bcc


@<TRIPOS>ATOM
      1 C4         -0.2560   -0.0760   -0.0010 c3        1 XYZ      0.097100
      2 O           1.0160   -0.7120    0.2130 os        1 XYZ     -0.446600
      3 C1          1.6650   -0.2070    1.3720 c3        1 XYZ      0.305900
      4 C2          0.7040    0.7650    2.0950 c3        1 XYZ      0.047100
      5 O2          0.3750    0.3130    3.3930 oh        1 XYZ     -0.587800
      6 C3         -0.5950    0.7480    1.2560 c3        1 XYZ      0.122100
      7 O3         -0.9650    2.0560    0.8690 oh        1 XYZ     -0.590800
      8 C5         -0.1710    0.7570   -1.2800 c3        1 XYZ      0.129400
      9 O5          0.0280   -0.0670   -2.4080 oh        1 XYZ     -0.595800
     10 O1          2.8250    0.4240    0.9030 oh        1 XYZ     -0.605800
     11 H4         -0.9890   -0.9170   -0.1370 h1        1 XYZ      0.088700
     12 H1          1.9990   -1.0720    2.0060 h2        1 XYZ      0.109700
     13 H2          1.1460    1.7960    2.1370 h1        1 XYZ      0.071700
     14 HO2         1.1940    0.3110    3.9050 ho        1 XYZ      0.415000
     15 H3         -1.4240    0.2600    1.8370 h1        1 XYZ      0.077700
     16 HO3        -1.2980    2.4940    1.6630 ho        1 XYZ      0.416000
     17 H51        -1.1430    1.2860   -1.4610 h1        1 XYZ      0.058700
     18 H52         0.6590    1.5070   -1.1910 h1        1 XYZ      0.058700
     19 H5          0.8160   -0.6000   -2.2370 ho        1 XYZ      0.411000
     20 HO1         2.5860    0.9750    0.1440 ho        1 XYZ      0.418000
@<TRIPOS>BOND
     1    1    2 1   
     2    1    6 1   
     3    1    8 1   
     4    1   11 1   
     5    2    3 1   
     6    3    4 1   
     7    3   10 1   
     8    3   12 1   
     9    4    5 1   
    10    4    6 1   
    11    4   13 1   
    12    5   14 1   
    13    6    7 1   
    14    6   15 1   
    15    7   16 1   
    16    8    9 1   
    17    8   17 1   
    18    8   18 1   
    19    9   19 1   
    20   10   20 1   
@<TRIPOS>SUBSTRUCTURE
     1 XYZ         1 TEMP              0 ****  ****    0 ROOT
