@<TRIPOS>MOLECULE
XYZ
   20    20     1     0     0
SMALL
bcc


@<TRIPOS>ATOM
      1 C4         -0.2710   -0.3680   -0.7720 c3        1 XYZ      0.097100
      2 O           1.0310   -0.3680   -0.7720 os        1 XYZ     -0.446600
      3 C1          1.4320   -0.3680    0.7240 c3        1 XYZ      0.305900
      4 C2          0.0870   -0.3680    1.5260 c3        1 XYZ      0.047100
      5 O2         -0.2340   -1.7340    1.9880 oh        1 XYZ     -0.587800
      6 C3         -0.7280    0.3420    0.6190 c3        1 XYZ      0.122100
      7 O3         -0.6760    1.7880    0.4830 oh        1 XYZ     -0.590800
      8 C5         -0.7850    0.4130   -1.9410 c3        1 XYZ      0.129400
      9 O5         -0.4230   -0.2390   -3.1380 oh        1 XYZ     -0.595800
     10 O1          2.3130    0.5320    0.9470 oh        1 XYZ     -0.605800
     11 H4         -0.6060   -1.2840   -0.8070 h1        1 XYZ      0.088700
     12 H1          1.8620   -1.2250    0.9020 h2        1 XYZ      0.109700
     13 H2          0.2070    0.1910    2.3180 h1        1 XYZ      0.071700
     14 HO2        -0.4560   -1.7120    2.8470 ho        1 XYZ      0.415000
     15 H3         -1.6560    0.0950    0.7950 h1        1 XYZ      0.077700
     16 HO3        -1.2860    2.1570    1.0100 ho        1 XYZ      0.416000
     17 H51        -0.3990    1.3100   -1.9290 h1        1 XYZ      0.058700
     18 H52        -1.7580    0.4770   -1.8870 h1        1 XYZ      0.058700
     19 H5         -0.7770    0.1920   -3.8290 ho        1 XYZ      0.411000
     20 HO1         3.1220    0.1680    0.9170 ho        1 XYZ      0.418000
@<TRIPOS>BOND
     1    1    2 1   
     2    1    6 1   
     3    1    8 1   
     4    1   11 1   
     5    2    3 1   
     6    3    4 1   
     7    3   10 1   
     8    3   12 1   
     9    4    5 1   
    10    4    6 1   
    11    4   13 1   
    12    5   14 1   
    13    6    7 1   
    14    6   15 1   
    15    7   16 1   
    16    8    9 1   
    17    8   17 1   
    18    8   18 1   
    19    9   19 1   
    20   10   20 1   
@<TRIPOS>SUBSTRUCTURE
     1 XYZ         1 TEMP              0 ****  ****    0 ROOT
