@<TRIPOS>MOLECULE
XZ2
   44    45     1     0     0
SMALL
bcc


@<TRIPOS>ATOM
      1 CL         -0.2720   -0.0550    0.7380 cl        1 XZ2     -0.054400
      2 CAA        -0.5630    6.0510    4.0930 c3        1 XZ2      0.089600
      3 CAB         0.1000    3.9170    3.1550 c3        1 XZ2      0.089600
      4 OAC         6.2570    1.3660    4.0700 o         1 XZ2     -0.533500
      5 OAD         0.5550    3.2810    6.0260 o         1 XZ2     -0.446400
      6 OAE         0.8390    5.5900    6.6060 o         1 XZ2     -0.446400
      7 OAF         5.7580    6.6100    5.4590 oh        1 XZ2     -0.496100
      8 OAG         6.8880    4.2570    4.6710 oh        1 XZ2     -0.400100
      9 FAH         1.8630    0.3220   -1.3560 f         1 XZ2     -0.110900
     10 CAJ         3.6910    0.2160    0.1660 ca        1 XZ2     -0.156000
     11 CAK         4.1650    0.0820    1.4640 ca        1 XZ2     -0.083000
     12 CAL         3.5780    5.5480    5.6760 ca        1 XZ2     -0.065000
     13 CAM         1.9010   -0.1420    2.2860 ca        1 XZ2     -0.106000
     14 CAN         3.7990   -0.2610    3.9260 c3        1 XZ2      0.129300
     15 CAO         2.8590    1.8010    4.9980 c3        1 XZ2      0.080300
     16 CAP         5.1610    1.7660    4.4600 c         1 XZ2      0.712100
     17 CAQ         4.9220    5.5220    5.3930 ca        1 XZ2      0.030100
     18 CAR         2.3040    0.1800   -0.0880 ca        1 XZ2      0.154900
     19 CAS         5.5820    4.3110    4.9650 ca        1 XZ2      0.332100
     20 CAT         3.2740   -0.0940    2.5290 ca        1 XZ2     -0.155300
     21 CAU         1.4040    0.0000    0.9870 ca        1 XZ2     -0.037600
     22 CAV         3.4170    3.2030    5.1630 ca        1 XZ2      0.116700
     23 CAW         2.7590    4.3750    5.5700 ca        1 XZ2     -0.598500
     24 CAX         4.7900    3.1650    4.8620 ca        1 XZ2     -0.229600
     25 NAY         0.5180    5.0820    3.9290 n3        1 XZ2     -0.917200
     26 NAZ         4.0070    0.9630    4.6610 n         1 XZ2     -0.442800
     27 HAA        -0.2160    6.8780    4.7690 h1        1 XZ2      0.084033
     28 HAAA       -1.4520    5.5450    4.5570 h1        1 XZ2      0.084033
     29 HAAB       -0.8810    6.4920    3.1100 h1        1 XZ2      0.084033
     30 HAB        -0.6110    3.3010    3.7710 h1        1 XZ2      0.084033
     31 HABA        1.0000    3.2970    2.8960 h1        1 XZ2      0.084033
     32 HABB       -0.4160    4.2100    2.2010 h1        1 XZ2      0.084033
     33 HOAF        5.3040    7.3350    5.9180 ho        1 XZ2      0.459000
     34 HOAG        7.3040    5.1330    4.8160 ho        1 XZ2      0.482000
     35 HAJ         5.2520    0.1090    1.6570 ha        1 XZ2      0.163000
     36 HAK         4.3860    0.3410   -0.6790 ha        1 XZ2      0.169000
     37 HAL         3.1070    6.4900    6.0160 ha        1 XZ2      0.173000
     38 HAM         1.2000   -0.3170    3.1180 ha        1 XZ2      0.149000
     39 HAN         3.0810   -0.8910    4.5270 h1        1 XZ2      0.092200
     40 HANA        4.7970   -0.7920    3.8900 h1        1 XZ2      0.092200
     41 HAO         2.0660    1.7730    4.1960 h1        1 XZ2      0.098700
     42 HAOA        2.4010    1.4380    5.9630 h1        1 XZ2      0.098700
     43 HAY1        1.2920    5.5310    3.4580 hn        1 XZ2      0.403800
     44 SBA         1.2420    4.4580    5.9580 s4        1 XZ2      1.661300
@<TRIPOS>BOND
     1    1   21 1   
     2    2   25 1   
     3    2   27 1   
     4    2   28 1   
     5    2   29 1   
     6    3   25 1   
     7    3   30 1   
     8    3   31 1   
     9    3   32 1   
    10    4   16 2   
    11    5   44 1   
    12    6   44 1   
    13    7   17 1   
    14    7   33 1   
    15    8   19 1   
    16    8   34 1   
    17    9   18 1   
    18   10   11 ar  
    19   10   18 ar  
    20   10   36 1   
    21   11   20 ar  
    22   11   35 1   
    23   12   17 ar  
    24   12   23 ar  
    25   12   37 1   
    26   13   20 ar  
    27   13   21 ar  
    28   13   38 1   
    29   14   20 1   
    30   14   26 1   
    31   14   39 1   
    32   14   40 1   
    33   15   22 1   
    34   15   26 1   
    35   15   41 1   
    36   15   42 1   
    37   16   24 1   
    38   16   26 1   
    39   17   19 ar  
    40   18   21 ar  
    41   19   24 ar  
    42   22   23 ar  
    43   22   24 ar  
    44   23   44 1   
    45   25   43 1   
@<TRIPOS>SUBSTRUCTURE
     1 XZ2         1 TEMP              0 ****  ****    0 ROOT
