@<TRIPOS>MOLECULE
XZ2
   43    45     1     0     0
SMALL
bcc


@<TRIPOS>ATOM
      1 CL         -5.2530   -1.8730   -0.6130 cl        1 XZ2     -0.065400
      2 CAA         2.8800   -3.2820    1.8440 c3        1 XZ2      0.205600
      3 CAB         0.6450   -3.1350    0.9250 c3        1 XZ2      0.205600
      4 OAC        -0.0710    3.5320   -0.8270 o         1 XZ2     -0.640500
      5 OAD         1.7850   -2.3570   -1.6690 o         1 XZ2     -0.650300
      6 OAE         3.9980   -2.4490   -0.7230 o         1 XZ2     -0.650300
      7 OAF         4.4780    1.9020    1.8410 oh        1 XZ2     -0.487100
      8 OAG         2.4760    3.6020    0.9010 oh        1 XZ2     -0.501100
      9 FAH        -5.7450    0.2670    1.4520 f         1 XZ2     -0.123900
     10 CAJ        -4.0530    1.7400    0.6540 ca        1 XZ2     -0.160000
     11 CAK        -3.0400    2.0260   -0.2510 ca        1 XZ2     -0.089000
     12 CAL         3.5070    0.0940    0.6650 ca        1 XZ2     -0.020000
     13 CAM        -3.4090   -0.0930   -1.3600 ca        1 XZ2     -0.093000
     14 CAN        -1.6370    1.4550   -2.2550 c3        1 XZ2      0.144300
     15 CAO         0.3530    0.0700   -1.5600 c3        1 XZ2      0.108300
     16 CAP         0.3010    2.3540   -0.9510 c         1 XZ2      0.720100
     17 CAQ         3.4800    1.4420    1.0130 ca        1 XZ2      0.073100
     18 CAR        -4.7620    0.5250    0.5600 ca        1 XZ2      0.141900
     19 CAS         2.4450    2.2910    0.5250 ca        1 XZ2      0.191100
     20 CAT        -2.7150    1.1130   -1.2620 ca        1 XZ2     -0.138300
     21 CAU        -4.4330   -0.3970   -0.4570 ca        1 XZ2     -0.029600
     22 CAV         1.5220    0.3510   -0.6360 ca        1 XZ2      0.052700
     23 CAW         2.5200   -0.4830   -0.1630 ca        1 XZ2     -0.360500
     24 CAX         1.4820    1.7270   -0.2970 ca        1 XZ2     -0.258600
     25 NAY         2.0430   -2.8760    0.7540 n3        1 XZ2     -0.815500
     26 NAZ        -0.2920    1.3710   -1.7660 n         1 XZ2     -0.454800
     27 HAA         2.7500   -4.3800    2.0470 h1        1 XZ2      0.047200
     28 HAAA        3.9590   -3.0910    1.5900 h1        1 XZ2      0.047200
     29 HAAB        2.6170   -2.7180    2.7800 h1        1 XZ2      0.047200
     30 HAB         0.2340   -2.5500    1.7910 h1        1 XZ2      0.047200
     31 HABA        0.0870   -2.8510   -0.0090 h1        1 XZ2      0.047200
     32 HABB        0.4720   -4.2280    1.1250 h1        1 XZ2      0.047200
     33 HOAF        4.3700    2.8620    1.9360 ho        1 XZ2      0.441000
     34 HOAG        1.7230    4.0610    0.4800 ho        1 XZ2      0.472000
     35 HAJ        -4.3170    2.4530    1.4500 ha        1 XZ2      0.157000
     36 HAK        -2.4820    2.9760   -0.1790 ha        1 XZ2      0.163000
     37 HAL         4.3380   -0.5320    1.0380 ha        1 XZ2      0.171000
     38 HAM        -3.1550   -0.8130   -2.1560 ha        1 XZ2      0.153000
     39 HAN        -1.7160    0.7670   -3.1460 h1        1 XZ2      0.077200
     40 HANA       -1.7990    2.5180   -2.6040 h1        1 XZ2      0.077200
     41 HAO         0.7120   -0.3400   -2.5470 h1        1 XZ2      0.094700
     42 HAOA       -0.3550   -0.6750   -1.1020 h1        1 XZ2      0.094700
     43 SBA         2.6350   -2.1290   -0.5610 sy        1 XZ2      1.511200
@<TRIPOS>BOND
     1    1   21 1   
     2    2   25 1   
     3    2   27 1   
     4    2   28 1   
     5    2   29 1   
     6    3   25 1   
     7    3   30 1   
     8    3   31 1   
     9    3   32 1   
    10    4   16 2   
    11    5   43 2   
    12    6   43 2   
    13    7   17 1   
    14    7   33 1   
    15    8   19 1   
    16    8   34 1   
    17    9   18 1   
    18   10   11 ar  
    19   10   18 ar  
    20   10   35 1   
    21   11   20 ar  
    22   11   36 1   
    23   12   17 ar  
    24   12   23 ar  
    25   12   37 1   
    26   13   20 ar  
    27   13   21 ar  
    28   13   38 1   
    29   14   20 1   
    30   14   26 1   
    31   14   39 1   
    32   14   40 1   
    33   15   22 1   
    34   15   26 1   
    35   15   41 1   
    36   15   42 1   
    37   16   24 1   
    38   16   26 1   
    39   17   19 ar  
    40   18   21 ar  
    41   19   24 ar  
    42   22   23 ar  
    43   22   24 ar  
    44   23   43 1   
    45   25   43 1   
@<TRIPOS>SUBSTRUCTURE
     1 XZ2         1 TEMP              0 ****  ****    0 ROOT
