@<TRIPOS>MOLECULE
XZ2
   44    46     1     0     0
SMALL
bcc


@<TRIPOS>ATOM
      1 CL          0.4940   -0.9400    0.3090 cl        1 XZ2      0.029000
      2 CAA         0.0470    6.7860    5.1650 c3        1 XZ2     -0.198000
      3 CAB        -1.2090    5.1410    3.8810 c3        1 XZ2     -0.198000
      4 OAC         6.3270    1.5190    4.2210 o         1 XZ2     -0.265000
      5 OAD         0.1430    3.0060    5.0870 o         1 XZ2     -0.865000
      6 OAE         0.5470    4.6010    6.8050 o         1 XZ2     -0.865000
      7 OAF         4.9770    6.6970    5.3130 oh        1 XZ2     -0.303000
      8 OAG         6.5110    4.5130    4.7670 oh        1 XZ2     -0.122000
      9 FAH         2.8420   -0.5330   -1.5370 f         1 XZ2     -0.076000
     10 CAJ         4.4550   -0.3050    0.1980 ca        1 XZ2     -0.157000
     11 CAK         4.7650   -0.2690    1.5510 ca        1 XZ2     -0.084000
     12 CAL         2.9070    5.4340    5.0270 c1        1 XZ2     -0.148000
     13 CAM         2.4430   -0.6530    2.1100 ca        1 XZ2     -0.102000
     14 CAN         4.1140   -0.4260    3.9720 c3        1 XZ2      0.006000
     15 CAO         2.8150    1.5800    4.7280 c3        1 XZ2     -0.063000
     16 CAP         5.1490    1.7980    4.4430 c2        1 XZ2      0.351000
     17 CAQ         4.3090    5.6460    4.6490 c3        1 XZ2     -0.009000
     18 CAR         3.1230   -0.5100   -0.2170 ca        1 XZ2      0.121000
     19 CAS         5.1930    4.4120    4.7010 c2        1 XZ2      0.280000
     20 CAT         3.7620   -0.4400    2.5120 ca        1 XZ2     -0.151000
     21 CAU         2.1100   -0.6850    0.7530 ca        1 XZ2     -0.110000
     22 CAV         3.1730    3.0460    4.8050 c2        1 XZ2      0.239000
     23 CAW         2.3480    4.1630    5.0670 c2        1 XZ2     -1.052000
     24 CAX         4.5660    3.1680    4.6320 c2        1 XZ2     -0.303000
     25 NAY         0.1090    5.5110    4.4230 n4        1 XZ2     -0.409000
     26 NAZ         4.0870    0.8700    4.6070 n         1 XZ2     -0.298000
     27 HAA         1.0930    7.0630    5.4810 hx        1 XZ2      0.144500
     28 HAAA       -0.3800    7.5990    4.5210 hx        1 XZ2      0.144500
     29 HAAB       -0.6000    6.6590    6.0760 hx        1 XZ2      0.144500
     30 HAB        -1.9460    5.0490    4.7240 hx        1 XZ2      0.144500
     31 HABA       -1.5780    5.9220    3.1640 hx        1 XZ2      0.144500
     32 HABB       -1.1320    4.1540    3.3470 hx        1 XZ2      0.144500
     33 HOAF        4.4180    7.0050    6.0430 ho        1 XZ2      0.259000
     34 HOAG        6.7760    5.4560    4.8810 ho        1 XZ2      0.295000
     35 HAJ         5.8090   -0.1110    1.8710 ha        1 XZ2      0.160000
     36 HAK         5.2400   -0.1840   -0.5650 ha        1 XZ2      0.167000
     37 HAL         4.2770    5.9450    3.5400 h1        1 XZ2      0.189000
     38 HAM         1.6550   -0.8180    2.8640 ha        1 XZ2      0.150000
     39 HAN         3.3970   -1.0870    4.5400 h1        1 XZ2      0.131000
     40 HANA        5.1600   -0.8320    4.1100 h1        1 XZ2      0.131000
     41 HAO         2.1270    1.3860    3.8510 h1        1 XZ2      0.155500
     42 HAOA        2.2870    1.2430    5.6670 h1        1 XZ2      0.155500
     43 HAY1        0.7520    5.6490    3.6410 hn        1 XZ2      0.238000
     44 SBA         0.8080    4.1330    5.5380 s6        1 XZ2      2.853000
@<TRIPOS>BOND
     1    1   21 1   
     2    2   25 1   
     3    2   27 1   
     4    2   28 1   
     5    2   29 1   
     6    3   25 1   
     7    3   30 1   
     8    3   31 1   
     9    3   32 1   
    10    4   16 1   
    11    5   44 1   
    12    6   44 1   
    13    7   17 1   
    14    7   33 1   
    15    8   19 1   
    16    8   34 1   
    17    9   18 1   
    18   10   11 1   
    19   10   18 1   
    20   10   36 1   
    21   11   20 1   
    22   11   35 1   
    23   12   17 1   
    24   12   23 1   
    25   13   20 1   
    26   13   21 1   
    27   13   38 1   
    28   14   20 1   
    29   14   26 1   
    30   14   39 1   
    31   14   40 1   
    32   15   22 1   
    33   15   26 1   
    34   15   41 1   
    35   15   42 1   
    36   16   24 1   
    37   16   26 1   
    38   17   19 1   
    39   17   37 1   
    40   18   21 1   
    41   19   24 1   
    42   22   23 1   
    43   22   24 1   
    44   23   44 1   
    45   25   43 1   
    46   25   44 1   
@<TRIPOS>SUBSTRUCTURE
     1 XZ2         1 TEMP              0 ****  ****    0 ROOT
