@<TRIPOS>MOLECULE
XZ2
   44    45     1     0     0
SMALL
bcc


@<TRIPOS>ATOM
      1 Cl          0.6550   -1.5910    0.6250 cl        1 XZ2      0.028000
      2 CAA        -0.2390    8.1600    4.1100 c3        1 XZ2     -0.287000
      3 CAB        -1.3270    4.8760    4.3460 c2        1 XZ2      0.136000
      4 OAC         6.4210    1.7170    3.9670 o         1 XZ2     -0.267000
      5 OAD         0.0970    2.4740    5.2770 o         1 XZ2     -0.874000
      6 OAE         0.5780    3.9400    7.0850 o         1 XZ2     -0.874000
      7 OAF         4.4870    6.6900    5.1440 oh        1 XZ2     -0.302000
      8 OAG         6.2450    4.7210    4.4620 oh        1 XZ2     -0.126000
      9 FAH         2.7450   -0.8870   -1.4290 f         1 XZ2     -0.077000
     10 CAJ         4.4580   -0.4040    0.1520 ca        1 XZ2     -0.157000
     11 CAK         4.8800   -0.3030    1.4710 ca        1 XZ2     -0.084000
     12 CAL         2.5910    5.1520    5.0610 c1        1 XZ2     -0.157000
     13 CAM         2.6960   -1.0020    2.2410 ca        1 XZ2     -0.101000
     14 CAN         4.4790   -0.5110    3.9410 c3        1 XZ2      0.006000
     15 CAO         2.9950    1.3150    4.8050 c3        1 XZ2     -0.064000
     16 CAP         5.2420    1.8410    4.2970 c2        1 XZ2      0.351000
     17 CAQ         3.9100    5.5450    4.5530 c3        1 XZ2     -0.007000
     18 CAR         3.1380   -0.8020   -0.1390 ca        1 XZ2      0.120000
     19 CAS         4.9520    4.4400    4.5280 c2        1 XZ2      0.275000
     20 CAT         4.0020   -0.5980    2.5200 ca        1 XZ2     -0.150000
     21 CAU         2.2510   -1.1030    0.9190 ca        1 XZ2     -0.110000
     22 CAV         3.1550    2.8180    4.8330 c2        1 XZ2      0.244000
     23 CAW         2.2160    3.8180    5.1570 c2        1 XZ2     -1.033000
     24 CAX         4.4970    3.1230    4.5290 c2        1 XZ2     -0.303000
     25 NAY        -0.1580    4.9470    4.8870 n7        1 XZ2     -0.540000
     26 NAZ         4.3350    0.7810    4.5680 n         1 XZ2     -0.298000
     27 HAA         0.7500    8.0560    4.6090 hc        1 XZ2      0.073000
     28 HAAA       -0.3780    9.2200    3.8000 hc        1 XZ2      0.073000
     29 HAAB       -0.2790    7.5110    3.2080 hc        1 XZ2      0.073000
     30 HAB        -1.0510    7.8800    4.8160 hc        1 XZ2      0.073000
     31 HABA       -1.8080    5.7500    3.8500 h4        1 XZ2      0.197500
     32 HABB       -1.8910    3.9120    4.3600 h4        1 XZ2      0.197500
     33 HOAF        3.9900    6.9040    5.9490 ho        1 XZ2      0.257000
     34 HOAG        6.3860    5.6930    4.5440 ho        1 XZ2      0.293000
     35 HAJ         5.9160    0.0070    1.6940 ha        1 XZ2      0.160000
     36 HAK         5.1470   -0.1850   -0.6800 ha        1 XZ2      0.167000
     37 HAL         3.7360    5.8180    3.4510 h1        1 XZ2      0.191000
     38 HAM         2.0100   -1.2630    3.0630 ha        1 XZ2      0.149000
     39 HAN         3.9110   -1.2520    4.5760 h1        1 XZ2      0.130500
     40 HANA        5.5780   -0.7710    3.9850 h1        1 XZ2      0.130500
     41 HAO         2.2610    1.0100    4.0010 h1        1 XZ2      0.154500
     42 HAOA        2.6140    0.9320    5.7950 h1        1 XZ2      0.154500
     43 HAY1        0.3520    5.8300    4.8600 hn        1 XZ2      0.298000
     44 SBA         0.7260    3.6170    5.7530 s6        1 XZ2      2.879000
@<TRIPOS>BOND
     1    1   21 1   
     2    2   27 1   
     3    2   28 1   
     4    2   29 1   
     5    2   30 1   
     6    3   25 1   
     7    3   31 1   
     8    3   32 1   
     9    4   16 1   
    10    5   44 1   
    11    6   44 1   
    12    7   17 1   
    13    7   33 1   
    14    8   19 1   
    15    8   34 1   
    16    9   18 1   
    17   10   11 1   
    18   10   18 1   
    19   10   36 1   
    20   11   20 1   
    21   11   35 1   
    22   12   17 1   
    23   12   23 1   
    24   13   20 1   
    25   13   21 1   
    26   13   38 1   
    27   14   20 1   
    28   14   26 1   
    29   14   39 1   
    30   14   40 1   
    31   15   22 1   
    32   15   26 1   
    33   15   41 1   
    34   15   42 1   
    35   16   24 1   
    36   16   26 1   
    37   17   19 1   
    38   17   37 1   
    39   18   21 1   
    40   19   24 1   
    41   22   23 1   
    42   22   24 1   
    43   23   44 1   
    44   25   43 1   
    45   25   44 1   
@<TRIPOS>SUBSTRUCTURE
     1 XZ2         1 TEMP              0 ****  ****    0 ROOT
