@<TRIPOS>MOLECULE
XZ8
   32    34     1     0     0
SMALL
bcc


@<TRIPOS>ATOM
      1 C01         0.0780    0.5700   -0.0750 c3        1 XZ8     -0.174100
      2 C02         1.5580    0.3070    0.0300 c         1 XZ8      0.678100
      3 O03         2.1260    0.1960    1.1270 o         1 XZ8     -0.554100
      4 N04         2.2880    0.1920   -1.1620 n         1 XZ8     -0.256200
      5 C05         1.7560    0.3050   -2.4640 cc        1 XZ8     -0.081400
      6 C06         2.7500    0.1100   -3.4210 cd        1 XZ8     -0.029200
      7 C07         2.5580    0.1890   -4.8290 cd        1 XZ8     -0.159200
      8 C08         1.6430    0.9560   -5.5240 cc        1 XZ8      0.065800
      9 C09         0.6750    1.9350   -4.9970 c3        1 XZ8     -0.055900
     10 N10         1.6840    0.6450   -6.9360 na        1 XZ8     -0.479000
     11 N11         2.8050   -0.1590   -7.1500 ns        1 XZ8     -0.387300
     12 C12         3.3040   -0.6080   -5.8560 c         1 XZ8      0.662700
     13 O13         4.1870   -1.4590   -5.7420 o         1 XZ8     -0.572500
     14 C14         3.9910   -0.1510   -2.6990 ca        1 XZ8     -0.077800
     15 C15         5.2990   -0.4180   -3.0920 ca        1 XZ8     -0.074000
     16 C16         6.2690   -0.6090   -2.1130 ca        1 XZ8     -0.149000
     17 C17         5.9510   -0.5400   -0.7500 ca        1 XZ8     -0.113000
     18 C18         4.6550   -0.2810   -0.3170 ca        1 XZ8     -0.126000
     19 C19         3.6710   -0.0870   -1.2920 ca        1 XZ8      0.010600
     20 H1         -0.4280   -0.2580   -0.6290 hc        1 XZ8      0.073033
     21 H2         -0.3460    0.6280    0.9580 hc        1 XZ8      0.073033
     22 H3         -0.1120    1.5370   -0.6010 hc        1 XZ8      0.073033
     23 H4          0.6930    0.5050   -2.6130 h4        1 XZ8      0.165000
     24 H6         -0.3120    1.4350   -4.8210 hc        1 XZ8      0.062367
     25 H7          0.5160    2.7840   -5.7070 hc        1 XZ8      0.062367
     26 H8          1.0480    2.3440   -4.0230 hc        1 XZ8      0.062367
     27 H9          2.5820   -0.9060   -7.7880 hn        1 XZ8      0.306500
     28 H10         5.5510   -0.4950   -4.1610 ha        1 XZ8      0.159000
     29 H11         7.3060   -0.8240   -2.4130 ha        1 XZ8      0.134000
     30 H12         6.7440   -0.6980   -0.0030 ha        1 XZ8      0.133000
     31 H13         4.4050   -0.2320    0.7540 ha        1 XZ8      0.164000
     32 H5          1.7730    1.4840   -7.4960 hn        1 XZ8      0.402800
@<TRIPOS>BOND
     1    1    2 1   
     2    1   20 1   
     3    1   21 1   
     4    1   22 1   
     5    2    3 2   
     6    2    4 1   
     7    4    5 1   
     8    4   19 1   
     9    5    6 2   
    10    5   23 1   
    11    6    7 1   
    12    6   14 1   
    13    7    8 2   
    14    7   12 1   
    15    8    9 1   
    16    8   10 1   
    17    9   24 1   
    18    9   25 1   
    19    9   26 1   
    20   10   11 1   
    21   10   32 1   
    22   11   12 1   
    23   11   27 1   
    24   12   13 2   
    25   14   15 ar  
    26   14   19 ar  
    27   15   16 ar  
    28   15   28 1   
    29   16   17 ar  
    30   16   29 1   
    31   17   18 ar  
    32   17   30 1   
    33   18   19 ar  
    34   18   31 1   
@<TRIPOS>SUBSTRUCTURE
     1 XZ8         1 TEMP              0 ****  ****    0 ROOT
