@<TRIPOS>MOLECULE
XZ8
   32    34     1     0     0
SMALL
bcc


@<TRIPOS>ATOM
      1 C01         0.0120    0.5880   -0.1380 c3        1 XZ8     -0.174100
      2 C02         1.4870    0.3090    0.0020 c         1 XZ8      0.678100
      3 O03         2.0270    0.1890    1.1120 o         1 XZ8     -0.554100
      4 N04         2.2440    0.1900   -1.1730 n         1 XZ8     -0.256200
      5 C05         1.7440    0.3140   -2.4870 cc        1 XZ8     -0.081400
      6 C06         2.7580    0.1110   -3.4210 cd        1 XZ8     -0.029200
      7 C07         2.6010    0.1970   -4.8320 cd        1 XZ8     -0.159200
      8 C08         1.7110    0.9760   -5.5460 cc        1 XZ8      0.065800
      9 C09         0.7430    1.9640   -5.0390 c3        1 XZ8     -0.055900
     10 N10         1.7830    0.6690   -6.9580 na        1 XZ8     -0.479000
     11 N11         2.8990   -0.1470   -7.1470 n         1 XZ8     -0.387300
     12 C12         3.3620   -0.6050   -5.8440 c         1 XZ8      0.662700
     13 O13         4.2320   -1.4660   -5.7120 o         1 XZ8     -0.572500
     14 C14         3.9790   -0.1660   -2.6690 ca        1 XZ8     -0.077800
     15 C15         5.2930   -0.4460   -3.0330 ca        1 XZ8     -0.074000
     16 C16         6.2380   -0.6510   -2.0310 ca        1 XZ8     -0.149000
     17 C17         5.8880   -0.5830   -0.6760 ca        1 XZ8     -0.113000
     18 C18         4.5850   -0.3110   -0.2730 ca        1 XZ8     -0.126000
     19 C19         3.6270   -0.1020   -1.2710 ca        1 XZ8      0.010600
     20 H1         -0.4890   -0.2320   -0.7060 hc        1 XZ8      0.073033
     21 H2         -0.1550    1.5590   -0.6640 hc        1 XZ8      0.073033
     22 H3         -0.4350    0.6470    0.8850 hc        1 XZ8      0.073033
     23 H4          0.6870    0.5260   -2.6600 h4        1 XZ8      0.165000
     24 H6          0.6110    2.8180   -5.7490 hc        1 XZ8      0.062367
     25 H7         -0.2550    1.4760   -4.8890 hc        1 XZ8      0.062367
     26 H8          1.0960    2.3650   -4.0540 hc        1 XZ8      0.062367
     27 H9          2.6830   -0.8890   -7.7930 hn        1 XZ8      0.306500
     28 H10         5.5690   -0.5220   -4.0960 ha        1 XZ8      0.159000
     29 H11         7.2790   -0.8750   -2.3080 ha        1 XZ8      0.134000
     30 H12         6.6610   -0.7510    0.0890 ha        1 XZ8      0.133000
     31 H13         4.3090   -0.2630    0.7910 ha        1 XZ8      0.164000
     32 H5          1.8940    1.5090   -7.5130 hn        1 XZ8      0.402800
@<TRIPOS>BOND
     1    1    2 1   
     2    1   20 1   
     3    1   21 1   
     4    1   22 1   
     5    2    3 2   
     6    2    4 1   
     7    4    5 1   
     8    4   19 1   
     9    5    6 2   
    10    5   23 1   
    11    6    7 1   
    12    6   14 1   
    13    7    8 2   
    14    7   12 1   
    15    8    9 1   
    16    8   10 1   
    17    9   24 1   
    18    9   25 1   
    19    9   26 1   
    20   10   11 1   
    21   10   32 1   
    22   11   12 1   
    23   11   27 1   
    24   12   13 2   
    25   14   15 ar  
    26   14   19 ar  
    27   15   16 ar  
    28   15   28 1   
    29   16   17 ar  
    30   16   29 1   
    31   17   18 ar  
    32   17   30 1   
    33   18   19 ar  
    34   18   31 1   
@<TRIPOS>SUBSTRUCTURE
     1 XZ8         1 TEMP              0 ****  ****    0 ROOT
