@<TRIPOS>MOLECULE
XZB
   53    56     1     0     0
SMALL
bcc


@<TRIPOS>ATOM
      1 C01        -0.2290   -0.5410    0.0410 c3        1 XZB      0.050300
      2 N05         1.2110   -0.4260   -0.0420 n         1 XZB     -0.331000
      3 C06         1.9380   -0.3150    1.1170 cc        1 XZB      0.078600
      4 C08         3.3180   -0.1900    1.1640 cd        1 XZB     -0.114400
      5 C09         4.0150   -0.0960    2.4400 ca        1 XZB     -0.048800
      6 C10         3.6020   -0.8670    3.5390 ca        1 XZB     -0.096000
      7 C12         4.2700   -0.7730    4.7580 ca        1 XZB     -0.117000
      8 C14         5.3630    0.0840    4.9000 ca        1 XZB     -0.069000
      9 C16         5.7780    0.8470    3.8080 ca        1 XZB     -0.154300
     10 C17         5.1110    0.7650    2.5850 ca        1 XZB     -0.097000
     11 C19         6.9830    1.7750    3.9290 c3        1 XZB      0.687200
     12 F20         7.3120    2.1270    5.2120 f         1 XZB     -0.231300
     13 F21         8.1420    1.2460    3.4100 f         1 XZB     -0.231300
     14 F22         6.8400    2.9710    3.2670 f         1 XZB     -0.231300
     15 C23         4.0220   -0.1540   -0.0720 cd        1 XZB      0.020100
     16 S24         5.6420    0.0170   -0.3660 ss        1 XZB      0.239200
     17 C25         5.4710   -0.0760   -2.0430 cd        1 XZB     -0.332000
     18 C26         4.1350   -0.2210   -2.4170 cc        1 XZB     -0.040000
     19 C28         3.2970   -0.2730   -1.2830 cc        1 XZB     -0.223600
     20 C29         1.8460   -0.4230   -1.3110 c         1 XZB      0.727100
     21 O30         1.1820   -0.5430   -2.3550 o         1 XZB     -0.603500
     22 C31         6.6150    0.0400   -2.9300 cf        1 XZB      0.663800
     23 N32         6.3140   -0.5570   -4.3030 nz        1 XZB     -0.873600
     24 N34         7.7220    0.5750   -2.5880 n2        1 XZB     -0.544900
     25 C36         8.9240    0.7210   -3.3750 c3        1 XZB      0.111500
     26 C38         9.8710    1.7290   -2.6830 c3        1 XZB     -0.043900
     27 C41        11.0720    2.0050   -3.5520 c3        1 XZB     -0.324600
     28 S44        12.0720    0.6510   -3.8460 s6        1 XZB      1.336000
     29 O45        12.9750    0.9570   -4.8610 o         1 XZB     -0.624800
     30 O46        12.5360    0.1210   -2.6440 o         1 XZB     -0.624800
     31 C47        10.8650   -0.3970   -4.4940 c3        1 XZB     -0.324600
     32 C50         9.6840   -0.6050   -3.5860 c3        1 XZB     -0.043900
     33 H011       -0.6510    0.3490    0.5790 h1        1 XZB      0.075700
     34 H012       -0.5030   -1.4770    0.5980 h1        1 XZB      0.075700
     35 H013       -0.6650   -0.5880   -0.9940 h1        1 XZB      0.075700
     36 H06         1.3470   -0.3260    2.0560 h4        1 XZB      0.178000
     37 H10         2.7510   -1.5580    3.4360 ha        1 XZB      0.141000
     38 H17         5.4410    1.4000    1.7460 ha        1 XZB      0.144000
     39 H12         3.9380   -1.3790    5.6150 ha        1 XZB      0.157000
     40 H14         5.8930    0.1620    5.8640 ha        1 XZB      0.167000
     41 H26         3.7250   -0.2750   -3.4300 ha        1 XZB      0.162000
     42 H321        5.6640    0.0630   -4.7950 hn        1 XZB      0.460133
     43 H322        7.1600   -0.6770   -4.8640 hn        1 XZB      0.460133
     44 H36         8.6620    1.1490   -4.3930 h1        1 XZB      0.048700
     45 H381        9.3230    2.6870   -2.4820 hc        1 XZB      0.074450
     46 H382       10.2040    1.3170   -1.6920 hc        1 XZB      0.074450
     47 H501       10.0390   -0.9970   -2.5910 hc        1 XZB      0.074450
     48 H502        9.0050   -1.3820   -4.0240 hc        1 XZB      0.074450
     49 H411       10.7390    2.4790   -4.5150 h1        1 XZB      0.125950
     50 H412       11.6740    2.8100   -3.0380 h1        1 XZB      0.125950
     51 H471       10.5230   -0.0290   -5.4970 h1        1 XZB      0.125950
     52 H472       11.3280   -1.4040   -4.6960 h1        1 XZB      0.125950
     53 H323        5.8630   -1.4680   -4.1690 hn        1 XZB      0.460133
@<TRIPOS>BOND
     1    1    2 1   
     2    1   33 1   
     3    1   34 1   
     4    1   35 1   
     5    2    3 1   
     6    2   20 1   
     7    3    4 2   
     8    3   36 1   
     9    4    5 1   
    10    4   15 1   
    11    5    6 ar  
    12    5   10 ar  
    13    6    7 ar  
    14    6   37 1   
    15    7    8 ar  
    16    7   39 1   
    17    8    9 ar  
    18    8   40 1   
    19    9   10 ar  
    20    9   11 1   
    21   10   38 1   
    22   11   12 1   
    23   11   13 1   
    24   11   14 1   
    25   15   16 1   
    26   15   19 2   
    27   16   17 1   
    28   17   18 2   
    29   17   22 1   
    30   18   19 1   
    31   18   41 1   
    32   19   20 1   
    33   20   21 2   
    34   22   23 1   
    35   22   24 2   
    36   23   42 1   
    37   23   43 1   
    38   23   53 1   
    39   24   25 1   
    40   25   26 1   
    41   25   32 1   
    42   25   44 1   
    43   26   27 1   
    44   26   45 1   
    45   26   46 1   
    46   27   28 1   
    47   27   49 1   
    48   27   50 1   
    49   28   29 2   
    50   28   30 2   
    51   28   31 1   
    52   31   32 1   
    53   31   51 1   
    54   31   52 1   
    55   32   47 1   
    56   32   48 1   
@<TRIPOS>SUBSTRUCTURE
     1 XZB         1 TEMP              0 ****  ****    0 ROOT
