@<TRIPOS>MOLECULE
XZB
   53    56     1     0     0
SMALL
bcc


@<TRIPOS>ATOM
      1 C01        -0.2210   -0.6090    0.0370 c3        1 XZB      0.050300
      2 N05         1.2170   -0.4790   -0.0450 n         1 XZB     -0.331000
      3 C06         1.9420   -0.3570    1.1140 cc        1 XZB      0.078600
      4 C08         3.3210   -0.2180    1.1630 cd        1 XZB     -0.114400
      5 C09         4.0150   -0.1150    2.4390 ca        1 XZB     -0.048800
      6 C10         3.6100   -0.8870    3.5390 ca        1 XZB     -0.096000
      7 C12         4.2760   -0.7840    4.7580 ca        1 XZB     -0.117000
      8 C14         5.3600    0.0840    4.9000 ca        1 XZB     -0.069000
      9 C16         5.7680    0.8490    3.8060 ca        1 XZB     -0.154300
     10 C17         5.1020    0.7580    2.5830 ca        1 XZB     -0.097000
     11 C19         6.9630    1.7900    3.9270 c3        1 XZB      0.687200
     12 F20         7.2870    2.1480    5.2100 f         1 XZB     -0.231300
     13 F21         8.1270    1.2720    3.4100 f         1 XZB     -0.231300
     14 F22         6.8090    2.9830    3.2630 f         1 XZB     -0.231300
     15 C23         4.0260   -0.1770   -0.0730 cd        1 XZB      0.020100
     16 S24         5.6440    0.0110   -0.3660 ss        1 XZB      0.239200
     17 C25         5.4760   -0.0870   -2.0430 cd        1 XZB     -0.332000
     18 C26         4.1420   -0.2480   -2.4180 cc        1 XZB     -0.040000
     19 C28         3.3040   -0.3070   -1.2840 cc        1 XZB     -0.223600
     20 C29         1.8540   -0.4710   -1.3140 c         1 XZB      0.727100
     21 O30         1.1920   -0.6010   -2.3580 o         1 XZB     -0.603500
     22 C31         6.6190    0.0390   -2.9290 cf        1 XZB      0.663800
     23 N32         6.3270   -0.5680   -4.3000 n4        1 XZB     -0.873600
     24 N34         7.7190    0.5890   -2.5880 n2        1 XZB     -0.544900
     25 C36         8.9200    0.7470   -3.3750 c3        1 XZB      0.111500
     26 C38         9.8540    1.7690   -2.6870 c3        1 XZB     -0.043900
     27 C41        11.0510    2.0570   -3.5560 c3        1 XZB     -0.324600
     28 S44        12.0690    0.7140   -3.8420 s6        1 XZB      1.336000
     29 O45        12.9690    1.0260   -4.8570 o         1 XZB     -0.624800
     30 O46        12.5380    0.1950   -2.6380 o         1 XZB     -0.624800
     31 C47        10.8760   -0.3520   -4.4870 c3        1 XZB     -0.324600
     32 C50         9.6970   -0.5720   -3.5780 c3        1 XZB     -0.043900
     33 H011       -0.4860   -1.5460    0.5950 h1        1 XZB      0.075700
     34 H012       -0.6560   -0.6620   -0.9990 h1        1 XZB      0.075700
     35 H013       -0.6530    0.2790    0.5720 h1        1 XZB      0.075700
     36 H06         1.3500   -0.3730    2.0530 h4        1 XZB      0.178000
     37 H10         2.7660   -1.5870    3.4370 ha        1 XZB      0.141000
     38 H17         5.4270    1.3950    1.7430 ha        1 XZB      0.144000
     39 H12         3.9480   -1.3920    5.6170 ha        1 XZB      0.157000
     40 H14         5.8880    0.1690    5.8640 ha        1 XZB      0.167000
     41 H26         3.7330   -0.3080   -3.4310 ha        1 XZB      0.162000
     42 H321        5.6710    0.0430   -4.7960 hn        1 XZB      0.460133
     43 H322        7.1750   -0.6810   -4.8590 hn        1 XZB      0.460133
     44 H36         8.6540    1.1660   -4.3950 h1        1 XZB      0.048700
     45 H381       10.1910    1.3660   -1.6930 hc        1 XZB      0.074450
     46 H382        9.2930    2.7210   -2.4910 hc        1 XZB      0.074450
     47 H501        9.0280   -1.3590   -4.0140 hc        1 XZB      0.074450
     48 H502       10.0560   -0.9540   -2.5820 hc        1 XZB      0.074450
     49 H411       11.6430    2.8710   -3.0460 h1        1 XZB      0.125950
     50 H412       10.7140    2.5210   -4.5210 h1        1 XZB      0.125950
     51 H471       11.3520   -1.3550   -4.6830 h1        1 XZB      0.125950
     52 H472       10.5300    0.0060   -5.4910 h1        1 XZB      0.125950
     53 H323        5.8850   -1.4830   -4.1620 hn        1 XZB      0.460133
@<TRIPOS>BOND
     1    1    2 1   
     2    1   33 1   
     3    1   34 1   
     4    1   35 1   
     5    2    3 1   
     6    2   20 1   
     7    3    4 2   
     8    3   36 1   
     9    4    5 1   
    10    4   15 1   
    11    5    6 ar  
    12    5   10 ar  
    13    6    7 ar  
    14    6   37 1   
    15    7    8 ar  
    16    7   39 1   
    17    8    9 ar  
    18    8   40 1   
    19    9   10 ar  
    20    9   11 1   
    21   10   38 1   
    22   11   12 1   
    23   11   13 1   
    24   11   14 1   
    25   15   16 1   
    26   15   19 2   
    27   16   17 1   
    28   17   18 2   
    29   17   22 1   
    30   18   19 1   
    31   18   41 1   
    32   19   20 1   
    33   20   21 2   
    34   22   23 1   
    35   22   24 2   
    36   23   42 1   
    37   23   43 1   
    38   23   53 1   
    39   24   25 1   
    40   25   26 1   
    41   25   32 1   
    42   25   44 1   
    43   26   27 1   
    44   26   45 1   
    45   26   46 1   
    46   27   28 1   
    47   27   49 1   
    48   27   50 1   
    49   28   29 2   
    50   28   30 2   
    51   28   31 1   
    52   31   32 1   
    53   31   51 1   
    54   31   52 1   
    55   32   47 1   
    56   32   48 1   
@<TRIPOS>SUBSTRUCTURE
     1 XZB         1 TEMP              0 ****  ****    0 ROOT
