@<TRIPOS>MOLECULE
XZN
   65    68     1     0     0
SMALL
bcc


@<TRIPOS>ATOM
      1 CAA         0.4120   -1.8280    2.2500 c3        1 XZN      0.105700
      2 CAC        -6.1960    0.5070   -0.3970 c3        1 XZN      0.172800
      3 NAD         4.8180    5.0380   -0.4340 n1        1 XZN     -0.360800
      4 CL1         3.2360   -2.2280   -2.1190 cl        1 XZN     -0.061900
      5 CL2         7.0900   -1.7130    1.6430 cl        1 XZN     -0.061900
      6 CAH         1.3970    4.4060   -0.7620 ca        1 XZN      0.460200
      7 CAK        -1.2430    2.0290   -0.1120 ca        1 XZN     -0.258300
      8 CAL         0.9360    0.6440    1.0230 ca        1 XZN     -0.174000
      9 CAM        -4.9630   -0.0780    0.2890 c3        1 XZN     -0.088400
     10 CAN        -3.7770    0.8350    0.0310 c3        1 XZN      0.122400
     11 CAO       -11.2210   -2.1370   -0.1950 c3        1 XZN      0.157100
     12 CAQ        -8.5970    0.5790   -0.5350 c3        1 XZN      0.166800
     13 CAP        -7.4750   -1.5570   -0.3510 c3        1 XZN      0.166800
     14 CAS        -9.9360   -0.0970   -0.1860 c3        1 XZN      0.167800
     15 CAR        -8.8180   -2.2300   -0.0110 c3        1 XZN      0.167800
     16 NAT         0.1970    3.8620   -0.7380 nb        1 XZN     -0.666000
     17 OAV        -0.6610   -1.0960    1.6640 os        1 XZN     -0.298900
     18 CAX         5.1160   -1.8950   -0.2010 ca        1 XZN      0.075100
     19 CAY         4.0020   -1.3640   -0.8730 ca        1 XZN      0.037900
     20 CAZ         5.2260    0.1190    1.1610 ca        1 XZN     -0.167000
     21 CBA         2.5760    3.7770   -0.2510 ca        1 XZN     -0.207300
     22 CBB         4.0930    0.6450    0.4960 ca        1 XZN      0.153600
     23 CBC        -0.3280    0.1030    1.0760 ca        1 XZN      0.119100
     24 CBD        -1.4400    0.8070    0.4870 ca        1 XZN      0.151100
     25 CBE         2.4750    2.5010    0.3280 ca        1 XZN      0.231600
     26 CBF         0.0620    2.6140   -0.1610 ca        1 XZN      0.435600
     27 CBG         1.1670    1.8980    0.3960 ca        1 XZN     -0.155300
     28 NBH        -7.4420   -0.1410   -0.0120 n3        1 XZN     -0.727600
     29 CAJ         3.4960   -0.1100   -0.5330 ca        1 XZN     -0.167000
     30 NBI        -9.9670   -1.5080   -0.5400 n3        1 XZN     -0.732600
     31 C01         6.5360   -3.2830   -1.4700 c3        1 XZN      0.113700
     32 CAI         5.7270   -1.1330    0.8110 ca        1 XZN      0.037900
     33 HAA1        0.8840   -1.2430    3.0760 h1        1 XZN      0.050700
     34 HAA2       -0.0940   -2.7430    2.6510 h1        1 XZN      0.050700
     35 HAA3        1.1700   -2.1030    1.4770 h1        1 XZN      0.050700
     36 H011        6.7430   -4.3800   -1.5310 h1        1 XZN      0.046700
     37 H012        6.1400   -2.8970   -2.4390 h1        1 XZN      0.046700
     38 H013        7.4510   -2.7200   -1.1670 h1        1 XZN      0.046700
     39 HAC1       -6.2850    1.5930   -0.1080 h1        1 XZN      0.032200
     40 HAC2       -6.0320    0.4670   -1.5160 h1        1 XZN      0.032200
     41 HAM1       -5.1270   -0.1740    1.3940 hc        1 XZN      0.068200
     42 HAM2       -4.7360   -1.1010   -0.1080 hc        1 XZN      0.068200
     43 HAH         1.4750    5.4120   -1.2180 h4        1 XZN      0.036100
     44 HAK        -2.0810    2.5850   -0.5610 ha        1 XZN      0.164000
     45 HAL         1.7830    0.1070    1.4780 ha        1 XZN      0.160000
     46 HAN1       -3.6110    0.9890   -1.0680 h1        1 XZN      0.045200
     47 HAN2       -3.9060    1.8270    0.5380 h1        1 XZN      0.045200
     48 HAO1      -12.0540   -1.5830   -0.7020 h1        1 XZN      0.032367
     49 HAO2      -11.2090   -3.1940   -0.5690 h1        1 XZN      0.032367
     50 HAO3      -11.4240   -2.1520    0.9120 h1        1 XZN      0.032367
     51 HAP1       -6.6760   -2.0720    0.2530 h1        1 XZN      0.037700
     52 HAP2       -7.2510   -1.7280   -1.4440 h1        1 XZN      0.037700
     53 HAR1       -8.8150   -3.2560   -0.4740 h1        1 XZN      0.037200
     54 HAR2       -8.8850   -2.3560    1.1100 h1        1 XZN      0.037200
     55 HAQ1       -8.5370    0.7030   -1.6560 h1        1 XZN      0.037700
     56 HAQ2       -8.6000    1.6050   -0.0720 h1        1 XZN      0.037700
     57 HAS1      -10.1460    0.0630    0.9120 h1        1 XZN      0.037200
     58 HAS2      -10.7450    0.4220   -0.7720 h1        1 XZN      0.037200
     59 HAU         4.3240    2.5420    1.1670 hn        1 XZN      0.433800
     60 HAJ         2.6180    0.2860   -1.0730 ha        1 XZN      0.163000
     61 HAZ         5.7190    0.6950    1.9620 ha        1 XZN      0.163000
     62 CAG         3.8090    4.4650   -0.3470 cg        1 XZN      0.233800
     63 NAU         3.6000    1.8970    0.9110 nh        1 XZN     -0.624000
     64 OAW        -2.6430    0.1530    0.5920 os        1 XZN     -0.299900
     65 O02         5.5350   -3.1910   -0.4520 os        1 XZN     -0.322900
@<TRIPOS>BOND
     1    1   17 1   
     2    1   33 1   
     3    1   34 1   
     4    1   35 1   
     5    2    9 1   
     6    2   28 1   
     7    2   39 1   
     8    2   40 1   
     9    3   62 3   
    10    4   19 1   
    11    5   32 1   
    12    6   16 ar  
    13    6   21 ar  
    14    6   43 1   
    15    7   24 ar  
    16    7   26 ar  
    17    7   44 1   
    18    8   23 ar  
    19    8   27 ar  
    20    8   45 1   
    21    9   10 1   
    22    9   41 1   
    23    9   42 1   
    24   10   46 1   
    25   10   47 1   
    26   10   64 1   
    27   11   30 1   
    28   11   48 1   
    29   11   49 1   
    30   11   50 1   
    31   12   14 1   
    32   12   28 1   
    33   12   55 1   
    34   12   56 1   
    35   13   15 1   
    36   13   28 1   
    37   13   51 1   
    38   13   52 1   
    39   14   30 1   
    40   14   57 1   
    41   14   58 1   
    42   15   30 1   
    43   15   53 1   
    44   15   54 1   
    45   16   26 ar  
    46   17   23 1   
    47   18   19 ar  
    48   18   32 ar  
    49   18   65 1   
    50   19   29 ar  
    51   20   22 ar  
    52   20   32 ar  
    53   20   61 1   
    54   21   25 ar  
    55   21   62 1   
    56   22   29 ar  
    57   22   63 1   
    58   23   24 ar  
    59   24   64 1   
    60   25   27 ar  
    61   25   63 1   
    62   26   27 ar  
    63   29   60 1   
    64   31   36 1   
    65   31   37 1   
    66   31   38 1   
    67   31   65 1   
    68   59   63 1   
@<TRIPOS>SUBSTRUCTURE
     1 XZN         1 TEMP              0 ****  ****    0 ROOT
