@<TRIPOS>MOLECULE
XZN
   65    65     1     0     0
SMALL
bcc


@<TRIPOS>ATOM
      1 CAA         0.6380   -0.8480   -0.0550 c3        1 XZN      0.105700
      2 CAC         8.0120    0.2080   -0.8540 c3        1 XZN      0.188800
      3 NAD         0.4760    0.9740    8.3380 n1        1 XZN     -0.360800
      4 Cl1         0.4530   -4.7980    3.3550 cl        1 XZN     -0.061900
      5 Cl2        -4.4200   -2.5370    3.9900 cl        1 XZN     -0.061900
      6 CAH         3.2220    1.0000    6.1760 ca        1 XZN      0.460200
      7 CAK         4.3210    0.3910    2.7900 ca        1 XZN     -0.257300
      8 CAL         1.5710   -0.1680    2.5070 ca        1 XZN     -0.174000
      9 CAM         6.4990    0.0050   -0.8890 c3        1 XZN     -0.098400
     10 CAN         5.9430    0.1940    0.5110 c3        1 XZN      0.124400
     11 CAO         8.4210    0.9520   -6.6200 c3        1 XZN      0.147100
     12 CAQ        10.0200    0.1530   -2.1950 c2        1 XZN      0.031000
     13 CAP         6.3480   -3.0570   -2.8270 c1        1 XZN     -0.170000
     14 CAS        10.8310   -0.4850   -3.0560 c2        1 XZN     -0.323000
     15 CAR         6.9000   -2.5400   -3.7530 c1        1 XZN     -0.170000
     16 NAT         4.0190    0.8900    5.1320 nb        1 XZN     -0.667000
     17 OAV         2.0210   -0.5630    0.1340 os        1 XZN     -0.298900
     18 CAX        -1.9420   -3.5810    3.6800 ca        1 XZN      0.075100
     19 CAY        -0.5410   -3.4820    3.7560 ca        1 XZN      0.037900
     20 CAZ        -2.1240   -1.2780    4.4470 ca        1 XZN     -0.166500
     21 CBA         1.8220    0.7040    6.1540 ca        1 XZN     -0.207300
     22 CBB        -0.7150   -1.1730    4.5050 ca        1 XZN      0.152600
     23 CBC         2.4050   -0.2410    1.4150 ca        1 XZN      0.119100
     24 CBD         3.8120    0.0360    1.5630 ca        1 XZN      0.149100
     25 CBE         1.2310    0.2790    4.9530 ca        1 XZN      0.231600
     26 CBF         3.4640    0.4880    3.9320 ca        1 XZN      0.434600
     27 CBG         2.0750    0.1830    3.7870 ca        1 XZN     -0.154300
     28 NBH         8.6270    0.0410   -2.1540 nu        1 XZN     -0.743000
     29 CAJ         0.0680   -2.2950    4.1650 ca        1 XZN     -0.166500
     30 NBI         8.3810    0.3130   -5.3380 n8        1 XZN     -0.933800
     31 C01        -2.8640   -5.7010    4.1330 c3        1 XZN      0.113700
     32 CAI        -2.7240   -2.4680    4.0410 ca        1 XZN      0.037900
     33 HAA1        0.3310   -1.7340    0.5510 h1        1 XZN      0.051033
     34 HAA2        0.0130    0.0420    0.2020 h1        1 XZN      0.051033
     35 HAA3        0.5720   -1.0750   -1.1500 h1        1 XZN      0.051033
     36 H011       -3.5940   -5.2890    4.8700 h1        1 XZN      0.046700
     37 H012       -1.9400   -6.0550    4.6510 h1        1 XZN      0.046700
     38 H013       -3.3240   -6.5240    3.5310 h1        1 XZN      0.046700
     39 HAC1        8.2370    1.2550   -0.5000 h1        1 XZN      0.033700
     40 HAC2        8.4510   -0.5040   -0.0930 h1        1 XZN      0.033700
     41 HAM1        6.2440   -1.0240   -1.2610 hc        1 XZN      0.072200
     42 HAM2        6.0170    0.7390   -1.5860 hc        1 XZN      0.072200
     43 HAH         3.6890    1.3360    7.1220 h4        1 XZN      0.036100
     44 HAK         5.3920    0.6130    2.9210 ha        1 XZN      0.164000
     45 HAL         0.4960   -0.3740    2.3900 ha        1 XZN      0.160000
     46 HAN1        6.4100   -0.5220    1.2370 h1        1 XZN      0.045200
     47 HAN2        6.0880    1.2470    0.8680 h1        1 XZN      0.045200
     48 HAO1        9.1730    0.4270   -7.2670 h1        1 XZN      0.024700
     49 HAO2        7.4130    0.8640   -7.1050 h1        1 XZN      0.024700
     50 HAO3        8.6950    2.0430   -6.5850 h1        1 XZN      0.024700
     51 HAP1        8.2610   -0.7430   -2.6620 hn        1 XZN      0.399800
     52 HAP2        5.8530   -3.5190   -2.0100 ha        1 XZN      0.171000
     53 HAR1        7.7000    0.7410   -4.7420 hn        1 XZN      0.355300
     54 HAR2        7.3830   -2.0750   -4.5800 ha        1 XZN      0.171000
     55 HAQ1       10.4270    0.9000   -1.4850 h4        1 XZN      0.131000
     56 HAQ2       10.4890   -1.2480   -3.7650 ha        1 XZN      0.122000
     57 HAS1        9.2740    0.3500   -4.8850 hn        1 XZN      0.355300
     58 HAS2       11.9020   -0.2570   -3.0890 ha        1 XZN      0.122000
     59 HAU        -0.6780    0.5310    5.5990 hn        1 XZN      0.433800
     60 HAJ         1.1680   -2.2390    4.2150 ha        1 XZN      0.163000
     61 HAZ        -2.7580   -0.4180    4.7180 ha        1 XZN      0.163000
     62 CAG         1.0780    0.8520    7.3490 cg        1 XZN      0.232800
     63 NAU        -0.1550    0.0620    4.8840 nu        1 XZN     -0.624000
     64 OAW         4.5380   -0.0870    0.4030 os        1 XZN     -0.299900
     65 O02        -2.5380   -4.7140    3.1510 os        1 XZN     -0.322900
@<TRIPOS>BOND
     1    1   17 1   
     2    1   33 1   
     3    1   34 1   
     4    1   35 1   
     5    2    9 1   
     6    2   28 1   
     7    2   39 1   
     8    2   40 1   
     9    3   62 3   
    10    4   19 1   
    11    5   32 1   
    12    6   16 ar  
    13    6   21 ar  
    14    6   43 1   
    15    7   24 ar  
    16    7   26 ar  
    17    7   44 1   
    18    8   23 ar  
    19    8   27 ar  
    20    8   45 1   
    21    9   10 1   
    22    9   41 1   
    23    9   42 1   
    24   10   46 1   
    25   10   47 1   
    26   10   64 1   
    27   11   30 1   
    28   11   48 1   
    29   11   49 1   
    30   11   50 1   
    31   12   14 2   
    32   12   28 1   
    33   12   55 1   
    34   13   15 3   
    35   13   52 1   
    36   14   56 1   
    37   14   58 1   
    38   15   54 1   
    39   16   26 ar  
    40   17   23 1   
    41   18   19 ar  
    42   18   32 ar  
    43   18   65 1   
    44   19   29 ar  
    45   20   22 ar  
    46   20   32 ar  
    47   20   61 1   
    48   21   25 ar  
    49   21   62 1   
    50   22   29 ar  
    51   22   63 1   
    52   23   24 ar  
    53   24   64 1   
    54   25   27 ar  
    55   25   63 1   
    56   26   27 ar  
    57   28   51 1   
    58   29   60 1   
    59   30   53 1   
    60   30   57 1   
    61   31   36 1   
    62   31   37 1   
    63   31   38 1   
    64   31   65 1   
    65   59   63 1   
@<TRIPOS>SUBSTRUCTURE
     1 XZN         1 TEMP              0 ****  ****    0 ROOT
