@<TRIPOS>MOLECULE
XZZ
   21    22     1     0     0
SMALL
bcc


@<TRIPOS>ATOM
      1 C5          0.0170    0.0900    0.0270 ca        1 XZZ     -0.030000
      2 CL          2.2800    0.2030   -1.3900 cl        1 XZZ     -0.083400
      3 C6          1.4050    0.1350    0.0670 ca        1 XZZ     -0.100600
      4 C7          2.0790    0.1240    1.3120 ca        1 XZZ      0.184100
      5 C2         -2.0860   -0.0790    3.6730 c         1 XZZ      0.723800
      6 C3         -2.8210   -0.0700    2.4200 cc        1 XZZ     -0.266200
      7 C4         -2.1820   -0.0160    1.2270 cd        1 XZZ      0.055600
      8 O2         -2.5070   -0.1250    4.8270 o         1 XZZ     -0.558500
      9 O1         -0.6880   -0.0320    3.6580 os        1 XZZ     -0.323200
     10 CM4        -2.9260   -0.0070   -0.0530 c3        1 XZZ     -0.075900
     11 C4A        -0.7330    0.0330    1.2110 ca        1 XZZ     -0.178800
     12 C8A        -0.0440    0.0220    2.4440 ca        1 XZZ      0.190100
     13 C8          1.3560    0.0670    2.5070 ca        1 XZZ     -0.181000
     14 O7          3.4420    0.1660    1.4410 oh        1 XZZ     -0.479100
     15 H5         -0.5040    0.0980   -0.9450 ha        1 XZZ      0.155000
     16 HM41       -4.0290   -0.0480    0.1200 hc        1 XZZ      0.060367
     17 HM42       -2.6920    0.9260   -0.6270 hc        1 XZZ      0.060367
     18 HM43       -2.6320   -0.8890   -0.6760 hc        1 XZZ      0.060367
     19 H3         -3.9160   -0.1090    2.5110 ha        1 XZZ      0.171000
     20 H8          1.8750    0.0580    3.4770 ha        1 XZZ      0.183000
     21 H7          3.8370    0.2030    0.5540 ho        1 XZZ      0.436000
@<TRIPOS>BOND
     1    1    3 ar  
     2    1   11 ar  
     3    1   15 1   
     4    2    3 1   
     5    3    4 ar  
     6    4   13 ar  
     7    4   14 1   
     8    5    6 1   
     9    5    8 2   
    10    5    9 1   
    11    6    7 2   
    12    6   19 1   
    13    7   10 1   
    14    7   11 1   
    15    9   12 1   
    16   10   16 1   
    17   10   17 1   
    18   10   18 1   
    19   11   12 ar  
    20   12   13 ar  
    21   13   20 1   
    22   14   21 1   
@<TRIPOS>SUBSTRUCTURE
     1 XZZ         1 TEMP              0 ****  ****    0 ROOT
