@<TRIPOS>MOLECULE
XZZ
   21    22     1     0     0
SMALL
bcc


@<TRIPOS>ATOM
      1 C5          0.8020    1.0310    0.0830 ca        1 XZZ     -0.030000
      2 CL          3.4590    0.7530    0.1720 cl        1 XZZ     -0.083400
      3 C6          1.8710    0.1440    0.1200 ca        1 XZZ     -0.100600
      4 C7          1.6350   -1.2520    0.1140 ca        1 XZZ      0.184100
      5 C2         -3.1030   -0.5450   -0.0450 c         1 XZZ      0.723800
      6 C3         -2.9090    0.8940   -0.0400 cc        1 XZZ     -0.266200
      7 C4         -1.6700    1.4400    0.0000 cd        1 XZZ      0.055600
      8 O2         -4.1450   -1.1960   -0.0780 o         1 XZZ     -0.558500
      9 O1         -1.9920   -1.3950   -0.0060 os        1 XZZ     -0.323200
     10 CM4        -1.4670    2.9070    0.0040 c3        1 XZZ     -0.075900
     11 C4A        -0.5180    0.5600    0.0400 ca        1 XZZ     -0.178800
     12 C8A        -0.7360   -0.8360    0.0350 ca        1 XZZ      0.190100
     13 C8          0.3290   -1.7480    0.0710 ca        1 XZZ     -0.181000
     14 O7          2.6290   -2.1930    0.1480 oh        1 XZZ     -0.479100
     15 H5          0.9910    2.1170    0.0870 ha        1 XZZ      0.155000
     16 HM41       -2.4430    3.4500   -0.0290 hc        1 XZZ      0.060367
     17 HM42       -0.9200    3.2170    0.9310 hc        1 XZZ      0.060367
     18 HM43       -0.8600    3.2140   -0.8850 hc        1 XZZ      0.060367
     19 H3         -3.8280    1.4970   -0.0720 ha        1 XZZ      0.171000
     20 H8          0.1400   -2.8320    0.0670 ha        1 XZZ      0.183000
     21 H7          3.4870   -1.7380    0.1760 ho        1 XZZ      0.436000
@<TRIPOS>BOND
     1    1    3 ar  
     2    1   11 ar  
     3    1   15 1   
     4    2    3 1   
     5    3    4 ar  
     6    4   13 ar  
     7    4   14 1   
     8    5    6 1   
     9    5    8 2   
    10    5    9 1   
    11    6    7 2   
    12    6   19 1   
    13    7   10 1   
    14    7   11 1   
    15    9   12 1   
    16   10   16 1   
    17   10   17 1   
    18   10   18 1   
    19   11   12 ar  
    20   12   13 ar  
    21   13   20 1   
    22   14   21 1   
@<TRIPOS>SUBSTRUCTURE
     1 XZZ         1 TEMP              0 ****  ****    0 ROOT
