@<TRIPOS>MOLECULE
U
   32    33     1     0     0
SMALL
bcc


@<TRIPOS>ATOM
      1 OP3        -1.8140    1.1020   -3.6770 o         1 U       -0.924167
      2 P          -0.8450    0.4470   -2.7510 p5        1 U        1.340900
      3 OP1        -1.3560   -0.0590   -1.4140 o         1 U       -0.924167
      4 OP2         0.2180   -0.4810   -3.2940 o         1 U       -0.924167
      5 O5'         0.2210    1.7140   -2.2280 os        1 U       -0.567200
      6 C5'         0.4680    1.8370   -0.8910 c3        1 U        0.226400
      7 C4'         1.7250    1.0570   -0.4290 c3        1 U        0.063100
      8 O4'         1.8350    1.1690    1.0110 os        1 U       -0.437600
      9 C3'         1.6950   -0.4450   -0.7770 c3        1 U        0.072100
     10 O3'         2.6470   -0.7590   -1.7670 oh        1 U       -0.665800
     11 C2'         2.0050   -1.1870    0.5320 c3        1 U        0.109100
     12 O2'         3.3390   -1.6330    0.6690 oh        1 U       -0.619800
     13 C1'         1.7340   -0.1080    1.6320 c3        1 U        0.271500
     14 N1          0.4330   -0.2820    2.2960 n         1 U       -0.368000
     15 C2          0.4040   -0.2320    3.7080 c         1 U        0.797500
     16 O2          1.4410   -0.1300    4.4130 o         1 U       -0.702500
     17 N3         -0.8350   -0.3380    4.3650 n         1 U       -0.599500
     18 C4         -2.0580   -0.4510    3.6730 c         1 U        0.716700
     19 O4         -3.1010   -0.5370    4.3590 o         1 U       -0.693500
     20 C5         -1.9650   -0.4590    2.2240 cc        1 U       -0.371200
     21 C6         -0.7590   -0.3590    1.5880 cd        1 U        0.074600
     22 H5'        -0.4130    1.5030   -0.2750 h1        1 U       -0.001300
     23 H5''        0.6740    2.9240   -0.6560 h1        1 U       -0.001300
     24 H4'         2.6540    1.5360   -0.8360 h1        1 U        0.048700
     25 H3'         0.6500   -0.7190   -1.1520 h1        1 U        0.167700
     26 HO3'        2.1390   -0.7510   -2.6120 ho        1 U        0.495000
     27 H2'         1.3630   -2.0970    0.6550 h1        1 U        0.075700
     28 HO2'        3.8580   -1.2080   -0.0260 ho        1 U        0.423000
     29 H1'         2.5350   -0.1280    2.4290 h2        1 U        0.103700
     30 H3         -0.8240   -0.3010    5.3570 hn        1 U        0.320500
     31 H5         -2.8960   -0.5280    1.6470 ha        1 U        0.188000
     32 H6         -0.7160   -0.3370    0.4480 h4        1 U        0.304000
@<TRIPOS>BOND
     1    1    2 1   
     2    2    3 1   
     3    2    4 1   
     4    2    5 1   
     5    5    6 1   
     6    6    7 1   
     7    6   22 1   
     8    6   23 1   
     9    7    8 1   
    10    7    9 1   
    11    7   24 1   
    12    8   13 1   
    13    9   10 1   
    14    9   11 1   
    15    9   25 1   
    16   10   26 1   
    17   11   12 1   
    18   11   13 1   
    19   11   27 1   
    20   12   28 1   
    21   13   14 1   
    22   13   29 1   
    23   14   15 1   
    24   14   21 1   
    25   15   16 2   
    26   15   17 1   
    27   17   18 1   
    28   17   30 1   
    29   18   19 2   
    30   18   20 1   
    31   20   21 2   
    32   20   31 1   
    33   21   32 1   
@<TRIPOS>SUBSTRUCTURE
     1 U           1 TEMP              0 ****  ****    0 ROOT
