@<TRIPOS>MOLECULE
U01
   40    42     1     0     0
SMALL
bcc


@<TRIPOS>ATOM
      1 CA          0.7830   -0.2540   -1.6460 cc        1 U01     -0.234400
      2 CA2         0.6390   -1.5770   -2.2440 c         1 U01      0.734800
      3 CA4        -1.0230   -0.7430   -3.7400 ca        1 U01      0.168100
      4 CA5        -0.9200    0.5590   -3.2140 ca        1 U01     -0.182800
      5 CA6         0.0160    0.7740   -2.1210 cd        1 U01      0.226900
      6 CB1         1.0560   -0.1050    0.7950 ca        1 U01     -0.058300
      7 CB2         0.8860   -1.2840    1.5340 ca        1 U01     -0.123500
      8 CB3         0.2240   -1.2660    2.7590 ca        1 U01     -0.107500
      9 CB4        -0.2790   -0.0640    3.2640 ca        1 U01     -0.027900
     10 CB5        -0.1170    1.1160    2.5330 ca        1 U01     -0.107500
     11 CB6         0.5440    1.0920    1.3060 ca        1 U01     -0.123500
     12 CG1         1.7740   -0.1710   -0.5220 c3        1 U01      0.043800
     13 CG2         2.7920    0.9620   -0.7100 c3        1 U01     -0.060700
     14 CG3         3.7730    0.9920    0.4460 c3        1 U01     -0.091600
     15 CG4         3.5450    0.7890   -2.0140 c3        1 U01     -0.091600
     16 CD1        -1.9120   -1.0450   -4.7930 ca        1 U01     -0.145000
     17 CD2        -2.6930   -0.0300   -5.3210 ca        1 U01     -0.079000
     18 CD3        -2.5950    1.2750   -4.8180 ca        1 U01     -0.152000
     19 CD4        -1.7220    1.5670   -3.7820 ca        1 U01     -0.085000
     20 OA2         1.2250   -2.6250   -1.9700 o         1 U01     -0.570500
     21 OA3        -0.2740   -1.7970   -3.2780 os        1 U01     -0.323200
     22 OA6         0.1620    2.0150   -1.5590 oh        1 U01     -0.480100
     23 BR         -1.1670   -0.0330    4.9130 br        1 U01     -0.095100
     24 HB2         1.2750   -2.2380    1.1410 ha        1 U01      0.148000
     25 HB3         0.1010   -2.2040    3.3240 ha        1 U01      0.145000
     26 HB5        -0.5100    2.0700    2.9180 ha        1 U01      0.145000
     27 HB6         0.6580    2.0250    0.7310 ha        1 U01      0.148000
     28 HG1         2.3740   -1.1350   -0.5330 hc        1 U01      0.084700
     29 HG2         2.2420    1.9440   -0.7410 hc        1 U01      0.061700
     30 HG31        4.5080    1.8190    0.2990 hc        1 U01      0.036867
     31 HG32        3.2350    1.1590    1.4100 hc        1 U01      0.036867
     32 HG33        4.3330    0.0280    0.5130 hc        1 U01      0.036867
     33 HG41        4.1090   -0.1750   -2.0200 hc        1 U01      0.036867
     34 HG42        2.8370    0.7910   -2.8770 hc        1 U01      0.036867
     35 HG43        4.2720    1.6250   -2.1480 hc        1 U01      0.036867
     36 HD1        -1.9650   -2.0770   -5.1710 ha        1 U01      0.165000
     37 HD2        -3.3930   -0.2480   -6.1420 ha        1 U01      0.146000
     38 HD3        -3.2170    2.0720   -5.2520 ha        1 U01      0.144000
     39 HD4        -1.6610    2.6030   -3.4160 ha        1 U01      0.130000
     40 HO6        -0.5560    2.5890   -1.8630 ho        1 U01      0.429000
@<TRIPOS>BOND
     1    1    2 1   
     2    1    5 2   
     3    1   12 1   
     4    2   20 2   
     5    2   21 1   
     6    3    4 ar  
     7    3   16 ar  
     8    3   21 1   
     9    4    5 1   
    10    4   19 ar  
    11    5   22 1   
    12    6    7 ar  
    13    6   11 ar  
    14    6   12 1   
    15    7    8 ar  
    16    7   24 1   
    17    8    9 ar  
    18    8   25 1   
    19    9   10 ar  
    20    9   23 1   
    21   10   11 ar  
    22   10   26 1   
    23   11   27 1   
    24   12   13 1   
    25   12   28 1   
    26   13   14 1   
    27   13   15 1   
    28   13   29 1   
    29   14   30 1   
    30   14   31 1   
    31   14   32 1   
    32   15   33 1   
    33   15   34 1   
    34   15   35 1   
    35   16   17 ar  
    36   16   36 1   
    37   17   18 ar  
    38   17   37 1   
    39   18   19 ar  
    40   18   38 1   
    41   19   39 1   
    42   22   40 1   
@<TRIPOS>SUBSTRUCTURE
     1 U01         1 TEMP              0 ****  ****    0 ROOT
