@<TRIPOS>MOLECULE
U01
   40    34     1     0     0
SMALL
bcc


@<TRIPOS>ATOM
      1 CA         -0.7780    0.8980   -0.2320 c1        1 U01     -0.184100
      2 CA2        -0.3490    1.8440   -1.1590 c1        1 U01      0.817000
      3 CA4         1.2210    2.6890    0.4400 cg        1 U01     -0.024000
      4 CA5         0.7990    1.7560    1.3560 cg        1 U01     -0.024000
      5 CA6        -0.2080    0.8540    1.0180 c1        1 U01      0.199600
      6 CB1         0.0690   -1.3860   -0.6490 c1        1 U01     -0.024100
      7 CB2         1.2880   -1.5660   -1.2840 c1        1 U01     -0.057500
      8 CB3         2.1650   -2.5400   -0.8350 c1        1 U01     -0.057500
      9 CB4         1.8240   -3.3330    0.2500 c1        1 U01      0.065800
     10 CB5         0.6050   -3.1530    0.8840 c1        1 U01     -0.052500
     11 CB6        -0.2730   -2.1790    0.4350 c1        1 U01     -0.065500
     12 CG1        -0.8840   -0.3150   -1.1320 c3        1 U01     -0.021500
     13 CG2        -2.2990   -0.8470   -1.0970 c3        1 U01     -0.060700
     14 CG3        -2.3990   -2.0730   -1.9770 c3        1 U01     -0.091600
     15 CG4        -3.2480    0.2150   -1.6020 c3        1 U01     -0.091600
     16 CD1         2.2590    3.5810    0.7700 c1        1 U01     -0.057500
     17 CD2         2.8570    3.5180    2.0220 c1        1 U01     -0.057500
     18 CD3         2.4300    2.5730    2.9510 c1        1 U01     -0.057500
     19 CD4         1.4060    1.6930    2.6260 c1        1 U01     -0.057500
     20 OA2        -0.8790    1.9070   -2.2490 o         1 U01     -0.475000
     21 OA3         0.6420    2.7320   -0.8260 o         1 U01     -0.475000
     22 OA6        -1.0780    1.3690    1.9970 oh        1 U01     -0.464600
     23 BR          3.0620   -4.6300    0.9110 br        1 U01     -0.188800
     24 HB2         1.5280   -1.0070   -2.0470 ha        1 U01      0.089000
     25 HB3         3.0240   -2.6660   -1.2820 ha        1 U01      0.089000
     26 HB5         0.3640   -3.7120    1.6470 ha        1 U01      0.085500
     27 HB6        -1.1310   -2.0520    0.8810 ha        1 U01      0.089500
     28 HG1        -0.6540   -0.0640   -2.0460 hc        1 U01      0.084700
     29 HG2        -2.5350   -1.0850   -0.1800 hc        1 U01      0.061700
     30 HG31       -3.3410   -2.2540   -2.1810 hc        1 U01      0.036867
     31 HG32       -1.9080   -1.9170   -2.8110 hc        1 U01      0.036867
     32 HG33       -2.0120   -2.8430   -1.5100 hc        1 U01      0.036867
     33 HG41       -3.9080   -0.1950   -2.2000 hc        1 U01      0.036867
     34 HG42       -3.7090    0.6300   -0.8430 hc        1 U01      0.036867
     35 HG43       -2.7440    0.8980   -2.0920 hc        1 U01      0.036867
     36 HD1         2.5590    4.2440    0.1190 ha        1 U01      0.090000
     37 HD2         3.5770    4.1360    2.2510 ha        1 U01      0.089000
     38 HD3         2.8510    2.5290    3.8310 ha        1 U01      0.089000
     39 HD4         1.1070    1.0310    3.2770 ha        1 U01      0.090000
     40 HO6        -1.3040    0.7210    2.5630 ho        1 U01      0.429000
@<TRIPOS>BOND
     1    1    5 3   
     2    1   12 1   
     3    2   20 2   
     4    2   21 2   
     5    3    4 1   
     6    3   16 3   
     7    4   19 3   
     8    5   22 1   
     9    6   11 3   
    10    6   12 1   
    11    7    8 3   
    12    7   24 1   
    13    8   25 1   
    14    9   10 3   
    15    9   23 1   
    16   10   26 1   
    17   11   27 1   
    18   12   13 1   
    19   12   28 1   
    20   13   14 1   
    21   13   15 1   
    22   13   29 1   
    23   14   30 1   
    24   14   31 1   
    25   14   32 1   
    26   15   33 1   
    27   15   34 1   
    28   15   35 1   
    29   16   36 1   
    30   17   18 3   
    31   17   37 1   
    32   18   38 1   
    33   19   39 1   
    34   22   40 1   
@<TRIPOS>SUBSTRUCTURE
     1 U01         1 TEMP              0 ****  ****    0 ROOT
