@<TRIPOS>MOLECULE
U01
   40    42     1     0     0
SMALL
bcc


@<TRIPOS>ATOM
      1 CA         -0.1480   -0.0390    0.0960 cc        1 U01     -0.234400
      2 CA2         1.3040   -0.1470    0.0040 c         1 U01      0.734800
      3 CA4         1.4840   -0.0520    2.3830 ca        1 U01      0.168100
      4 CA5         0.0880    0.0410    2.5380 ca        1 U01     -0.182800
      5 CA6        -0.7270    0.0580    1.3330 cd        1 U01      0.226900
      6 CB1        -1.3140    1.3730   -1.5470 ca        1 U01     -0.058300
      7 CB2        -0.5230    2.1570   -2.3970 ca        1 U01     -0.123500
      8 CB3        -0.9020    3.4580   -2.7230 ca        1 U01     -0.107500
      9 CB4        -2.0820    3.9930   -2.2000 ca        1 U01     -0.027900
     10 CB5        -2.8760    3.2200   -1.3470 ca        1 U01     -0.107500
     11 CB6        -2.4910    1.9200   -1.0240 ca        1 U01     -0.123500
     12 CG1        -0.8670   -0.0230   -1.2200 c3        1 U01      0.043800
     13 CG2        -2.0040   -1.0500   -1.2900 c3        1 U01     -0.060700
     14 CG3        -2.6860   -0.9980   -2.6420 c3        1 U01     -0.091600
     15 CG4        -1.4720   -2.4480   -1.0400 c3        1 U01     -0.091600
     16 CD1         2.3510   -0.0650    3.4960 ca        1 U01     -0.145000
     17 CD2         1.8070    0.0090    4.7670 ca        1 U01     -0.079000
     18 CD3         0.4180    0.0900    4.9420 ca        1 U01     -0.152000
     19 CD4        -0.4290    0.1050    3.8450 ca        1 U01     -0.085000
     20 OA2         2.0180   -0.2450   -0.9950 o         1 U01     -0.570500
     21 OA3         2.0950   -0.1410    1.1560 os        1 U01     -0.323200
     22 OA6        -2.0920    0.1530    1.4110 oh        1 U01     -0.480100
     23 Br         -2.5990    5.7390   -2.6370 br        1 U01     -0.095100
     24 HB2         0.4120    1.7450   -2.8100 ha        1 U01      0.148000
     25 HB3        -0.2660    4.0560   -3.3930 ha        1 U01      0.145000
     26 HB5        -3.8070    3.6300   -0.9270 ha        1 U01      0.145000
     27 HB6        -3.1160    1.3210   -0.3430 ha        1 U01      0.148000
     28 HG1        -0.1170   -0.3320   -2.0150 hc        1 U01      0.084700
     29 HG2        -2.7630   -0.8090   -0.4940 hc        1 U01      0.061700
     30 HG31       -3.1180    0.0160   -2.8220 hc        1 U01      0.036867
     31 HG32       -3.5110   -1.7500   -2.6820 hc        1 U01      0.036867
     32 HG33       -1.9600   -1.2260   -3.4590 hc        1 U01      0.036867
     33 HG41       -0.9890   -2.5080   -0.0350 hc        1 U01      0.036867
     34 HG42       -0.7180   -2.7280   -1.8140 hc        1 U01      0.036867
     35 HG43       -2.3090   -3.1870   -1.0770 hc        1 U01      0.036867
     36 HD1         3.4360   -0.1340    3.3290 ha        1 U01      0.165000
     37 HD2         2.4680    0.0010    5.6480 ha        1 U01      0.146000
     38 HD3         0.0010    0.1410    5.9590 ha        1 U01      0.144000
     39 HD4        -1.5150    0.1590    4.0160 ha        1 U01      0.130000
     40 HO6        -2.3420    0.3930    2.3150 ho        1 U01      0.429000
@<TRIPOS>BOND
     1    1    2 1   
     2    1    5 2   
     3    1   12 1   
     4    2   20 2   
     5    2   21 1   
     6    3    4 ar  
     7    3   16 ar  
     8    3   21 1   
     9    4    5 1   
    10    4   19 ar  
    11    5   22 1   
    12    6    7 ar  
    13    6   11 ar  
    14    6   12 1   
    15    7    8 ar  
    16    7   24 1   
    17    8    9 ar  
    18    8   25 1   
    19    9   10 ar  
    20    9   23 1   
    21   10   11 ar  
    22   10   26 1   
    23   11   27 1   
    24   12   13 1   
    25   12   28 1   
    26   13   14 1   
    27   13   15 1   
    28   13   29 1   
    29   14   30 1   
    30   14   31 1   
    31   14   32 1   
    32   15   33 1   
    33   15   34 1   
    34   15   35 1   
    35   16   17 ar  
    36   16   36 1   
    37   17   18 ar  
    38   17   37 1   
    39   18   19 ar  
    40   18   38 1   
    41   19   39 1   
    42   22   40 1   
@<TRIPOS>SUBSTRUCTURE
     1 U01         1 TEMP              0 ****  ****    0 ROOT
