@<TRIPOS>MOLECULE
U01
   40    42     1     0     0
SMALL
bcc


@<TRIPOS>ATOM
      1 CA         -0.1500   -0.0440    0.0960 cc        1 U01     -0.234400
      2 CA2         1.3010   -0.1600    0.0040 c         1 U01      0.734800
      3 CA4         1.4830   -0.0640    2.3820 ca        1 U01      0.168100
      4 CA5         0.0870    0.0380    2.5370 ca        1 U01     -0.182800
      5 CA6        -0.7280    0.0590    1.3330 cd        1 U01      0.226900
      6 CB1        -1.3090    1.3740   -1.5480 ca        1 U01     -0.058300
      7 CB2        -0.5130    2.1520   -2.4000 ca        1 U01     -0.123500
      8 CB3        -0.8850    3.4540   -2.7260 ca        1 U01     -0.107500
      9 CB4        -2.0620    3.9970   -2.2030 ca        1 U01     -0.027900
     10 CB5        -2.8600    3.2300   -1.3500 ca        1 U01     -0.107500
     11 CB6        -2.4820    1.9280   -1.0250 ca        1 U01     -0.123500
     12 CG1        -0.8700   -0.0250   -1.2200 c3        1 U01      0.043800
     13 CG2        -2.0130   -1.0460   -1.2880 c3        1 U01     -0.060700
     14 CG3        -2.6960   -0.9910   -2.6400 c3        1 U01     -0.091600
     15 CG4        -1.4900   -2.4460   -1.0370 c3        1 U01     -0.091600
     16 CD1         2.3490   -0.0800    3.4940 ca        1 U01     -0.145000
     17 CD2         1.8070   -0.0020    4.7660 ca        1 U01     -0.079000
     18 CD3         0.4180    0.0880    4.9410 ca        1 U01     -0.152000
     19 CD4        -0.4290    0.1060    3.8450 ca        1 U01     -0.085000
     20 OA2         2.0130   -0.2630   -0.9950 o         1 U01     -0.570500
     21 OA3         2.0920   -0.1580    1.1550 os        1 U01     -0.323200
     22 OA6        -2.0920    0.1620    1.4110 oh        1 U01     -0.480100
     23 BR         -2.5680    5.7460   -2.6420 br        1 U01     -0.095100
     24 HB2         0.4190    1.7340   -2.8120 ha        1 U01      0.148000
     25 HB3        -0.2460    4.0490   -3.3970 ha        1 U01      0.145000
     26 HB5        -3.7880    3.6460   -0.9300 ha        1 U01      0.145000
     27 HB6        -3.1110    1.3330   -0.3430 ha        1 U01      0.148000
     28 HG1        -0.1220   -0.3390   -2.0150 hc        1 U01      0.084700
     29 HG2        -2.7700   -0.7980   -0.4920 hc        1 U01      0.061700
     30 HG31       -3.5250   -1.7370   -2.6790 hc        1 U01      0.036867
     31 HG32       -1.9720   -1.2240   -3.4570 hc        1 U01      0.036867
     32 HG33       -3.1210    0.0260   -2.8210 hc        1 U01      0.036867
     33 HG41       -0.7370   -2.7310   -1.8110 hc        1 U01      0.036867
     34 HG42       -1.0060   -2.5080   -0.0320 hc        1 U01      0.036867
     35 HG43       -2.3300   -3.1800   -1.0730 hc        1 U01      0.036867
     36 HD1         3.4340   -0.1550    3.3280 ha        1 U01      0.165000
     37 HD2         2.4680   -0.0120    5.6460 ha        1 U01      0.146000
     38 HD3         0.0020    0.1430    5.9580 ha        1 U01      0.144000
     39 HD4        -1.5150    0.1670    4.0160 ha        1 U01      0.130000
     40 HO6        -2.3410    0.4040    2.3150 ho        1 U01      0.429000
@<TRIPOS>BOND
     1    1    2 1   
     2    1    5 2   
     3    1   12 1   
     4    2   20 2   
     5    2   21 1   
     6    3    4 ar  
     7    3   16 ar  
     8    3   21 1   
     9    4    5 1   
    10    4   19 ar  
    11    5   22 1   
    12    6    7 ar  
    13    6   11 ar  
    14    6   12 1   
    15    7    8 ar  
    16    7   24 1   
    17    8    9 ar  
    18    8   25 1   
    19    9   10 ar  
    20    9   23 1   
    21   10   11 ar  
    22   10   26 1   
    23   11   27 1   
    24   12   13 1   
    25   12   28 1   
    26   13   14 1   
    27   13   15 1   
    28   13   29 1   
    29   14   30 1   
    30   14   31 1   
    31   14   32 1   
    32   15   33 1   
    33   15   34 1   
    34   15   35 1   
    35   16   17 ar  
    36   16   36 1   
    37   17   18 ar  
    38   17   37 1   
    39   18   19 ar  
    40   18   38 1   
    41   19   39 1   
    42   22   40 1   
@<TRIPOS>SUBSTRUCTURE
     1 U01         1 TEMP              0 ****  ****    0 ROOT
