@<TRIPOS>MOLECULE
U02
   79    82     1     0     0
SMALL
bcc


@<TRIPOS>ATOM
      1 CZ8         2.8170   -0.3820   -9.9730 c3        1 U02     -0.114100
      2 CZ7         3.6150   -1.0400   -7.6930 c3        1 U02     -0.114100
      3 CZ6         1.5140   -2.0480   -8.6360 c3        1 U02     -0.114100
      4 CZ5         2.3950   -0.8120   -8.5690 c3        1 U02      0.185800
      5 OZ5         1.6310    0.3320   -8.1020 os        1 U02     -0.449900
      6 CZ4         1.1580    0.3450   -6.8130 c         1 U02      0.733100
      7 OZ4         1.1970   -0.6700   -6.0980 o         1 U02     -0.589000
      8 NZ3         0.7000    1.6060   -6.4440 n         1 U02     -0.522900
      9 CZ3        -0.1450    1.7270   -5.2860 c3        1 U02      0.088000
     10 CZ2        -1.6130    1.3570   -5.5130 c3        1 U02     -0.199400
     11 CZ1        -2.4240    1.6280   -4.2550 c         1 U02      0.668100
     12 OZ1        -3.2100    2.5920   -4.2150 o         1 U02     -0.593100
     13 NZ1        -2.2300    0.7470   -3.2050 n         1 U02     -0.468100
     14 CB5        -2.8540    0.7640   -1.9440 ca        1 U02      0.062600
     15 CB4        -3.8450    1.6990   -1.5850 ca        1 U02     -0.156000
     16 CB3        -4.4130    1.6490   -0.3140 ca        1 U02     -0.113000
     17 CB2        -4.0240    0.6880    0.6130 ca        1 U02     -0.144000
     18 CB1        -3.0470   -0.2530    0.2700 ca        1 U02     -0.043300
     19 CB6        -2.4630   -0.2140   -0.9970 ca        1 U02     -0.174000
     20 CG1        -2.6070   -1.3190    1.2350 c3        1 U02      0.057800
     21 CG2        -3.7840   -2.0120    1.8740 cx        1 U02     -0.060300
     22 CG3        -4.4570   -3.1480    1.1750 cu        1 U02     -0.189700
     23 CG4        -3.7100   -3.4650    2.2130 cu        1 U02     -0.189700
     24 CA         -1.6610   -0.7640    2.2550 cc        1 U02     -0.247400
     25 CA2        -0.2560   -1.0710    2.0390 c         1 U02      0.731800
     26 OA2         0.2860   -1.7310    1.1520 o         1 U02     -0.579500
     27 OA3         0.7190   -0.5920    2.9310 os        1 U02     -0.326200
     28 CA4         0.3340    0.1680    4.0000 cc        1 U02      0.174900
     29 CA5        -0.9690    0.4740    4.2440 cd        1 U02     -0.325000
     30 CA6        -1.9920   -0.0040    3.3480 cd        1 U02      0.223100
     31 OA6        -3.3020    0.3080    3.5980 oh        1 U02     -0.477100
     32 CD          1.4890    0.6080    4.8510 c3        1 U02     -0.022500
     33 CD1         2.3920    1.5650    4.0800 c3        1 U02     -0.081400
     34 CD2         1.7820    2.9340    3.9350 c3        1 U02     -0.097100
     35 CE          2.2710   -0.6160    5.3290 c3        1 U02     -0.035100
     36 CE1         3.1870   -0.2870    6.4550 ca        1 U02     -0.083300
     37 CE2         2.6790   -0.1210    7.7490 ca        1 U02     -0.126500
     38 CE3         3.5360    0.1710    8.8090 ca        1 U02     -0.127500
     39 CE4         4.9070    0.3000    8.5850 ca        1 U02     -0.129000
     40 CE5         5.4180    0.1350    7.2980 ca        1 U02     -0.127500
     41 CE6         4.5630   -0.1570    6.2370 ca        1 U02     -0.126500
     42 HZ81        3.4380    0.5430   -9.9210 hc        1 U02      0.052589
     43 HZ82        3.4130   -1.2010  -10.4390 hc        1 U02      0.052589
     44 HZ83        1.9180   -0.1750  -10.5990 hc        1 U02      0.052589
     45 HZ71        4.1910   -0.0900   -7.5820 hc        1 U02      0.052589
     46 HZ72        3.3090   -1.3970   -6.6800 hc        1 U02      0.052589
     47 HZ73        4.2710   -1.8090   -8.1660 hc        1 U02      0.052589
     48 HZ61        0.5790   -1.8230   -9.2000 hc        1 U02      0.052589
     49 HZ62        2.0650   -2.8670   -9.1570 hc        1 U02      0.052589
     50 HZ63        1.2420   -2.3900   -7.6080 hc        1 U02      0.052589
     51 HNZ3        0.5460    2.2520   -7.1850 hn        1 U02      0.315500
     52 HZ31       -0.0870    2.8020   -4.9470 h1        1 U02      0.076200
     53 HZ32        0.2830    1.0700   -4.4740 h1        1 U02      0.076200
     54 HZ21       -1.7000    0.2800   -5.8140 hc        1 U02      0.079700
     55 HZ22       -2.0540    1.9820   -6.3340 hc        1 U02      0.079700
     56 HNZ1       -1.5660    0.0160   -3.3440 hn        1 U02      0.323500
     57 HB4        -4.1780    2.4730   -2.2950 ha        1 U02      0.170000
     58 HB3        -5.1850    2.3860   -0.0450 ha        1 U02      0.131000
     59 HB2        -4.4760    0.6680    1.6160 ha        1 U02      0.143000
     60 HB6        -1.6870   -0.9550   -1.2500 ha        1 U02      0.141000
     61 HG1        -2.0340   -2.1010    0.6440 hc        1 U02      0.080700
     62 HG2        -4.3860   -1.3330    2.5130 hc        1 U02      0.079700
     63 HG3        -5.1030   -3.4010    0.3610 ha        1 U02      0.189000
     64 HG4        -3.2840   -4.1770    2.8870 ha        1 U02      0.189000
     65 HA5        -1.2540    1.0840    5.1110 ha        1 U02      0.156000
     66 HO6        -3.3350    0.8690    4.3890 ho        1 U02      0.427000
     67 HD          1.0690    1.1430    5.7500 hc        1 U02      0.069700
     68 HD11        2.6080    1.1300    3.0670 hc        1 U02      0.061200
     69 HD12        3.3700    1.6430    4.6280 hc        1 U02      0.061200
     70 HD21        2.4540    3.5910    3.3320 hc        1 U02      0.037367
     71 HD22        0.7920    2.8730    3.4200 hc        1 U02      0.037367
     72 HD23        1.6300    3.4090    4.9350 hc        1 U02      0.037367
     73 HE1         1.5450   -1.4050    5.6630 hc        1 U02      0.064200
     74 HE2A        2.8460   -1.0390    4.4610 hc        1 U02      0.064200
     75 HE2         1.5990   -0.2270    7.9280 ha        1 U02      0.132000
     76 HE3         3.1300    0.2980    9.8230 ha        1 U02      0.132500
     77 HE4         5.5820    0.5300    9.4220 ha        1 U02      0.133000
     78 HE5         6.4990    0.2340    7.1190 ha        1 U02      0.132500
     79 HE6         4.9710   -0.2890    5.2230 ha        1 U02      0.132000
@<TRIPOS>BOND
     1    1    4 1   
     2    1   42 1   
     3    1   43 1   
     4    1   44 1   
     5    2    4 1   
     6    2   45 1   
     7    2   46 1   
     8    2   47 1   
     9    3    4 1   
    10    3   48 1   
    11    3   49 1   
    12    3   50 1   
    13    4    5 1   
    14    5    6 1   
    15    6    7 2   
    16    6    8 1   
    17    8    9 1   
    18    8   51 1   
    19    9   10 1   
    20    9   52 1   
    21    9   53 1   
    22   10   11 1   
    23   10   54 1   
    24   10   55 1   
    25   11   12 2   
    26   11   13 1   
    27   13   14 1   
    28   13   56 1   
    29   14   15 ar  
    30   14   19 ar  
    31   15   16 ar  
    32   15   57 1   
    33   16   17 ar  
    34   16   58 1   
    35   17   18 ar  
    36   17   59 1   
    37   18   19 ar  
    38   18   20 1   
    39   19   60 1   
    40   20   21 1   
    41   20   24 1   
    42   20   61 1   
    43   21   22 1   
    44   21   23 1   
    45   21   62 1   
    46   22   23 2   
    47   22   63 1   
    48   23   64 1   
    49   24   25 1   
    50   24   30 2   
    51   25   26 2   
    52   25   27 1   
    53   27   28 1   
    54   28   29 2   
    55   28   32 1   
    56   29   30 1   
    57   29   65 1   
    58   30   31 1   
    59   31   66 1   
    60   32   33 1   
    61   32   35 1   
    62   32   67 1   
    63   33   34 1   
    64   33   68 1   
    65   33   69 1   
    66   34   70 1   
    67   34   71 1   
    68   34   72 1   
    69   35   36 1   
    70   35   73 1   
    71   35   74 1   
    72   36   37 ar  
    73   36   41 ar  
    74   37   38 ar  
    75   37   75 1   
    76   38   39 ar  
    77   38   76 1   
    78   39   40 ar  
    79   39   77 1   
    80   40   41 ar  
    81   40   78 1   
    82   41   79 1   
@<TRIPOS>SUBSTRUCTURE
     1 U02         1 TEMP              0 ****  ****    0 ROOT
