@<TRIPOS>MOLECULE
U02
   80    83     1     0     0
SMALL
bcc


@<TRIPOS>ATOM
      1 CZ8         0.7130    1.9470    1.7740 c3        1 U02     -0.131100
      2 CZ7         2.4200    2.2340   -0.0520 c3        1 U02     -0.131100
      3 CZ6         0.6170    0.4860   -0.2730 c3        1 U02     -0.131100
      4 CZ5         1.5050    1.2690    0.6680 c3        1 U02      0.202800
      5 OZ5         2.3370    0.3070    1.4630 os        1 U02     -0.417900
      6 CZ4         3.2040   -0.4800    0.8270 c         1 U02      0.636100
      7 OZ4         3.4300   -0.5950   -0.3690 o         1 U02     -0.428000
      8 NZ3         3.9590   -1.3310    1.8200 ny        1 U02     -0.650800
      9 CZ3         5.0860   -0.5530    2.4210 c3        1 U02      0.116800
     10 CZ2         5.8920   -1.3670    3.4250 c3        1 U02     -0.200400
     11 CZ1         6.9590   -0.4350    4.0190 c         1 U02      0.669100
     12 OZ1         6.9660    0.7630    3.6740 o         1 U02     -0.600100
     13 NZ1         7.8360   -1.0200    4.8920 ns        1 U02     -0.437100
     14 CB5         8.8730   -0.3730    5.6080 ca        1 U02      0.026600
     15 CB4         9.3460    0.9110    5.2810 ca        1 U02     -0.142000
     16 CB3        10.3960    1.4610    6.0130 ca        1 U02     -0.112000
     17 CB2        10.9830    0.7640    7.0650 ca        1 U02     -0.118000
     18 CB1        10.5100   -0.5070    7.4100 ca        1 U02     -0.037300
     19 CB6         9.4630   -1.0770    6.6820 ca        1 U02     -0.158000
     20 CG1        11.1010   -1.2980    8.5440 c3        1 U02      0.059800
     21 CG2        11.3620   -0.4430    9.7580 cx        1 U02     -0.069300
     22 CG3        10.2690   -0.1890   10.7430 cu        1 U02     -0.184700
     23 CG4        11.2140   -1.0230   11.1260 cu        1 U02     -0.184700
     24 CA         12.3180   -2.0360    8.0830 cc        1 U02     -0.268400
     25 CA2        12.0960   -3.4160    7.6860 c         1 U02      0.734800
     26 OA2        11.0450   -4.0570    7.6170 o         1 U02     -0.598500
     27 OA3        13.1730   -4.2210    7.2920 os        1 U02     -0.320200
     28 CA4        14.4320   -3.6860    7.2540 cc        1 U02      0.182900
     29 CA5        14.6800   -2.3870    7.5760 cd        1 U02     -0.328000
     30 CA6        13.5940   -1.5360    7.9910 cd        1 U02      0.237100
     31 OA6        13.8380   -0.2240    8.2870 oh        1 U02     -0.478100
     32 CD         15.4770   -4.6760    6.8300 c3        1 U02     -0.024500
     33 CD1        15.2470   -5.1230    5.3900 c3        1 U02     -0.081400
     34 CD2        15.6340   -4.0610    4.3950 c3        1 U02     -0.097100
     35 CE         15.4660   -5.8730    7.7820 c3        1 U02     -0.032100
     36 CE1        16.6990   -6.6970    7.6510 ca        1 U02     -0.089300
     37 CE2        17.8990   -6.2640    8.2290 ca        1 U02     -0.126000
     38 CE3        19.0510   -7.0400    8.1220 ca        1 U02     -0.125500
     39 CE4        19.0150   -8.2560    7.4390 ca        1 U02     -0.124000
     40 CE5        17.8230   -8.6930    6.8620 ca        1 U02     -0.125500
     41 CE6        16.6690   -7.9170    6.9670 ca        1 U02     -0.126000
     42 HZ81        1.3970    2.4630    2.4900 hc        1 U02      0.073811
     43 HZ82        0.0980    1.2020    2.3330 hc        1 U02      0.073811
     44 HZ83        0.0350    2.7030    1.3070 hc        1 U02      0.073811
     45 HZ71        3.0030    1.7120   -0.8500 hc        1 U02      0.073811
     46 HZ72        3.1280    2.7160    0.6650 hc        1 U02      0.073811
     47 HZ73        1.8010    3.0310   -0.5320 hc        1 U02      0.073811
     48 HZ61       -0.0980    1.1910   -0.7660 hc        1 U02      0.073811
     49 HZ62        1.2200   -0.0180   -1.0670 hc        1 U02      0.073811
     50 HZ63        0.0290   -0.2820    0.2860 hc        1 U02      0.073811
     51 HNZ3        4.3240   -2.1540    1.3250 hn        1 U02      0.467300
     52 HZ31        5.7590   -0.2020    1.5840 hx        1 U02      0.134700
     53 HZ32        4.6500    0.3610    2.9260 hx        1 U02      0.134700
     54 HZ21        5.2390   -1.7500    4.2530 hc        1 U02      0.085700
     55 HZ22        6.3880   -2.2410    2.9260 hc        1 U02      0.085700
     56 HNZ1        7.7100   -1.9850    5.1090 hn        1 U02      0.326500
     57 HB4         8.8990    1.4900    4.4570 ha        1 U02      0.162000
     58 HB3        10.7650    2.4650    5.7490 ha        1 U02      0.142000
     59 HB2        11.8270    1.2020    7.6220 ha        1 U02      0.154000
     60 HB6         9.1230   -2.0910    6.9510 ha        1 U02      0.147000
     61 HG1        10.3370   -2.0830    8.8460 hc        1 U02      0.078700
     62 HG2        12.1270    0.3400    9.5790 hc        1 U02      0.082700
     63 HG3         9.3620    0.3540   10.9110 ha        1 U02      0.191500
     64 HG4        11.6620   -1.6810   11.8410 ha        1 U02      0.191500
     65 HA5        15.6980   -1.9770    7.5270 ha        1 U02      0.162000
     66 HO6        14.7930   -0.0640    8.2110 ho        1 U02      0.434000
     67 HD         16.4810   -4.1670    6.9010 hc        1 U02      0.074700
     68 HD11       15.8580   -6.0490    5.2100 hc        1 U02      0.061700
     69 HD12       14.1680   -5.4010    5.2590 hc        1 U02      0.061700
     70 HD21       15.0590   -3.1200    4.5750 hc        1 U02      0.037367
     71 HD22       16.7240   -3.8260    4.4670 hc        1 U02      0.037367
     72 HD23       15.4190   -4.4130    3.3570 hc        1 U02      0.037367
     73 HE1        15.3840   -5.4990    8.8380 hc        1 U02      0.063200
     74 HE2A       14.5530   -6.4920    7.5750 hc        1 U02      0.063200
     75 HE2        17.9280   -5.3090    8.7740 ha        1 U02      0.130500
     76 HE3        19.9890   -6.6950    8.5810 ha        1 U02      0.135500
     77 HE4        19.9240   -8.8690    7.3570 ha        1 U02      0.137000
     78 HE5        17.7900   -9.6530    6.3260 ha        1 U02      0.135500
     79 HE6        15.7290   -8.2680    6.5140 ha        1 U02      0.130500
     80 HZ33        3.3170   -1.6350    2.5610 hn        1 U02      0.467300
@<TRIPOS>BOND
     1    1    4 1   
     2    1   42 1   
     3    1   43 1   
     4    1   44 1   
     5    2    4 1   
     6    2   45 1   
     7    2   46 1   
     8    2   47 1   
     9    3    4 1   
    10    3   48 1   
    11    3   49 1   
    12    3   50 1   
    13    4    5 1   
    14    5    6 1   
    15    6    7 2   
    16    6    8 1   
    17    8    9 1   
    18    8   51 1   
    19    8   80 1   
    20    9   10 1   
    21    9   52 1   
    22    9   53 1   
    23   10   11 1   
    24   10   54 1   
    25   10   55 1   
    26   11   12 2   
    27   11   13 1   
    28   13   14 1   
    29   13   56 1   
    30   14   15 ar  
    31   14   19 ar  
    32   15   16 ar  
    33   15   57 1   
    34   16   17 ar  
    35   16   58 1   
    36   17   18 ar  
    37   17   59 1   
    38   18   19 ar  
    39   18   20 1   
    40   19   60 1   
    41   20   21 1   
    42   20   24 1   
    43   20   61 1   
    44   21   22 1   
    45   21   23 1   
    46   21   62 1   
    47   22   23 2   
    48   22   63 1   
    49   23   64 1   
    50   24   25 1   
    51   24   30 2   
    52   25   26 2   
    53   25   27 1   
    54   27   28 1   
    55   28   29 2   
    56   28   32 1   
    57   29   30 1   
    58   29   65 1   
    59   30   31 1   
    60   31   66 1   
    61   32   33 1   
    62   32   35 1   
    63   32   67 1   
    64   33   34 1   
    65   33   68 1   
    66   33   69 1   
    67   34   70 1   
    68   34   71 1   
    69   34   72 1   
    70   35   36 1   
    71   35   73 1   
    72   35   74 1   
    73   36   37 ar  
    74   36   41 ar  
    75   37   38 ar  
    76   37   75 1   
    77   38   39 ar  
    78   38   76 1   
    79   39   40 ar  
    80   39   77 1   
    81   40   41 ar  
    82   40   78 1   
    83   41   79 1   
@<TRIPOS>SUBSTRUCTURE
     1 U02         1 TEMP              0 ****  ****    0 ROOT
