@<TRIPOS>MOLECULE
U02
   79    76     1     0     0
SMALL
bcc


@<TRIPOS>ATOM
      1 CZ8        -2.5410   10.0970   -4.9550 c3        1 U02     -0.231333
      2 CZ7        -1.6800    9.4830   -7.2250 c3        1 U02     -0.231333
      3 CZ6        -3.4350    8.0710   -6.1300 c3        1 U02     -0.231333
      4 CZ5        -2.1870    8.9310   -5.8890 c3        1 U02      0.114000
      5 OZ5        -1.1700    8.1350   -5.2890 os        1 U02     -0.284000
      6 CZ4        -1.6000    7.4200   -4.1420 c2        1 U02      0.382000
      7 OZ4        -2.7860    7.2170   -3.9610 o         1 U02     -0.411000
      8 NZ3        -0.6340    6.8740   -3.2350 n         1 U02     -0.321000
      9 CZ3        -1.0240    5.8600   -2.2950 c3        1 U02     -0.019000
     10 CZ2         0.2280    5.1430   -1.7630 c3        1 U02     -0.226000
     11 CZ1         0.0110    3.6230   -1.8190 c2        1 U02      0.309000
     12 OZ1        -0.6910    3.1400   -2.6900 o         1 U02     -0.371000
     13 NZ1         0.6370    2.7680   -0.8400 n         1 U02     -0.320000
     14 CB5         0.4320    1.3400   -0.8920 c2        1 U02      0.070000
     15 CB4        -0.6050    0.8120   -1.6580 c2        1 U02     -0.154000
     16 CB3        -0.8170   -0.5650   -1.6890 c1        1 U02     -0.112000
     17 CB2         0.0080   -1.4140   -0.9540 c1        1 U02     -0.149000
     18 CB1         1.0450   -0.8870   -0.1870 c1        1 U02     -0.040000
     19 CB6         1.2580    0.4890   -0.1560 c1        1 U02     -0.171000
     20 CG1         1.9490   -1.7960    0.5600 c3        1 U02      0.010000
     21 CG2         3.4920   -1.4140    0.2360 cx        1 U02     -0.115000
     22 CG3         4.3520   -2.9950    0.4270 cu        1 U02     -0.185500
     23 CG4         4.1590   -2.9550   -0.4450 cu        1 U02     -0.185500
     24 CA          1.7000   -1.6590    2.0110 c2        1 U02     -0.224000
     25 CA2         1.2880   -1.2070    3.2630 c2        1 U02      0.359000
     26 OA2         1.3690   -0.0210    3.5390 o         1 U02     -0.256500
     27 OA3         0.8260   -2.1010    4.2000 o         1 U02     -0.256500
     28 CA4         0.7700   -3.4430    3.9030 c1        1 U02      0.138000
     29 CA5         1.1810   -3.8970    2.6530 c1        1 U02     -0.323000
     30 CA6         1.6440   -3.0020    1.7130 c1        1 U02      0.173000
     31 OA6         2.7300   -3.8940    1.5420 oh        1 U02     -0.232000
     32 CD          0.1840   -4.7330    4.4550 c3        1 U02     -0.078000
     33 CD1        -0.1410   -4.5520    5.9240 c3        1 U02     -0.153000
     34 CD2        -1.4830   -5.2260    6.2380 c3        1 U02     -0.214000
     35 CE          1.1930   -5.8600    4.2920 c3        1 U02     -0.116000
     36 CE1         0.4780   -7.1190    3.7570 c2        1 U02     -0.082000
     37 CE2        -0.1360   -7.0920    2.5060 c2        1 U02     -0.126000
     38 CE3        -0.6930   -8.2530    1.9780 c1        1 U02     -0.123000
     39 CE4        -0.6370   -9.4410    2.6990 c1        1 U02     -0.128500
     40 CE5        -0.0240   -9.4700    3.9490 c1        1 U02     -0.128500
     41 CE6         0.5330   -8.3080    4.4770 c1        1 U02     -0.129000
     42 HZ81       -1.7270   10.4160   -4.5050 hc        1 U02      0.090556
     43 HZ82       -2.9350   10.8300   -5.4800 hc        1 U02      0.090556
     44 HZ83       -3.1890    9.7920   -4.2810 hc        1 U02      0.090556
     45 HZ71       -0.8510    9.9910   -7.0770 hc        1 U02      0.090556
     46 HZ72       -1.5010    8.7370   -7.8410 hc        1 U02      0.090556
     47 HZ73       -2.3620   10.0740   -7.6150 hc        1 U02      0.090556
     48 HZ61       -3.9160    7.9460   -5.2820 hc        1 U02      0.090556
     49 HZ62       -4.0230    8.5210   -6.7770 hc        1 U02      0.090556
     50 HZ63       -3.1650    7.1940   -6.4870 hc        1 U02      0.090556
     51 HNZ3        0.2340    7.1690   -3.2580 hn        1 U02      0.248000
     52 HZ31       -1.6100    5.2080   -2.7410 h1        1 U02      0.115000
     53 HZ32       -1.5070    6.2760   -1.5460 h1        1 U02      0.115000
     54 HZ21        0.3920    5.4170   -0.8330 hc        1 U02      0.118500
     55 HZ22        1.0040    5.3840   -2.3170 hc        1 U02      0.118500
     56 HNZ1        1.1710    3.1320   -0.1880 hn        1 U02      0.234000
     57 HB4        -1.1850    1.4100   -2.1750 ha        1 U02      0.170000
     58 HB3        -1.5480   -0.9370   -2.2290 ha        1 U02      0.132000
     59 HB2        -0.1420   -2.3840   -0.9760 ha        1 U02      0.134000
     60 HB6         1.9880    0.8600    0.3830 ha        1 U02      0.155000
     61 HG1         1.7780   -2.7230    0.2860 hc        1 U02      0.115000
     62 HG2         3.5370   -0.4370    0.2730 hc        1 U02      0.128000
     63 HG3         5.2900   -3.0130    0.7220 ha        1 U02      0.188000
     64 HG4         4.8840   -2.9260   -1.1080 ha        1 U02      0.188000
     65 HA5         1.1410   -4.8500    2.4430 ha        1 U02      0.157000
     66 HO6         2.5000   -4.5360    0.9640 ho        1 U02      0.229000
     67 HD         -0.6370   -4.9550    3.9630 hc        1 U02      0.137000
     68 HD11       -0.2000   -3.5920    6.1300 hc        1 U02      0.086000
     69 HD12        0.5670   -4.9610    6.4690 hc        1 U02      0.086000
     70 HD21       -1.5340   -5.4230    7.2010 hc        1 U02      0.080000
     71 HD22       -2.2190   -4.6240    5.9880 hc        1 U02      0.080000
     72 HD23       -1.5560   -6.0620    5.7290 hc        1 U02      0.080000
     73 HE1         1.8900   -5.5860    3.6580 hc        1 U02      0.096500
     74 HE2A        1.6030   -6.0610    5.1640 hc        1 U02      0.096500
     75 HE2        -0.1750   -6.2540    1.9980 ha        1 U02      0.145000
     76 HE3        -1.1250   -8.2330    1.0970 ha        1 U02      0.135000
     77 HE4        -1.0310  -10.2610    2.3260 ha        1 U02      0.132000
     78 HE5         0.0150  -10.3080    4.4570 ha        1 U02      0.132000
     79 HE6         0.9650   -8.3280    5.3580 ha        1 U02      0.128000
@<TRIPOS>BOND
     1    1    4 1   
     2    1   42 1   
     3    1   43 1   
     4    1   44 1   
     5    2    4 1   
     6    2   45 1   
     7    2   46 1   
     8    2   47 1   
     9    3    4 1   
    10    3   48 1   
    11    3   49 1   
    12    3   50 1   
    13    4    5 1   
    14    5    6 1   
    15    6    7 1   
    16    6    8 1   
    17    8    9 1   
    18    8   51 1   
    19    9   10 1   
    20    9   52 1   
    21    9   53 1   
    22   10   11 1   
    23   10   54 1   
    24   10   55 1   
    25   11   12 1   
    26   11   13 1   
    27   13   14 1   
    28   13   56 1   
    29   14   15 1   
    30   14   19 1   
    31   15   16 1   
    32   15   57 1   
    33   16   58 1   
    34   17   18 1   
    35   17   59 1   
    36   18   20 1   
    37   19   60 1   
    38   20   21 1   
    39   20   24 1   
    40   20   61 1   
    41   21   22 1   
    42   21   23 1   
    43   21   62 1   
    44   22   23 1   
    45   22   63 1   
    46   23   64 1   
    47   24   25 1   
    48   24   30 1   
    49   25   26 1   
    50   25   27 1   
    51   28   29 1   
    52   28   32 1   
    53   29   65 1   
    54   30   31 1   
    55   31   66 1   
    56   32   33 1   
    57   32   35 1   
    58   32   67 1   
    59   33   34 1   
    60   33   68 1   
    61   33   69 1   
    62   34   70 1   
    63   34   71 1   
    64   34   72 1   
    65   35   36 1   
    66   35   73 1   
    67   35   74 1   
    68   36   37 1   
    69   36   41 1   
    70   37   38 1   
    71   37   75 1   
    72   38   76 1   
    73   39   40 1   
    74   39   77 1   
    75   40   78 1   
    76   41   79 1   
@<TRIPOS>SUBSTRUCTURE
     1 U02         1 TEMP              0 ****  ****    0 ROOT
