@<TRIPOS>MOLECULE
U02
   81    84     1     0     0
SMALL
bcc


@<TRIPOS>ATOM
      1 CZ8         5.5030   -4.4100    1.5380 c3        1 U02     -0.132767
      2 CZ7         7.3690   -3.1070    0.4620 c3        1 U02     -0.132767
      3 CZ6         7.8940   -5.1080    1.9050 c3        1 U02     -0.132767
      4 CZ5         6.9490   -3.9580    1.6380 c3        1 U02      0.206800
      5 OZ5         6.8880   -3.0890    2.8690 os        1 U02     -0.424900
      6 CZ4         7.9990   -2.5080    3.3120 c         1 U02      0.639100
      7 OZ4         9.1210   -2.4730    2.8290 o         1 U02     -0.428000
      8 NZ3         7.7280   -1.8070    4.6260 n4        1 U02     -0.660800
      9 CZ3         7.2600   -0.4130    4.3890 c3        1 U02      0.126800
     10 CZ2         6.8540    0.3030    5.6810 c3        1 U02     -0.194400
     11 CZ1         7.0730    1.7830    5.5470 c         1 U02      0.552100
     12 OZ1         7.1940    2.4230    4.5140 o         1 U02     -0.391100
     13 NZ1         7.1330    2.5760    6.8360 n4        1 U02     -0.531200
     14 CB5         8.4680    2.4830    7.4450 ca        1 U02     -0.080400
     15 CB4         9.3830    3.5400    7.2930 ca        1 U02     -0.092000
     16 CB3        10.6510    3.4100    7.8570 ca        1 U02     -0.099000
     17 CB2        11.0230    2.2430    8.5260 ca        1 U02     -0.054000
     18 CB1        10.1110    1.1890    8.6710 ca        1 U02     -0.035300
     19 CB6         8.8120    1.3320    8.1730 ca        1 U02     -0.110000
     20 CG1        10.4830   -0.1280    9.3020 c3        1 U02      0.068800
     21 CG2        11.2420    0.0700   10.5870 cx        1 U02     -0.095300
     22 CG3        10.4940    0.2760   11.8650 cu        1 U02     -0.164200
     23 CG4        11.0720   -0.8980   11.7120 cu        1 U02     -0.164200
     24 CA         11.1790   -0.9770    8.2810 cc        1 U02     -0.298400
     25 CA2        10.3460   -1.5000    7.2330 c         1 U02      0.766800
     26 OA2         9.1230   -1.3310    7.0190 o         1 U02     -0.759500
     27 OA3        10.8580   -2.2980    6.2160 os        1 U02     -0.342200
     28 CA4        12.1890   -2.6490    6.2430 cc        1 U02      0.197900
     29 CA5        13.0200   -2.1930    7.2220 cd        1 U02     -0.314000
     30 CA6        12.5220   -1.3190    8.2500 cd        1 U02      0.290100
     31 OA6        13.3720   -0.8060    9.1740 oh        1 U02     -0.449100
     32 CD         12.5970   -3.5340    5.1040 c3        1 U02     -0.035500
     33 CD1        13.0860   -2.6920    3.9280 c3        1 U02     -0.078400
     34 CD2        14.4520   -2.1060    4.1620 c3        1 U02     -0.104100
     35 CE         11.4470   -4.4490    4.6810 c3        1 U02     -0.020100
     36 CE1        11.9200   -5.5870    3.8470 ca        1 U02     -0.113300
     37 CE2        12.4900   -6.7120    4.4550 ca        1 U02     -0.130000
     38 CE3        12.9250   -7.7840    3.6780 ca        1 U02     -0.118500
     39 CE4        12.7940   -7.7400    2.2890 ca        1 U02     -0.108000
     40 CE5        12.2250   -6.6220    1.6790 ca        1 U02     -0.118500
     41 CE6        11.7870   -5.5490    2.4540 ca        1 U02     -0.130000
     42 HZ81        5.1960   -4.9650    2.4560 hc        1 U02      0.076256
     43 HZ82        5.4100   -5.0910    0.6540 hc        1 U02      0.076256
     44 HZ83        4.8230   -3.5370    1.3960 hc        1 U02      0.076256
     45 HZ71        8.4300   -2.7720    0.5660 hc        1 U02      0.076256
     46 HZ72        6.7070   -2.2120    0.3650 hc        1 U02      0.076256
     47 HZ73        7.2810   -3.7150   -0.4730 hc        1 U02      0.076256
     48 HZ61        8.9450   -4.7470    2.0290 hc        1 U02      0.076256
     49 HZ62        7.5870   -5.6680    2.8210 hc        1 U02      0.076256
     50 HZ63        7.8630   -5.8110    1.0350 hc        1 U02      0.076256
     51 HNZ3        8.6130   -1.8040    5.1870 hn        1 U02      0.489800
     52 HZ31        6.3770   -0.4570    3.6830 hx        1 U02      0.127700
     53 HZ32        8.0970    0.1450    3.8720 hx        1 U02      0.127700
     54 HZ21        7.4410   -0.0950    6.5620 hc        1 U02      0.138700
     55 HZ22        5.7610    0.1270    5.8890 hc        1 U02      0.138700
     56 HNZ1        6.9290    3.5670    6.6300 hn        1 U02      0.473800
     57 HB4         9.1230    4.4600    6.7440 ha        1 U02      0.167000
     58 HB3        11.3700    4.2430    7.7620 ha        1 U02      0.182000
     59 HB2        12.0410    2.1490    8.9430 ha        1 U02      0.180000
     60 HB6         8.0880    0.5190    8.3530 ha        1 U02      0.156000
     61 HG1         9.5210   -0.6730    9.5600 hc        1 U02      0.074700
     62 HG2        12.2200    0.5720   10.4390 hc        1 U02      0.086700
     63 HG3         9.9290    0.9850   12.4330 ha        1 U02      0.205000
     64 HG4        11.3320   -1.8790   12.0580 ha        1 U02      0.205000
     65 HA5        14.0820   -2.4870    7.2290 ha        1 U02      0.189000
     66 HO6        14.2590   -1.1910    9.0490 ho        1 U02      0.458000
     67 HD         13.4500   -4.1780    5.4710 hc        1 U02      0.101700
     68 HD11       13.1170   -3.3580    3.0210 hc        1 U02      0.060200
     69 HD12       12.3440   -1.8780    3.7190 hc        1 U02      0.060200
     70 HD21       15.2140   -2.9140    4.2920 hc        1 U02      0.046033
     71 HD22       14.7540   -1.4800    3.2870 hc        1 U02      0.046033
     72 HD23       14.4610   -1.4630    5.0760 hc        1 U02      0.046033
     73 HE1        10.9410   -4.8460    5.6010 hc        1 U02      0.044200
     74 HE2A       10.6910   -3.8400    4.1130 hc        1 U02      0.044200
     75 HE2        12.5930   -6.7520    5.5500 ha        1 U02      0.127000
     76 HE3        13.3730   -8.6660    4.1610 ha        1 U02      0.146500
     77 HE4        13.1410   -8.5870    1.6760 ha        1 U02      0.152000
     78 HE5        12.1260   -6.5850    0.5840 ha        1 U02      0.146500
     79 HE6        11.3420   -4.6680    1.9690 ha        1 U02      0.127000
     80 HZ33        7.0180   -2.3320    5.1490 hn        1 U02      0.489800
     81 HZ12        6.4350    2.2190    7.4990 hn        1 U02      0.473800
@<TRIPOS>BOND
     1    1    4 1   
     2    1   42 1   
     3    1   43 1   
     4    1   44 1   
     5    2    4 1   
     6    2   45 1   
     7    2   46 1   
     8    2   47 1   
     9    3    4 1   
    10    3   48 1   
    11    3   49 1   
    12    3   50 1   
    13    4    5 1   
    14    5    6 1   
    15    6    7 2   
    16    6    8 1   
    17    8    9 1   
    18    8   51 1   
    19    8   80 1   
    20    9   10 1   
    21    9   52 1   
    22    9   53 1   
    23   10   11 1   
    24   10   54 1   
    25   10   55 1   
    26   11   12 2   
    27   11   13 1   
    28   13   14 1   
    29   13   56 1   
    30   13   81 1   
    31   14   15 ar  
    32   14   19 ar  
    33   15   16 ar  
    34   15   57 1   
    35   16   17 ar  
    36   16   58 1   
    37   17   18 ar  
    38   17   59 1   
    39   18   19 ar  
    40   18   20 1   
    41   19   60 1   
    42   20   21 1   
    43   20   24 1   
    44   20   61 1   
    45   21   22 1   
    46   21   23 1   
    47   21   62 1   
    48   22   23 2   
    49   22   63 1   
    50   23   64 1   
    51   24   25 1   
    52   24   30 2   
    53   25   26 2   
    54   25   27 1   
    55   27   28 1   
    56   28   29 2   
    57   28   32 1   
    58   29   30 1   
    59   29   65 1   
    60   30   31 1   
    61   31   66 1   
    62   32   33 1   
    63   32   35 1   
    64   32   67 1   
    65   33   34 1   
    66   33   68 1   
    67   33   69 1   
    68   34   70 1   
    69   34   71 1   
    70   34   72 1   
    71   35   36 1   
    72   35   73 1   
    73   35   74 1   
    74   36   37 ar  
    75   36   41 ar  
    76   37   38 ar  
    77   37   75 1   
    78   38   39 ar  
    79   38   76 1   
    80   39   40 ar  
    81   39   77 1   
    82   40   41 ar  
    83   40   78 1   
    84   41   79 1   
@<TRIPOS>SUBSTRUCTURE
     1 U02         1 TEMP              0 ****  ****    0 ROOT
