@<TRIPOS>MOLECULE
U03
   41    35     1     0     0
SMALL
bcc


@<TRIPOS>ATOM
      1 CA          0.0280   -0.0420   -0.5050 c1        1 U03     -0.193100
      2 CA2         1.4150   -0.1760   -0.5200 c1        1 U03      0.828000
      3 CA4         1.4370   -0.1800    1.8700 cg        1 U03     -0.025000
      4 CA5         0.0390   -0.0450    1.8880 cg        1 U03     -0.025000
      5 CA6        -0.6540    0.0230    0.7160 c1        1 U03      0.201600
      6 CB1        -0.2090    0.2230   -2.9480 c1        1 U03     -0.042100
      7 CB2         1.1080    0.4870   -3.2760 c1        1 U03     -0.073250
      8 CB3         1.5750    0.1850   -4.5310 c1        1 U03     -0.073250
      9 CB4         0.7220   -0.3870   -5.4730 c1        1 U03     -0.073250
     10 CB5        -0.5930   -0.6510   -5.1450 c1        1 U03     -0.073250
     11 CB6        -1.0610   -0.3510   -3.8940 c1        1 U03     -0.064500
     12 CG1        -0.7460    0.6570   -1.6290 c3        1 U03     -0.015500
     13 CG2        -2.2430    0.2900   -1.5390 c3        1 U03     -0.079400
     14 CG3        -3.0920    1.5990   -1.4450 c3        1 U03     -0.092100
     15 CD1         2.1580   -0.2450    3.0860 c1        1 U03     -0.058500
     16 CD2         1.4660   -0.1720    4.3290 c1        1 U03      0.160600
     17 CD3         0.0510   -0.0350    4.3480 c1        1 U03     -0.168500
     18 CD4        -0.6610    0.0280    3.1460 c1        1 U03     -0.058500
     19 CE3         2.3310   -1.5300    6.0910 c3        1 U03      0.110700
     20 OA2         1.9950   -0.3470   -1.5720 o         1 U03     -0.478500
     21 OA3         2.1110   -0.2440    0.6630 o         1 U03     -0.478500
     22 OA6        -1.9550    0.1090    1.2830 oh        1 U03     -0.462600
     23 OE3         2.1960   -0.2280    5.5640 os        1 U03     -0.299400
     24 HB2         1.7090    0.8910   -2.6100 ha        1 U03      0.071750
     25 HB3         2.4990    0.3700   -4.7630 ha        1 U03      0.071750
     26 HB4         1.0440   -0.5960   -6.3400 ha        1 U03      0.071750
     27 HB5        -1.2320   -1.0790   -5.8510 ha        1 U03      0.071750
     28 HB6        -1.9830   -0.5360   -3.6670 ha        1 U03      0.097500
     29 HG1        -0.6430    1.6320   -1.5390 hc        1 U03      0.071700
     30 HG21       -2.3990   -0.2580   -0.7470 hc        1 U03      0.055200
     31 HG22       -2.5030   -0.2080   -2.3330 hc        1 U03      0.055200
     32 HG31       -2.8990    2.0510   -0.6060 hc        1 U03      0.034367
     33 HG32       -2.8660    2.1880   -2.1890 hc        1 U03      0.034367
     34 HG33       -4.0930    1.3630   -1.4860 hc        1 U03      0.034367
     35 HD1         3.1110   -0.3360    3.0730 ha        1 U03      0.097500
     36 HD3        -0.4550    0.0190    5.2560 ha        1 U03      0.089500
     37 HD4        -1.6320    0.0600    3.1600 ha        1 U03      0.097500
     38 HE31        2.7760   -1.4820    7.0110 h1        1 U03      0.050700
     39 HE32        1.4340   -1.9470    6.1780 h1        1 U03      0.050700
     40 HE33        2.8680   -2.0530    5.5060 h1        1 U03      0.050700
     41 HO6        -2.1540    0.9530    1.4370 ho        1 U03      0.428000
@<TRIPOS>BOND
     1    1    5 3   
     2    1   12 1   
     3    2   20 2   
     4    2   21 2   
     5    3    4 1   
     6    3   15 3   
     7    4   18 3   
     8    5   22 1   
     9    6   11 3   
    10    6   12 1   
    11    7    8 3   
    12    7   24 1   
    13    8   25 1   
    14    9   10 3   
    15    9   26 1   
    16   10   27 1   
    17   11   28 1   
    18   12   13 1   
    19   12   29 1   
    20   13   14 1   
    21   13   30 1   
    22   13   31 1   
    23   14   32 1   
    24   14   33 1   
    25   14   34 1   
    26   15   35 1   
    27   16   17 3   
    28   16   23 1   
    29   17   36 1   
    30   18   37 1   
    31   19   23 1   
    32   19   38 1   
    33   19   39 1   
    34   19   40 1   
    35   22   41 1   
@<TRIPOS>SUBSTRUCTURE
     1 U03         1 TEMP              0 ****  ****    0 ROOT
