@<TRIPOS>MOLECULE
U03
   41    43     1     0     0
SMALL
bcc


@<TRIPOS>ATOM
      1 CA         -0.1510   -0.0680   -0.0420 cc        1 U03     -0.240400
      2 CA2         1.2010   -0.6120   -0.0420 c         1 U03      0.737800
      3 CA4         1.3190   -0.3810    2.3330 ca        1 U03      0.201100
      4 CA5        -0.0010    0.1190    2.4000 ca        1 U03     -0.217800
      5 CA6        -0.7260    0.2780    1.1510 cd        1 U03      0.229900
      6 CB1        -0.6260    1.4500   -1.9360 ca        1 U03     -0.073300
      7 CB2         0.2510    1.6700   -3.0050 ca        1 U03     -0.121500
      8 CB3         0.4120    2.9510   -3.5330 ca        1 U03     -0.133500
      9 CB4        -0.3000    4.0240   -2.9980 ca        1 U03     -0.131000
     10 CB5        -1.1710    3.8120   -1.9290 ca        1 U03     -0.133500
     11 CB6        -1.3320    2.5330   -1.3990 ca        1 U03     -0.121500
     12 CG1        -0.7880    0.0590   -1.3920 c3        1 U03      0.044800
     13 CG2        -2.2470   -0.3910   -1.3800 c3        1 U03     -0.070400
     14 CG3        -2.7290   -0.7530   -2.7620 c3        1 U03     -0.094100
     15 CD1         2.1060   -0.5530    3.4820 ca        1 U03     -0.184000
     16 CD2         1.5480   -0.2250    4.7230 ca        1 U03      0.176100
     17 CD3         0.2300    0.2620    4.8170 ca        1 U03     -0.226000
     18 CD4        -0.5240    0.4270    3.6670 ca        1 U03     -0.048000
     19 CE3         1.8480   -0.0990    7.0830 c3        1 U03      0.110700
     20 OA2         1.8820   -1.0180   -0.9830 o         1 U03     -0.566500
     21 OA3         1.9190   -0.7360    1.1520 os        1 U03     -0.325200
     22 OA6        -2.0080    0.7640    1.1380 oh        1 U03     -0.480100
     23 OE3         2.3810   -0.4200    5.8020 os        1 U03     -0.315900
     24 HB2         0.8240    0.8290   -3.4260 ha        1 U03      0.139000
     25 HB3         1.1030    3.1130   -4.3720 ha        1 U03      0.129000
     26 HB4        -0.1740    5.0330   -3.4160 ha        1 U03      0.129000
     27 HB5        -1.7320    4.6560   -1.5020 ha        1 U03      0.129000
     28 HB6        -2.0140    2.3720   -0.5490 ha        1 U03      0.139000
     29 HG1        -0.2310   -0.6480   -2.0830 hc        1 U03      0.079700
     30 HG21       -2.8930    0.4210   -0.9540 hc        1 U03      0.048200
     31 HG22       -2.3440   -1.2800   -0.7030 hc        1 U03      0.048200
     32 HG31       -2.6100    0.1110   -3.4590 hc        1 U03      0.035700
     33 HG32       -3.8090   -1.0360   -2.7280 hc        1 U03      0.035700
     34 HG33       -2.1510   -1.6170   -3.1710 hc        1 U03      0.035700
     35 HD1         3.1320   -0.9390    3.4030 ha        1 U03      0.180000
     36 HD3        -0.2060    0.5120    5.7950 ha        1 U03      0.147000
     37 HD4        -1.5540    0.8020    3.7710 ha        1 U03      0.130000
     38 HE31        0.9600   -0.7370    7.3110 h1        1 U03      0.050367
     39 HE32        1.5810    0.9840    7.1390 h1        1 U03      0.050367
     40 HE33        2.6940   -0.3350    7.7780 h1        1 U03      0.050367
     41 HO6        -2.2300    1.0990    2.0180 ho        1 U03      0.426000
@<TRIPOS>BOND
     1    1    2 1   
     2    1    5 2   
     3    1   12 1   
     4    2   20 2   
     5    2   21 1   
     6    3    4 ar  
     7    3   15 ar  
     8    3   21 1   
     9    4    5 1   
    10    4   18 ar  
    11    5   22 1   
    12    6    7 ar  
    13    6   11 ar  
    14    6   12 1   
    15    7    8 ar  
    16    7   24 1   
    17    8    9 ar  
    18    8   25 1   
    19    9   10 ar  
    20    9   26 1   
    21   10   11 ar  
    22   10   27 1   
    23   11   28 1   
    24   12   13 1   
    25   12   29 1   
    26   13   14 1   
    27   13   30 1   
    28   13   31 1   
    29   14   32 1   
    30   14   33 1   
    31   14   34 1   
    32   15   16 ar  
    33   15   35 1   
    34   16   17 ar  
    35   16   23 1   
    36   17   18 ar  
    37   17   36 1   
    38   18   37 1   
    39   19   23 1   
    40   19   38 1   
    41   19   39 1   
    42   19   40 1   
    43   22   41 1   
@<TRIPOS>SUBSTRUCTURE
     1 U03         1 TEMP              0 ****  ****    0 ROOT
