@<TRIPOS>MOLECULE
U03
   41    43     1     0     0
SMALL
bcc


@<TRIPOS>ATOM
      1 CA         -0.4180    0.7300    0.6680 cc        1 U03     -0.240400
      2 CA2         0.6210    1.6410    0.2050 c         1 U03      0.737800
      3 CA4         0.4500    0.7470   -2.0040 ca        1 U03      0.201100
      4 CA5        -0.5860   -0.1340   -1.6210 ca        1 U03     -0.217800
      5 CA6        -1.0010   -0.1230   -0.2290 cd        1 U03      0.229900
      6 CB1        -0.0060   -0.2070    2.9190 ca        1 U03     -0.073300
      7 CB2         1.0450    0.1920    3.7550 ca        1 U03     -0.121500
      8 CB3         1.7450   -0.7510    4.5070 ca        1 U03     -0.133500
      9 CB4         1.4040   -2.1010    4.4310 ca        1 U03     -0.131000
     10 CB5         0.3640   -2.5060    3.5960 ca        1 U03     -0.133500
     11 CB6        -0.3360   -1.5650    2.8420 ca        1 U03     -0.121500
     12 CG1        -0.7490    0.8300    2.1270 c3        1 U03      0.044800
     13 CG2        -2.2540    0.7780    2.3770 c3        1 U03     -0.070400
     14 CG3        -2.6180    1.3740    3.7120 c3        1 U03     -0.094100
     15 CD1         0.9320    0.7970   -3.3210 ca        1 U03     -0.184000
     16 CD2         0.3520   -0.0500   -4.2720 ca        1 U03      0.176100
     17 CD3        -0.6930   -0.9270   -3.9190 ca        1 U03     -0.226000
     18 CD4        -1.1470   -0.9590   -2.6110 ca        1 U03     -0.048000
     19 CE3         0.3110   -0.7880   -6.5370 c3        1 U03      0.110700
     20 OA2         1.2400    2.5050    0.8260 o         1 U03     -0.566500
     21 OA3         1.0500    1.6130   -1.1260 os        1 U03     -0.325200
     22 OA6        -1.9960   -0.9540    0.2160 oh        1 U03     -0.480100
     23 OE3         0.8780    0.0570   -5.5400 os        1 U03     -0.315900
     24 HB2         1.3260    1.2550    3.8130 ha        1 U03      0.139000
     25 HB3         2.5680   -0.4270    5.1600 ha        1 U03      0.129000
     26 HB4         1.9550   -2.8440    5.0260 ha        1 U03      0.129000
     27 HB5         0.0940   -3.5700    3.5300 ha        1 U03      0.129000
     28 HB6        -1.1520   -1.8900    2.1770 ha        1 U03      0.139000
     29 HG1        -0.3920    1.8490    2.4740 hc        1 U03      0.079700
     30 HG21       -2.6140   -0.2830    2.3240 hc        1 U03      0.048200
     31 HG22       -2.7740    1.3430    1.5580 hc        1 U03      0.048200
     32 HG31       -3.7170    1.2830    3.8860 hc        1 U03      0.035700
     33 HG32       -2.0830    0.8440    4.5380 hc        1 U03      0.035700
     34 HG33       -2.3430    2.4550    3.7540 hc        1 U03      0.035700
     35 HD1         1.7430    1.4880   -3.5930 ha        1 U03      0.180000
     36 HD3        -1.1500   -1.5840   -4.6710 ha        1 U03      0.147000
     37 HD4        -1.9690   -1.6490   -2.3640 ha        1 U03      0.130000
     38 HE31        0.8930   -0.5240   -7.4570 h1        1 U03      0.050367
     39 HE32        0.4570   -1.8630   -6.2720 h1        1 U03      0.050367
     40 HE33       -0.7730   -0.5590   -6.6770 h1        1 U03      0.050367
     41 HO6        -2.2110   -1.5930   -0.4780 ho        1 U03      0.426000
@<TRIPOS>BOND
     1    1    2 1   
     2    1    5 2   
     3    1   12 1   
     4    2   20 2   
     5    2   21 1   
     6    3    4 ar  
     7    3   15 ar  
     8    3   21 1   
     9    4    5 1   
    10    4   18 ar  
    11    5   22 1   
    12    6    7 ar  
    13    6   11 ar  
    14    6   12 1   
    15    7    8 ar  
    16    7   24 1   
    17    8    9 ar  
    18    8   25 1   
    19    9   10 ar  
    20    9   26 1   
    21   10   11 ar  
    22   10   27 1   
    23   11   28 1   
    24   12   13 1   
    25   12   29 1   
    26   13   14 1   
    27   13   30 1   
    28   13   31 1   
    29   14   32 1   
    30   14   33 1   
    31   14   34 1   
    32   15   16 ar  
    33   15   35 1   
    34   16   17 ar  
    35   16   23 1   
    36   17   18 ar  
    37   17   36 1   
    38   18   37 1   
    39   19   23 1   
    40   19   38 1   
    41   19   39 1   
    42   19   40 1   
    43   22   41 1   
@<TRIPOS>SUBSTRUCTURE
     1 U03         1 TEMP              0 ****  ****    0 ROOT
