@<TRIPOS>MOLECULE
U03
   41    43     1     0     0
SMALL
bcc


@<TRIPOS>ATOM
      1 CA         -0.1630   -0.0730   -0.0370 cc        1 U03     -0.240400
      2 CA2         1.1810   -0.6360   -0.0380 c         1 U03      0.737800
      3 CA4         1.3080   -0.3930    2.3360 ca        1 U03      0.201100
      4 CA5        -0.0040    0.1260    2.4020 ca        1 U03     -0.217800
      5 CA6        -0.7290    0.2880    1.1540 cd        1 U03      0.229900
      6 CB1        -0.6220    1.4400   -1.9390 ca        1 U03     -0.073300
      7 CB2         0.2580    1.6420   -3.0110 ca        1 U03     -0.121500
      8 CB3         0.4350    2.9170   -3.5470 ca        1 U03     -0.133500
      9 CB4        -0.2610    4.0030   -3.0170 ca        1 U03     -0.131000
     10 CB5        -1.1320    3.8100   -1.9460 ca        1 U03     -0.133500
     11 CB6        -1.3110    2.5360   -1.4080 ca        1 U03     -0.121500
     12 CG1        -0.8010    0.0550   -1.3880 c3        1 U03      0.044800
     13 CG2        -2.2660   -0.3740   -1.3700 c3        1 U03     -0.070400
     14 CG3        -2.7570   -0.7370   -2.7480 c3        1 U03     -0.094100
     15 CD1         2.0950   -0.5700    3.4830 ca        1 U03     -0.184000
     16 CD2         1.5460   -0.2260    4.7240 ca        1 U03      0.176100
     17 CD3         0.2350    0.2800    4.8180 ca        1 U03     -0.226000
     18 CD4        -0.5190    0.4490    3.6690 ca        1 U03     -0.048000
     19 CE3         1.8530   -0.0910    7.0820 c3        1 U03      0.110700
     20 OA2         1.8540   -1.0580   -0.9790 o         1 U03     -0.566500
     21 OA3         1.9000   -0.7650    1.1550 os        1 U03     -0.325200
     22 OA6        -2.0050    0.7920    1.1410 oh        1 U03     -0.480100
     23 OE3         2.3780   -0.4270    5.8010 os        1 U03     -0.315900
     24 HB2         0.8180    0.7910   -3.4290 ha        1 U03      0.139000
     25 HB3         1.1270    3.0650   -4.3880 ha        1 U03      0.129000
     26 HB4        -0.1220    5.0080   -3.4410 ha        1 U03      0.129000
     27 HB5        -1.6810    4.6640   -1.5220 ha        1 U03      0.129000
     28 HB6        -1.9930    2.3900   -0.5560 ha        1 U03      0.139000
     29 HG1        -0.2560   -0.6640   -2.0760 hc        1 U03      0.079700
     30 HG21       -2.9000    0.4490   -0.9460 hc        1 U03      0.048200
     31 HG22       -2.3740   -1.2580   -0.6870 hc        1 U03      0.048200
     32 HG31       -2.6280    0.1220   -3.4500 hc        1 U03      0.035700
     33 HG32       -2.1930   -1.6110   -3.1540 hc        1 U03      0.035700
     34 HG33       -3.8410   -1.0040   -2.7100 hc        1 U03      0.035700
     35 HD1         3.1160   -0.9720    3.4040 ha        1 U03      0.180000
     36 HD3        -0.1950    0.5420    5.7950 ha        1 U03      0.147000
     37 HD4        -1.5440    0.8390    3.7730 ha        1 U03      0.130000
     38 HE31        1.6030    0.9970    7.1320 h1        1 U03      0.050367
     39 HE32        2.6970   -0.3350    7.7770 h1        1 U03      0.050367
     40 HE33        0.9570   -0.7140    7.3160 h1        1 U03      0.050367
     41 HO6        -2.2200    1.1360    2.0200 ho        1 U03      0.426000
@<TRIPOS>BOND
     1    1    2 1   
     2    1    5 2   
     3    1   12 1   
     4    2   20 2   
     5    2   21 1   
     6    3    4 ar  
     7    3   15 ar  
     8    3   21 1   
     9    4    5 1   
    10    4   18 ar  
    11    5   22 1   
    12    6    7 ar  
    13    6   11 ar  
    14    6   12 1   
    15    7    8 ar  
    16    7   24 1   
    17    8    9 ar  
    18    8   25 1   
    19    9   10 ar  
    20    9   26 1   
    21   10   11 ar  
    22   10   27 1   
    23   11   28 1   
    24   12   13 1   
    25   12   29 1   
    26   13   14 1   
    27   13   30 1   
    28   13   31 1   
    29   14   32 1   
    30   14   33 1   
    31   14   34 1   
    32   15   16 ar  
    33   15   35 1   
    34   16   17 ar  
    35   16   23 1   
    36   17   18 ar  
    37   17   36 1   
    38   18   37 1   
    39   19   23 1   
    40   19   38 1   
    41   19   39 1   
    42   19   40 1   
    43   22   41 1   
@<TRIPOS>SUBSTRUCTURE
     1 U03         1 TEMP              0 ****  ****    0 ROOT
