@<TRIPOS>MOLECULE
U04
   62    64     1     0     0
SMALL
bcc


@<TRIPOS>ATOM
      1 CA         -0.1990   -0.0250   -0.1350 cc        1 U04     -0.263400
      2 CA2         1.2000   -0.3700   -0.3550 c         1 U04      0.742800
      3 CA3         1.5840   -0.3920    1.9970 ca        1 U04      0.165100
      4 CA4         2.5190   -0.6140    3.0290 ca        1 U04     -0.143000
      5 CA5         2.1130   -0.4570    4.3440 ca        1 U04     -0.071000
      6 CA6         0.7930   -0.0810    4.6390 ca        1 U04     -0.145000
      7 CA7        -0.1220    0.1330    3.6220 ca        1 U04     -0.083000
      8 CA8         0.2540   -0.0210    2.2730 ca        1 U04     -0.188800
      9 CA9        -0.6430    0.1690    1.1460 cd        1 U04      0.245900
     10 CB         -1.0200    0.0910   -1.3830 c3        1 U04      0.046800
     11 CB1        -0.8940    1.4780   -1.9500 ca        1 U04     -0.041300
     12 CB2        -1.7040    2.5400   -1.5330 ca        1 U04     -0.112000
     13 CB3        -1.5400    3.8030   -2.0960 ca        1 U04     -0.111000
     14 CB4        -0.5660    4.0410   -3.0640 ca        1 U04     -0.134000
     15 CB5         0.2690    2.9860   -3.4720 ca        1 U04      0.012600
     16 CB6         0.0950    1.7010   -2.9120 ca        1 U04     -0.147000
     17 CB7        -2.4640   -0.3580   -1.1900 c3        1 U04     -0.072400
     18 CB8        -3.1320   -0.6660   -2.5060 c3        1 U04     -0.096100
     19 CG1         1.4880    4.2040   -5.2540 c         1 U04      0.649100
     20 CG2         2.6840    4.0850   -6.2380 c3        1 U04      0.006800
     21 CG3         3.5710    5.2150   -8.2740 c         1 U04      0.635100
     22 CG4         5.0990    6.3500   -9.8110 c3        1 U04      0.202800
     23 CG5         5.8520    7.6590   -9.6300 c3        1 U04     -0.130433
     24 CG6         6.0340    5.1680   -9.9470 c3        1 U04     -0.130433
     25 CG7         4.0820    6.4280  -10.9280 c3        1 U04     -0.130433
     26 NB5         1.3180    3.1480   -4.4150 ns        1 U04     -0.411100
     27 NG2         2.9170    5.3830   -6.9290 ny        1 U04     -0.637800
     28 OA2         1.8000   -0.5290   -1.4220 o         1 U04     -0.600500
     29 OA3         2.0660   -0.5560    0.7190 os        1 U04     -0.318200
     30 OA9        -1.9440    0.5500    1.3290 oh        1 U04     -0.478100
     31 OG1         0.7930    5.2410   -5.3090 o         1 U04     -0.608100
     32 OG3         3.3370    4.2460   -8.9820 o         1 U04     -0.432000
     33 OG4         4.3780    6.2530   -8.5010 os        1 U04     -0.422900
     34 HA4         3.5470   -0.9080    2.7690 ha        1 U04      0.167000
     35 HA5         2.8280   -0.6280    5.1640 ha        1 U04      0.152000
     36 HA6         0.4860    0.0410    5.6890 ha        1 U04      0.151000
     37 HA7        -1.1490    0.4270    3.8880 ha        1 U04      0.133000
     38 HB         -0.5620   -0.6260   -2.1350 hc        1 U04      0.078700
     39 HB2        -2.4640    2.3810   -0.7520 ha        1 U04      0.155000
     40 HB3        -2.1880    4.6340   -1.7730 ha        1 U04      0.147000
     41 HB4        -0.4650    5.0500   -3.4940 ha        1 U04      0.162000
     42 HB6         0.7500    0.8600   -3.1980 ha        1 U04      0.158000
     43 HB71       -2.4650   -1.2750   -0.5430 hc        1 U04      0.054200
     44 HB72       -3.0510    0.4250   -0.6430 hc        1 U04      0.054200
     45 HB81       -3.1240    0.2300   -3.1720 hc        1 U04      0.038367
     46 HB82       -2.6090   -1.5010   -3.0330 hc        1 U04      0.038367
     47 HB83       -4.1930   -0.9700   -2.3330 hc        1 U04      0.038367
     48 HG21        3.6280    3.7910   -5.7000 hx        1 U04      0.134200
     49 HG22        2.4360    3.3000   -7.0150 hx        1 U04      0.134200
     50 HG51        5.1410    8.5030   -9.4640 hc        1 U04      0.073478
     51 HG52        6.4430    7.8540  -10.5580 hc        1 U04      0.073478
     52 HG53        6.5490    7.5960   -8.7600 hc        1 U04      0.073478
     53 HG61        6.6710    5.3130  -10.8540 hc        1 U04      0.073478
     54 HG62        6.6990    5.0880   -9.0540 hc        1 U04      0.073478
     55 HG63        5.4600    4.2170  -10.0660 hc        1 U04      0.073478
     56 HG71        3.3520    7.2520  -10.7410 hc        1 U04      0.073478
     57 HG72        4.6150    6.6360  -11.8890 hc        1 U04      0.073478
     58 HG73        3.5290    5.4620  -11.0330 hc        1 U04      0.073478
     59 HN5         1.9330    2.3650   -4.5020 hn        1 U04      0.336500
     60 HN2         3.4940    6.0000   -6.3410 hn        1 U04      0.486300
     61 HO9        -2.1460    0.5620    2.2760 ho        1 U04      0.436000
     62 HG23        1.9980    5.8520   -7.0610 hn        1 U04      0.486300
@<TRIPOS>BOND
     1    1    2 1   
     2    1    9 2   
     3    1   10 1   
     4    2   28 2   
     5    2   29 1   
     6    3    4 ar  
     7    3    8 ar  
     8    3   29 1   
     9    4    5 ar  
    10    4   34 1   
    11    5    6 ar  
    12    5   35 1   
    13    6    7 ar  
    14    6   36 1   
    15    7    8 ar  
    16    7   37 1   
    17    8    9 1   
    18    9   30 1   
    19   10   11 1   
    20   10   17 1   
    21   10   38 1   
    22   11   12 ar  
    23   11   16 ar  
    24   12   13 ar  
    25   12   39 1   
    26   13   14 ar  
    27   13   40 1   
    28   14   15 ar  
    29   14   41 1   
    30   15   16 ar  
    31   15   26 1   
    32   16   42 1   
    33   17   18 1   
    34   17   43 1   
    35   17   44 1   
    36   18   45 1   
    37   18   46 1   
    38   18   47 1   
    39   19   20 1   
    40   19   26 1   
    41   19   31 2   
    42   20   27 1   
    43   20   48 1   
    44   20   49 1   
    45   21   27 1   
    46   21   32 2   
    47   21   33 1   
    48   22   23 1   
    49   22   24 1   
    50   22   25 1   
    51   22   33 1   
    52   23   50 1   
    53   23   51 1   
    54   23   52 1   
    55   24   53 1   
    56   24   54 1   
    57   24   55 1   
    58   25   56 1   
    59   25   57 1   
    60   25   58 1   
    61   26   59 1   
    62   27   60 1   
    63   27   62 1   
    64   30   61 1   
@<TRIPOS>SUBSTRUCTURE
     1 U04         1 TEMP              0 ****  ****    0 ROOT
