@<TRIPOS>MOLECULE
U04
   61    63     1     0     0
SMALL
bcc


@<TRIPOS>ATOM
      1 CA          0.6210    0.6280    3.8050 cc        1 U04     -0.236400
      2 CA2        -0.3200    1.7400    3.8480 c         1 U04      0.736800
      3 CA3        -1.1920    0.9460    5.9230 ca        1 U04      0.168100
      4 CA4        -2.1270    1.1520    6.9580 ca        1 U04     -0.145000
      5 CA5        -2.1510    0.2690    8.0250 ca        1 U04     -0.079000
      6 CA6        -1.2560   -0.8100    8.0730 ca        1 U04     -0.152000
      7 CA7        -0.3410   -1.0100    7.0520 ca        1 U04     -0.085000
      8 CA8        -0.2920   -0.1380    5.9490 ca        1 U04     -0.181800
      9 CA9         0.6270   -0.2780    4.8300 cd        1 U04      0.224900
     10 CB          1.5080    0.5910    2.5970 c3        1 U04      0.043800
     11 CB1         0.9300   -0.3090    1.5410 ca        1 U04     -0.048300
     12 CB2         0.9440   -1.7010    1.6780 ca        1 U04     -0.147000
     13 CB3         0.4060   -2.5010    0.6750 ca        1 U04     -0.111000
     14 CB4        -0.1590   -1.9420   -0.4690 ca        1 U04     -0.152000
     15 CB5        -0.1920   -0.5410   -0.6180 ca        1 U04      0.061600
     16 CB6         0.3620    0.2680    0.4040 ca        1 U04     -0.170000
     17 CB7         2.9460    0.2220    2.9510 c3        1 U04     -0.070400
     18 CB8         3.9130    0.6650    1.8830 c3        1 U04     -0.095100
     19 CG1        -1.2540   -0.4850   -2.8810 c         1 U04      0.631100
     20 CG2        -1.8650    0.4840   -3.9180 c3        1 U04      0.003000
     21 CG3        -0.8730    0.4130   -6.1360 c         1 U04      0.730100
     22 CG4         0.0950   -0.0210   -8.3320 c3        1 U04      0.185800
     23 CG5        -0.0710   -1.1870   -9.3060 c3        1 U04     -0.114433
     24 CG6        -0.4380    1.2630   -8.9440 c3        1 U04     -0.114433
     25 CG7         1.5490    0.1170   -7.9120 c3        1 U04     -0.114433
     26 NB5        -0.7640    0.1020   -1.7310 n         1 U04     -0.460100
     27 NG2        -1.8710   -0.0270   -5.2600 n         1 U04     -0.495900
     28 OA2        -0.4720    2.6660    3.0500 o         1 U04     -0.572500
     29 OA3        -1.2220    1.8690    4.9070 os        1 U04     -0.324200
     30 OA9         1.5280   -1.3100    4.7810 oh        1 U04     -0.478100
     31 OG1        -1.2580   -1.7130   -3.0900 o         1 U04     -0.598100
     32 OG3        -0.2200    1.4650   -6.0420 o         1 U04     -0.588000
     33 OG4        -0.7230   -0.4330   -7.2030 os        1 U04     -0.440900
     34 HA4        -2.8150    2.0090    6.8970 ha        1 U04      0.164000
     35 HA5        -2.8740    0.4150    8.8420 ha        1 U04      0.145000
     36 HA6        -1.2830   -1.5000    8.9290 ha        1 U04      0.143000
     37 HA7         0.3520   -1.8630    7.1220 ha        1 U04      0.130000
     38 HB          1.5340    1.6460    2.1790 hc        1 U04      0.079700
     39 HB2         1.3750   -2.1580    2.5820 ha        1 U04      0.141000
     40 HB3         0.4230   -3.5960    0.7820 ha        1 U04      0.132000
     41 HB4        -0.5730   -2.6040   -1.2460 ha        1 U04      0.171000
     42 HB6         0.3410    1.3670    0.3180 ha        1 U04      0.140000
     43 HB71        3.0320   -0.8870    3.1010 hc        1 U04      0.049200
     44 HB72        3.2130    0.7080    3.9260 hc        1 U04      0.049200
     45 HB81        4.9500    0.3470    2.1500 hc        1 U04      0.036367
     46 HB82        3.6460    0.2140    0.8970 hc        1 U04      0.036367
     47 HB83        3.9040    1.7770    1.7750 hc        1 U04      0.036367
     48 HG21       -2.9410    0.6360   -3.6120 h1        1 U04      0.091700
     49 HG22       -1.3370    1.4800   -3.9040 h1        1 U04      0.091700
     50 HG51        0.5330   -0.9830  -10.2210 hc        1 U04      0.052700
     51 HG52        0.2810   -2.1350   -8.8340 hc        1 U04      0.052700
     52 HG53       -1.1440   -1.3030   -9.5880 hc        1 U04      0.052700
     53 HG61       -1.5310    1.1660   -9.1470 hc        1 U04      0.052700
     54 HG62       -0.2750    2.1240   -8.2510 hc        1 U04      0.052700
     55 HG63        0.0940    1.4640   -9.9030 hc        1 U04      0.052700
     56 HG71        1.8810   -0.8020   -7.3730 hc        1 U04      0.052700
     57 HG72        2.1830    0.2570   -8.8190 hc        1 U04      0.052700
     58 HG73        1.6790    0.9980   -7.2380 hc        1 U04      0.052700
     59 HN5        -0.7700    1.0980   -1.6890 hn        1 U04      0.321500
     60 HN2        -2.1220   -0.9930   -5.3470 hn        1 U04      0.327500
     61 HO9         1.3450   -1.9270    5.5040 ho        1 U04      0.428000
@<TRIPOS>BOND
     1    1    2 1   
     2    1    9 2   
     3    1   10 1   
     4    2   28 2   
     5    2   29 1   
     6    3    4 ar  
     7    3    8 ar  
     8    3   29 1   
     9    4    5 ar  
    10    4   34 1   
    11    5    6 ar  
    12    5   35 1   
    13    6    7 ar  
    14    6   36 1   
    15    7    8 ar  
    16    7   37 1   
    17    8    9 1   
    18    9   30 1   
    19   10   11 1   
    20   10   17 1   
    21   10   38 1   
    22   11   12 ar  
    23   11   16 ar  
    24   12   13 ar  
    25   12   39 1   
    26   13   14 ar  
    27   13   40 1   
    28   14   15 ar  
    29   14   41 1   
    30   15   16 ar  
    31   15   26 1   
    32   16   42 1   
    33   17   18 1   
    34   17   43 1   
    35   17   44 1   
    36   18   45 1   
    37   18   46 1   
    38   18   47 1   
    39   19   20 1   
    40   19   26 1   
    41   19   31 2   
    42   20   27 1   
    43   20   48 1   
    44   20   49 1   
    45   21   27 1   
    46   21   32 2   
    47   21   33 1   
    48   22   23 1   
    49   22   24 1   
    50   22   25 1   
    51   22   33 1   
    52   23   50 1   
    53   23   51 1   
    54   23   52 1   
    55   24   53 1   
    56   24   54 1   
    57   24   55 1   
    58   25   56 1   
    59   25   57 1   
    60   25   58 1   
    61   26   59 1   
    62   27   60 1   
    63   30   61 1   
@<TRIPOS>SUBSTRUCTURE
     1 U04         1 TEMP              0 ****  ****    0 ROOT
