@<TRIPOS>MOLECULE
U04
   63    65     1     0     0
SMALL
bcc


@<TRIPOS>ATOM
      1 CA          0.2270    1.3890   -1.3120 cc        1 U04     -0.313400
      2 CA2         1.2640    2.1120   -2.0110 c         1 U04      0.789800
      3 CA3         1.9780    3.1570    0.0010 ca        1 U04      0.152100
      4 CA4         2.9170    4.0130    0.6020 ca        1 U04     -0.140000
      5 CA5         2.8280    4.2400    1.9680 ca        1 U04     -0.045000
      6 CA6         1.8200    3.6250    2.7270 ca        1 U04     -0.122000
      7 CA7         0.9010    2.7800    2.1260 ca        1 U04     -0.071000
      8 CA8         0.9600    2.5230    0.7410 ca        1 U04     -0.200800
      9 CA9         0.0560    1.6330    0.0370 cd        1 U04      0.308900
     10 CB         -0.5370    0.3970   -2.1380 c3        1 U04      0.053800
     11 CB1        -1.3970    1.1230   -3.1370 ca        1 U04     -0.028300
     12 CB2        -2.6280    1.7060   -2.8060 ca        1 U04     -0.053000
     13 CB3        -3.3490    2.4280   -3.7590 ca        1 U04     -0.095000
     14 CB4        -2.8530    2.6100   -5.0490 ca        1 U04     -0.098000
     15 CB5        -1.6190    2.0240   -5.3780 ca        1 U04     -0.093400
     16 CB6        -0.9110    1.2520   -4.4420 ca        1 U04     -0.111000
     17 CB7        -1.3250   -0.6280   -1.3340 c3        1 U04     -0.074400
     18 CB8        -1.7690   -1.7880   -2.1890 c3        1 U04     -0.102100
     19 CG1         0.4380    2.3050   -6.7040 c         1 U04      0.531100
     20 CG2         1.0380    3.3620   -5.7930 c3        1 U04      0.040800
     21 CG3         3.3550    4.1910   -6.3200 c         1 U04      0.643100
     22 CG4         5.7030    4.7990   -6.7190 c3        1 U04      0.215800
     23 CG5         6.9500    4.1290   -6.1740 c3        1 U04     -0.135100
     24 CG6         5.5840    4.6800   -8.2190 c3        1 U04     -0.135100
     25 CG7         5.5300    6.2120   -6.2150 c3        1 U04     -0.135100
     26 NB5        -1.0600    2.2000   -6.7270 n4        1 U04     -0.521200
     27 NG2         2.4960    3.1760   -5.5770 n4        1 U04     -0.652800
     28 OA2         1.5260    2.1080   -3.2360 o         1 U04     -0.778500
     29 OA3         2.1120    2.9870   -1.3670 os        1 U04     -0.319200
     30 OA9        -0.9810    1.0300    0.6710 oh        1 U04     -0.459100
     31 OG1         1.0630    1.5270   -7.4100 o         1 U04     -0.392100
     32 OG3         2.8230    5.0600   -6.9970 o         1 U04     -0.447000
     33 OG4         4.6290    3.9300   -6.0830 os        1 U04     -0.413900
     34 HA4         3.7010    4.4820   -0.0110 ha        1 U04      0.168000
     35 HA5         3.5560    4.9060    2.4630 ha        1 U04      0.173000
     36 HA6         1.7650    3.8160    3.8120 ha        1 U04      0.174000
     37 HA7         0.1280    2.3090    2.7550 ha        1 U04      0.149000
     38 HB          0.2450   -0.1880   -2.7180 hc        1 U04      0.073700
     39 HB2        -3.0310    1.5960   -1.7830 ha        1 U04      0.183000
     40 HB3        -4.3270    2.8680   -3.4910 ha        1 U04      0.185000
     41 HB4        -3.4350    3.1980   -5.7780 ha        1 U04      0.166000
     42 HB6         0.0430    0.7610   -4.7030 ha        1 U04      0.158000
     43 HB71       -0.6710   -1.0090   -0.5040 hc        1 U04      0.065200
     44 HB72       -2.2170   -0.1460   -0.8530 hc        1 U04      0.065200
     45 HB81       -0.8910   -2.3300   -2.6160 hc        1 U04      0.046033
     46 HB82       -2.3570   -2.5100   -1.5700 hc        1 U04      0.046033
     47 HB83       -2.4150   -1.4400   -3.0310 hc        1 U04      0.046033
     48 HG21        0.8490    4.3870   -6.2470 hx        1 U04      0.178700
     49 HG22        0.5300    3.3090   -4.7720 hx        1 U04      0.178700
     50 HG51        7.0070    3.0640   -6.5040 hc        1 U04      0.079144
     51 HG52        6.9660    4.1660   -5.0580 hc        1 U04      0.079144
     52 HG53        7.8410    4.6790   -6.5690 hc        1 U04      0.079144
     53 HG61        6.4460    5.2150   -8.6920 hc        1 U04      0.079144
     54 HG62        5.6170    3.6100   -8.5370 hc        1 U04      0.079144
     55 HG63        4.6380    5.1470   -8.5860 hc        1 U04      0.079144
     56 HG71        4.5830    6.6630   -6.6000 hc        1 U04      0.079144
     57 HG72        6.3880    6.8320   -6.5810 hc        1 U04      0.079144
     58 HG73        5.5270    6.2380   -5.0990 hc        1 U04      0.079144
     59 HN5        -1.3240    1.3830   -7.3080 hn        1 U04      0.483800
     60 HN2         2.7960    2.2310   -5.8620 hn        1 U04      0.503300
     61 HO9        -0.9580    1.2270    1.6240 ho        1 U04      0.458000
     62 HB52       -1.4600    3.0470   -7.1550 hn        1 U04      0.483800
     63 HG23        2.6870    3.2490   -4.5520 hn        1 U04      0.503300
@<TRIPOS>BOND
     1    1    2 1   
     2    1    9 2   
     3    1   10 1   
     4    2   28 2   
     5    2   29 1   
     6    3    4 ar  
     7    3    8 ar  
     8    3   29 1   
     9    4    5 ar  
    10    4   34 1   
    11    5    6 ar  
    12    5   35 1   
    13    6    7 ar  
    14    6   36 1   
    15    7    8 ar  
    16    7   37 1   
    17    8    9 1   
    18    9   30 1   
    19   10   11 1   
    20   10   17 1   
    21   10   38 1   
    22   11   12 ar  
    23   11   16 ar  
    24   12   13 ar  
    25   12   39 1   
    26   13   14 ar  
    27   13   40 1   
    28   14   15 ar  
    29   14   41 1   
    30   15   16 ar  
    31   15   26 1   
    32   16   42 1   
    33   17   18 1   
    34   17   43 1   
    35   17   44 1   
    36   18   45 1   
    37   18   46 1   
    38   18   47 1   
    39   19   20 1   
    40   19   26 1   
    41   19   31 2   
    42   20   27 1   
    43   20   48 1   
    44   20   49 1   
    45   21   27 1   
    46   21   32 2   
    47   21   33 1   
    48   22   23 1   
    49   22   24 1   
    50   22   25 1   
    51   22   33 1   
    52   23   50 1   
    53   23   51 1   
    54   23   52 1   
    55   24   53 1   
    56   24   54 1   
    57   24   55 1   
    58   25   56 1   
    59   25   57 1   
    60   25   58 1   
    61   26   59 1   
    62   26   62 1   
    63   27   60 1   
    64   27   63 1   
    65   30   61 1   
@<TRIPOS>SUBSTRUCTURE
     1 U04         1 TEMP              0 ****  ****    0 ROOT
