@<TRIPOS>MOLECULE
U05
   36    38     1     0     0
SMALL
bcc


@<TRIPOS>ATOM
      1 N1         -2.0780   -0.1640    2.0200 nb        1 U05     -0.700000
      2 C2         -2.3930    0.6680    3.0220 ca        1 U05      0.441200
      3 C3         -1.4550    1.4420    3.7310 ca        1 U05     -0.270300
      4 C4         -0.1130    1.3250    3.3830 ca        1 U05     -0.029000
      5 C4A         0.2550    0.4650    2.3390 ca        1 U05     -0.258900
      6 C5          1.7020    0.2980    2.0630 c         1 U05      0.739100
      7 O13         2.5220    0.2990    3.0030 o         1 U05     -0.618500
      8 N6          2.1940    0.1860    0.7560 n         1 U05     -0.375000
      9 C12         3.6280    0.0930    0.5820 c3        1 U05      0.073300
     10 C6A         1.4100    0.2170   -0.4090 ca        1 U05      0.119600
     11 C7          1.9030    0.8920   -1.5520 ca        1 U05     -0.173000
     12 C8          1.2020    0.9140   -2.7470 ca        1 U05     -0.052000
     13 C9         -0.0360    0.2620   -2.8270 ca        1 U05     -0.189200
     14 N          -0.7940    0.2750   -4.1040 no        1 U05      0.317200
     15 O1         -0.3340    0.8620   -5.0460 o         1 U05     -0.208500
     16 O2         -1.8470   -0.3020   -4.1630 o         1 U05     -0.208500
     17 C10        -0.5700   -0.3990   -1.7140 ca        1 U05     -0.077000
     18 C11         0.1450   -0.4460   -0.5060 ca        1 U05      0.076600
     19 N11        -0.3450   -1.1690    0.6260 na        1 U05     -0.621700
     20 C14        -1.1990   -2.3130    0.3280 c3        1 U05      0.190800
     21 C15        -1.2640   -3.3220    1.4640 c3        1 U05     -0.096100
     22 C1A        -0.7600   -0.2770    1.6700 ca        1 U05      0.645200
     23 H2         -3.4710    0.7210    3.2660 h4        1 U05      0.031100
     24 H3         -1.7780    2.1080    4.5410 ha        1 U05      0.155000
     25 H4          0.6690    1.8830    3.9240 ha        1 U05      0.163000
     26 H121        4.0760   -0.4530    1.4570 h1        1 U05      0.056700
     27 H122        3.8640   -0.4670   -0.3600 h1        1 U05      0.056700
     28 H123        4.0800    1.1200    0.5310 h1        1 U05      0.056700
     29 H7          2.8710    1.4190   -1.5020 ha        1 U05      0.156000
     30 H8          1.6130    1.4430   -3.6240 ha        1 U05      0.174000
     31 H10        -1.5570   -0.8920   -1.7990 ha        1 U05      0.180000
     32 H141       -0.7500   -2.8220   -0.5740 h1        1 U05      0.051200
     33 H142       -2.2490   -1.9980    0.0590 h1        1 U05      0.051200
     34 H151       -1.8730   -4.1940    1.1210 hc        1 U05      0.047033
     35 H152       -0.2450   -3.6840    1.7420 hc        1 U05      0.047033
     36 H153       -1.7460   -2.8880    2.3710 hc        1 U05      0.047033
@<TRIPOS>BOND
     1    1    2 ar  
     2    1   22 ar  
     3    2    3 ar  
     4    2   23 1   
     5    3    4 ar  
     6    3   24 1   
     7    4    5 ar  
     8    4   25 1   
     9    5    6 1   
    10    5   22 ar  
    11    6    7 2   
    12    6    8 1   
    13    8    9 1   
    14    8   10 1   
    15    9   26 1   
    16    9   27 1   
    17    9   28 1   
    18   10   11 ar  
    19   10   18 ar  
    20   11   12 ar  
    21   11   29 1   
    22   12   13 ar  
    23   12   30 1   
    24   13   14 1   
    25   13   17 ar  
    26   14   15 1   
    27   14   16 1   
    28   17   18 ar  
    29   17   31 1   
    30   18   19 1   
    31   19   20 1   
    32   19   22 1   
    33   20   21 1   
    34   20   32 1   
    35   20   33 1   
    36   21   34 1   
    37   21   35 1   
    38   21   36 1   
@<TRIPOS>SUBSTRUCTURE
     1 U05         1 TEMP              0 ****  ****    0 ROOT
