@<TRIPOS>MOLECULE
U05
   36    38     1     0     0
SMALL
bcc


@<TRIPOS>ATOM
      1 N1         -0.2800    0.3020    0.1500 nb        1 U05     -0.700000
      2 C2          1.0590    0.2960    0.1090 ca        1 U05      0.441200
      3 C3          1.8850    0.1760    1.2430 ca        1 U05     -0.270300
      4 C4          1.2750    0.0730    2.4880 ca        1 U05     -0.029000
      5 C4A        -0.1250    0.0750    2.5720 ca        1 U05     -0.258900
      6 C5         -0.7330    0.0580    3.9240 c         1 U05      0.739100
      7 O13        -0.1900    0.6770    4.8610 o         1 U05     -0.618500
      8 N6         -1.8900   -0.6800    4.2020 n         1 U05     -0.375000
      9 C12        -2.3730   -0.6880    5.5660 c3        1 U05      0.073300
     10 C6A        -2.5910   -1.4670    3.2720 ca        1 U05      0.119600
     11 C7         -3.1340   -2.7050    3.6900 ca        1 U05     -0.173000
     12 C8         -3.8800   -3.5020    2.8360 ca        1 U05     -0.052000
     13 C9         -4.0940   -3.0790    1.5160 ca        1 U05     -0.189200
     14 N          -4.8940   -3.9230    0.5930 no        1 U05      0.317200
     15 O1         -5.3350   -4.9670    0.9960 o         1 U05     -0.208500
     16 O2         -5.0830   -3.5410   -0.5310 o         1 U05     -0.208500
     17 C10        -3.5550   -1.8710    1.0560 ca        1 U05     -0.077000
     18 C11        -2.8180   -1.0470    1.9220 ca        1 U05      0.076600
     19 N11        -2.3130    0.2220    1.4990 na        1 U05     -0.621700
     20 C14        -3.0760    0.8910    0.4510 c3        1 U05      0.190800
     21 C15        -2.8330    2.3910    0.4020 c3        1 U05     -0.096100
     22 C1A        -0.8840    0.1940    1.3730 ca        1 U05      0.645200
     23 H2          1.4970    0.3880   -0.9040 h4        1 U05      0.031100
     24 H3          2.9780    0.1740    1.1400 ha        1 U05      0.155000
     25 H4          1.8710    0.0070    3.4130 ha        1 U05      0.163000
     26 H121       -3.4820   -0.8560    5.5800 h1        1 U05      0.056700
     27 H122       -1.8650   -1.5000    6.1520 h1        1 U05      0.056700
     28 H123       -2.1440    0.3000    6.0490 h1        1 U05      0.056700
     29 H7         -2.9670   -3.0570    4.7220 ha        1 U05      0.156000
     30 H8         -4.2970   -4.4600    3.1900 ha        1 U05      0.174000
     31 H10        -3.7250   -1.5690    0.0050 ha        1 U05      0.180000
     32 H141       -2.8680    0.4540   -0.5690 h1        1 U05      0.051200
     33 H142       -4.1660    0.7150    0.6850 h1        1 U05      0.051200
     34 H151       -3.5100    2.8280   -0.3720 hc        1 U05      0.047033
     35 H152       -3.0570    2.8700    1.3850 hc        1 U05      0.047033
     36 H153       -1.7780    2.6270    0.1230 hc        1 U05      0.047033
@<TRIPOS>BOND
     1    1    2 ar  
     2    1   22 ar  
     3    2    3 ar  
     4    2   23 1   
     5    3    4 ar  
     6    3   24 1   
     7    4    5 ar  
     8    4   25 1   
     9    5    6 1   
    10    5   22 ar  
    11    6    7 2   
    12    6    8 1   
    13    8    9 1   
    14    8   10 1   
    15    9   26 1   
    16    9   27 1   
    17    9   28 1   
    18   10   11 ar  
    19   10   18 ar  
    20   11   12 ar  
    21   11   29 1   
    22   12   13 ar  
    23   12   30 1   
    24   13   14 1   
    25   13   17 ar  
    26   14   15 1   
    27   14   16 1   
    28   17   18 ar  
    29   17   31 1   
    30   18   19 1   
    31   19   20 1   
    32   19   22 1   
    33   20   21 1   
    34   20   32 1   
    35   20   33 1   
    36   21   34 1   
    37   21   35 1   
    38   21   36 1   
@<TRIPOS>SUBSTRUCTURE
     1 U05         1 TEMP              0 ****  ****    0 ROOT
