@<TRIPOS>MOLECULE
U05
   36    38     1     0     0
SMALL
bcc


@<TRIPOS>ATOM
      1 N1         -0.2780    0.3000    0.1510 nb        1 U05     -0.700000
      2 C2          1.0620    0.2930    0.1110 ca        1 U05      0.441200
      3 C3          1.8860    0.1720    1.2460 ca        1 U05     -0.270300
      4 C4          1.2750    0.0700    2.4910 ca        1 U05     -0.029000
      5 C4A        -0.1250    0.0730    2.5740 ca        1 U05     -0.258900
      6 C5         -0.7340    0.0570    3.9250 c         1 U05      0.739100
      7 O13        -0.1910    0.6750    4.8620 o         1 U05     -0.618500
      8 N6         -1.8920   -0.6800    4.2020 n         1 U05     -0.375000
      9 C12        -2.3760   -0.6880    5.5660 c3        1 U05      0.073300
     10 C6A        -2.5930   -1.4660    3.2710 ca        1 U05      0.119600
     11 C7         -3.1380   -2.7040    3.6890 ca        1 U05     -0.173000
     12 C8         -3.8840   -3.5000    2.8340 ca        1 U05     -0.052000
     13 C9         -4.0960   -3.0770    1.5150 ca        1 U05     -0.189200
     14 N          -4.8970   -3.9200    0.5910 no        1 U05      0.317200
     15 O1         -5.3390   -4.9630    0.9930 o         1 U05     -0.208500
     16 O2         -5.0840   -3.5380   -0.5330 o         1 U05     -0.208500
     17 C10        -3.5550   -1.8700    1.0550 ca        1 U05     -0.077000
     18 C11        -2.8180   -1.0460    1.9210 ca        1 U05      0.076600
     19 N11        -2.3120    0.2220    1.4980 na        1 U05     -0.621700
     20 C14        -3.0730    0.8920    0.4500 c3        1 U05      0.190800
     21 C15        -2.8280    2.3920    0.4010 c3        1 U05     -0.096100
     22 C1A        -0.8820    0.1930    1.3740 ca        1 U05      0.645200
     23 H2          1.5010    0.3840   -0.9010 h4        1 U05      0.031100
     24 H3          2.9790    0.1690    1.1440 ha        1 U05      0.155000
     25 H4          1.8710    0.0030    3.4170 ha        1 U05      0.163000
     26 H121       -3.4850   -0.8540    5.5780 h1        1 U05      0.056700
     27 H122       -1.8690   -1.5000    6.1530 h1        1 U05      0.056700
     28 H123       -2.1460    0.3000    6.0490 h1        1 U05      0.056700
     29 H7         -2.9710   -3.0560    4.7210 ha        1 U05      0.156000
     30 H8         -4.3020   -4.4580    3.1880 ha        1 U05      0.174000
     31 H10        -3.7240   -1.5670    0.0040 ha        1 U05      0.180000
     32 H141       -2.8650    0.4550   -0.5690 h1        1 U05      0.051200
     33 H142       -4.1640    0.7180    0.6840 h1        1 U05      0.051200
     34 H151       -3.5050    2.8300   -0.3730 hc        1 U05      0.047033
     35 H152       -3.0520    2.8710    1.3840 hc        1 U05      0.047033
     36 H153       -1.7740    2.6270    0.1230 hc        1 U05      0.047033
@<TRIPOS>BOND
     1    1    2 ar  
     2    1   22 ar  
     3    2    3 ar  
     4    2   23 1   
     5    3    4 ar  
     6    3   24 1   
     7    4    5 ar  
     8    4   25 1   
     9    5    6 1   
    10    5   22 ar  
    11    6    7 2   
    12    6    8 1   
    13    8    9 1   
    14    8   10 1   
    15    9   26 1   
    16    9   27 1   
    17    9   28 1   
    18   10   11 ar  
    19   10   18 ar  
    20   11   12 ar  
    21   11   29 1   
    22   12   13 ar  
    23   12   30 1   
    24   13   14 1   
    25   13   17 ar  
    26   14   15 1   
    27   14   16 1   
    28   17   18 ar  
    29   17   31 1   
    30   18   19 1   
    31   19   20 1   
    32   19   22 1   
    33   20   21 1   
    34   20   32 1   
    35   20   33 1   
    36   21   34 1   
    37   21   35 1   
    38   21   36 1   
@<TRIPOS>SUBSTRUCTURE
     1 U05         1 TEMP              0 ****  ****    0 ROOT
