@<TRIPOS>MOLECULE
U05
   36    38     1     0     0
SMALL
bcc


@<TRIPOS>ATOM
      1 N1         -0.2810    0.3010    0.1490 nb        1 U05     -0.700000
      2 C2          1.0580    0.2920    0.1050 ca        1 U05      0.441200
      3 C3          1.8850    0.1690    1.2380 ca        1 U05     -0.270300
      4 C4          1.2770    0.0650    2.4840 ca        1 U05     -0.029000
      5 C4A        -0.1230    0.0690    2.5700 ca        1 U05     -0.258900
      6 C5         -0.7280    0.0520    3.9230 c         1 U05      0.739100
      7 O13        -0.1830    0.6680    4.8600 o         1 U05     -0.618500
      8 N6         -1.8870   -0.6840    4.2020 n         1 U05     -0.375000
      9 C12        -2.3670   -0.6930    5.5670 c3        1 U05      0.073300
     10 C6A        -2.5910   -1.4670    3.2720 ca        1 U05      0.119600
     11 C7         -3.1370   -2.7050    3.6890 ca        1 U05     -0.173000
     12 C8         -3.8860   -3.4980    2.8340 ca        1 U05     -0.052000
     13 C9         -4.1010   -3.0730    1.5160 ca        1 U05     -0.189200
     14 N          -4.9050   -3.9130    0.5930 no        1 U05      0.317200
     15 O1         -5.3470   -4.9570    0.9940 o         1 U05     -0.208500
     16 O2         -5.0950   -3.5290   -0.5300 o         1 U05     -0.208500
     17 C10        -3.5600   -1.8660    1.0570 ca        1 U05     -0.077000
     18 C11        -2.8200   -1.0450    1.9220 ca        1 U05      0.076600
     19 N11        -2.3120    0.2230    1.5000 na        1 U05     -0.621700
     20 C14        -3.0750    0.8970    0.4550 c3        1 U05      0.190800
     21 C15        -2.8280    2.3960    0.4080 c3        1 U05     -0.096100
     22 C1A        -0.8830    0.1920    1.3730 ca        1 U05      0.645200
     23 H2          1.4950    0.3840   -0.9080 h4        1 U05      0.031100
     24 H3          2.9780    0.1640    1.1330 ha        1 U05      0.155000
     25 H4          1.8750   -0.0040    3.4080 ha        1 U05      0.163000
     26 H121       -3.4770   -0.8580    5.5820 h1        1 U05      0.056700
     27 H122       -2.1350    0.2940    6.0510 h1        1 U05      0.056700
     28 H123       -1.8600   -1.5070    6.1510 h1        1 U05      0.056700
     29 H7         -2.9680   -3.0590    4.7200 ha        1 U05      0.156000
     30 H8         -4.3050   -4.4570    3.1880 ha        1 U05      0.174000
     31 H10        -3.7310   -1.5610    0.0070 ha        1 U05      0.180000
     32 H141       -4.1650    0.7230    0.6910 h1        1 U05      0.051200
     33 H142       -2.8700    0.4610   -0.5650 h1        1 U05      0.051200
     34 H151       -3.0490    2.8740    1.3920 hc        1 U05      0.047033
     35 H152       -1.7740    2.6300    0.1280 hc        1 U05      0.047033
     36 H153       -3.5060    2.8360   -0.3640 hc        1 U05      0.047033
@<TRIPOS>BOND
     1    1    2 ar  
     2    1   22 ar  
     3    2    3 ar  
     4    2   23 1   
     5    3    4 ar  
     6    3   24 1   
     7    4    5 ar  
     8    4   25 1   
     9    5    6 1   
    10    5   22 ar  
    11    6    7 2   
    12    6    8 1   
    13    8    9 1   
    14    8   10 1   
    15    9   26 1   
    16    9   27 1   
    17    9   28 1   
    18   10   11 ar  
    19   10   18 ar  
    20   11   12 ar  
    21   11   29 1   
    22   12   13 ar  
    23   12   30 1   
    24   13   14 1   
    25   13   17 ar  
    26   14   15 1   
    27   14   16 1   
    28   17   18 ar  
    29   17   31 1   
    30   18   19 1   
    31   19   20 1   
    32   19   22 1   
    33   20   21 1   
    34   20   32 1   
    35   20   33 1   
    36   21   34 1   
    37   21   35 1   
    38   21   36 1   
@<TRIPOS>SUBSTRUCTURE
     1 U05         1 TEMP              0 ****  ****    0 ROOT
