@<TRIPOS>MOLECULE
U0E
   94    94     1     0     0
SMALL
bcc


@<TRIPOS>ATOM
      1 C1          0.5600   -3.9030    5.0300 c3        1 U0E     -0.177100
      2 C2          0.2830   -2.4850    4.5920 c         1 U0E      0.669100
      3 C3          0.8710   -0.0890    4.8480 c3        1 U0E      0.066700
      4 C4          1.0160    0.7690    6.1140 c3        1 U0E     -0.091400
      5 C5          0.0210    0.4350    7.2120 c3        1 U0E     -0.063700
      6 C6          0.4410    1.1290    8.5040 c3        1 U0E     -0.075400
      7 C7         -0.5380    0.8450    9.6240 c3        1 U0E     -0.075900
      8 C8         -1.9480    1.2420    9.2400 c3        1 U0E     -0.077400
      9 C9         -2.3720    0.5700    7.9510 c3        1 U0E     -0.075900
     10 C10        -1.3930    0.8530    6.8300 c3        1 U0E     -0.075400
     11 C11         1.8200    0.5020    3.7620 c3        1 U0E      0.130100
     12 C12         1.6630   -0.2320    2.4350 c3        1 U0E     -0.114400
     13 C13         1.6970    0.7020    1.2310 c3        1 U0E     -0.116700
     14 C14         3.0930    1.2660    0.9630 c3        1 U0E     -0.066700
     15 C15         4.0070    0.2840    0.2640 c3        1 U0E     -0.094100
     16 C16         3.0000    2.5530    0.1680 c3        1 U0E     -0.094100
     17 C17         1.1600   -0.1000    0.0450 c         1 U0E      0.668100
     18 C18        -0.6340   -0.3160   -1.6300 c3        1 U0E      0.039700
     19 C19        -1.8610   -1.0160   -1.0140 c3        1 U0E     -0.094400
     20 C20        -1.4540   -1.9990    0.0600 c3        1 U0E     -0.154400
     21 C21        -2.6120   -2.9140    0.4120 c         1 U0E      0.658100
     22 C22        -1.1730    0.5830   -2.7710 c         1 U0E      0.652100
     23 C23        -1.9400    0.6430   -5.1230 c3        1 U0E      0.035700
     24 C24        -3.4390    0.3750   -5.4050 c         1 U0E      0.638100
     25 C25        -1.1830    0.3290   -6.4250 c3        1 U0E     -0.090400
     26 C26         0.2220    0.8880   -6.4020 c3        1 U0E     -0.090400
     27 C27         0.8980    0.6180   -7.7490 c3        1 U0E      0.182800
     28 C28         2.9850    0.9580   -9.0160 c2        1 U0E      0.744100
     29 N1          1.1080   -1.4950    5.0870 n         1 U0E     -0.565900
     30 N2          0.1330    0.4610   -0.6910 n         1 U0E     -0.566900
     31 N3         -2.6880   -3.3940    1.6920 n         1 U0E     -0.670000
     32 N4         -1.4060   -0.0440   -3.9770 n         1 U0E     -0.573900
     33 N6          2.2670    1.0960   -7.7750 nh        1 U0E     -0.795200
     34 N7          2.4640    0.2970  -10.0210 n2        1 U0E     -0.871100
     35 N8          4.2700    1.6020   -9.0380 nh        1 U0E     -0.933800
     36 O1         -0.6390   -2.2210    3.7890 o         1 U0E     -0.646100
     37 O2          3.1640    0.5190    4.2090 oh        1 U0E     -0.595800
     38 O3          1.5920   -1.2380   -0.2320 o         1 U0E     -0.618100
     39 O4         -3.4630   -3.2560   -0.4400 o         1 U0E     -0.643100
     40 O5         -1.4260    1.7900   -2.5940 o         1 U0E     -0.602100
     41 O6         -4.0120    1.0580   -6.2790 o         1 U0E     -0.617100
     42 H11A        0.4620   -3.9970    6.1380 hc        1 U0E      0.069367
     43 H12        -0.1800   -4.5810    4.5400 hc        1 U0E      0.069367
     44 H13A        1.5890   -4.2120    4.7260 hc        1 U0E      0.069367
     45 H3         -0.1840    0.0220    4.4500 h1        1 U0E      0.087700
     46 H41         2.0630    0.6660    6.5070 hc        1 U0E      0.057700
     47 H42         0.8840    1.8410    5.8120 hc        1 U0E      0.057700
     48 H5          0.0220   -0.6750    7.3990 hc        1 U0E      0.043700
     49 H61         1.4630    0.7780    8.8020 hc        1 U0E      0.041700
     50 H62         0.5010    2.2340    8.3270 hc        1 U0E      0.041700
     51 H71        -0.5130   -0.2480    9.8750 hc        1 U0E      0.040200
     52 H72        -0.2260    1.4080   10.5430 hc        1 U0E      0.040200
     53 H81        -2.6550    0.9600   10.0620 hc        1 U0E      0.040700
     54 H82        -2.0020    2.3560    9.1160 hc        1 U0E      0.040700
     55 H91        -2.4440   -0.5380    8.1130 hc        1 U0E      0.040200
     56 H92        -3.3910    0.9330    7.6550 hc        1 U0E      0.040200
     57 H101       -1.4040    1.9490    6.5910 hc        1 U0E      0.041700
     58 H102       -1.7150    0.3010    5.9090 hc        1 U0E      0.041700
     59 H11         1.5650    1.5960    3.6490 h1        1 U0E      0.079700
     60 H121        0.6810   -0.7810    2.4290 hc        1 U0E      0.072200
     61 H122        2.4710   -1.0030    2.3220 hc        1 U0E      0.072200
     62 H13         1.0160    1.5750    1.4460 hc        1 U0E      0.058700
     63 H14         3.5390    1.5020    1.9760 hc        1 U0E      0.070700
     64 H151        5.0520    0.6760    0.2550 hc        1 U0E      0.039867
     65 H152        3.9940   -0.7040    0.7840 hc        1 U0E      0.039867
     66 H153        3.6780    0.1190   -0.7910 hc        1 U0E      0.039867
     67 H161        2.4760    2.3800   -0.8030 hc        1 U0E      0.039867
     68 H162        2.4390    3.3310    0.7400 hc        1 U0E      0.039867
     69 H163        4.0240    2.9440   -0.0470 hc        1 U0E      0.039867
     70 H18         0.0550   -1.1110   -2.0520 h1        1 U0E      0.095700
     71 H191       -2.5660   -0.2550   -0.5900 hc        1 U0E      0.067200
     72 H192       -2.4060   -1.5640   -1.8300 hc        1 U0E      0.067200
     73 H201       -0.6060   -2.6420   -0.3040 hc        1 U0E      0.078200
     74 H202       -1.0830   -1.4520    0.9680 hc        1 U0E      0.078200
     75 H23        -1.8760    1.7600   -4.9250 h1        1 U0E      0.116700
     76 H251       -1.1540   -0.7780   -6.6010 hc        1 U0E      0.069200
     77 H252       -1.7630    0.7910   -7.2700 hc        1 U0E      0.069200
     78 H261        0.1850    1.9910   -6.2000 hc        1 U0E      0.049700
     79 H262        0.8150    0.4150   -5.5760 hc        1 U0E      0.049700
     80 H271        0.9190   -0.4940   -7.9340 h1        1 U0E      0.056700
     81 H272        0.2710    1.0830   -8.5650 h1        1 U0E      0.056700
     82 HN1         1.7710   -1.7260    5.7870 hn        1 U0E      0.310500
     83 HN2        -0.2050    1.3710   -0.4780 hn        1 U0E      0.331500
     84 HN31       -3.4420   -3.9800    1.9470 hn        1 U0E      0.322000
     85 HN32       -2.0570   -3.0890    2.3930 hn        1 U0E      0.322000
     86 HN4        -1.1190   -0.9860   -4.1010 hn        1 U0E      0.318500
     87 HN51       -5.0950   -0.7090   -4.9190 hn        1 U0E      0.313500
     88 HN52       -3.7470   -1.0810   -3.9650 hn        1 U0E      0.313500
     89 HN6         2.3380    2.0270   -7.4090 hn        1 U0E      0.388800
     90 HN7         3.0620    0.1720  -10.8080 hn        1 U0E      0.390400
     91 HN81        4.9330    1.1340   -9.6170 hn        1 U0E      0.388800
     92 HN82        4.6510    1.8190   -8.1430 hn        1 U0E      0.388800
     93 HO2         3.4910   -0.3890    4.1970 ho        1 U0E      0.401000
     94 N5         -4.1240   -0.6090   -4.7450 n         1 U0E     -0.658000
@<TRIPOS>BOND
     1    1    2 1   
     2    1   42 1   
     3    1   43 1   
     4    1   44 1   
     5    2   29 1   
     6    2   36 2   
     7    3    4 1   
     8    3   11 1   
     9    3   29 1   
    10    3   45 1   
    11    4    5 1   
    12    4   46 1   
    13    4   47 1   
    14    5    6 1   
    15    5   10 1   
    16    5   48 1   
    17    6    7 1   
    18    6   49 1   
    19    6   50 1   
    20    7    8 1   
    21    7   51 1   
    22    7   52 1   
    23    8    9 1   
    24    8   53 1   
    25    8   54 1   
    26    9   10 1   
    27    9   55 1   
    28    9   56 1   
    29   10   57 1   
    30   10   58 1   
    31   11   12 1   
    32   11   37 1   
    33   11   59 1   
    34   12   13 1   
    35   12   60 1   
    36   12   61 1   
    37   13   14 1   
    38   13   17 1   
    39   13   62 1   
    40   14   15 1   
    41   14   16 1   
    42   14   63 1   
    43   15   64 1   
    44   15   65 1   
    45   15   66 1   
    46   16   67 1   
    47   16   68 1   
    48   16   69 1   
    49   17   30 1   
    50   17   38 2   
    51   18   19 1   
    52   18   22 1   
    53   18   30 1   
    54   18   70 1   
    55   19   20 1   
    56   19   71 1   
    57   19   72 1   
    58   20   21 1   
    59   20   73 1   
    60   20   74 1   
    61   21   31 1   
    62   21   39 2   
    63   22   32 1   
    64   22   40 2   
    65   23   24 1   
    66   23   25 1   
    67   23   32 1   
    68   23   75 1   
    69   24   41 2   
    70   24   94 1   
    71   25   26 1   
    72   25   76 1   
    73   25   77 1   
    74   26   27 1   
    75   26   78 1   
    76   26   79 1   
    77   27   33 1   
    78   27   80 1   
    79   27   81 1   
    80   28   33 1   
    81   28   34 2   
    82   28   35 1   
    83   29   82 1   
    84   30   83 1   
    85   31   84 1   
    86   31   85 1   
    87   32   86 1   
    88   33   89 1   
    89   34   90 1   
    90   35   91 1   
    91   35   92 1   
    92   37   93 1   
    93   87   94 1   
    94   88   94 1   
@<TRIPOS>SUBSTRUCTURE
     1 U0E         1 TEMP              0 ****  ****    0 ROOT
