@<TRIPOS>MOLECULE
U11
   47    45     1     0     0
SMALL
bcc


@<TRIPOS>ATOM
      1 F29         2.1990   -3.7250    7.2130 f         1 U11     -0.165667
      2 C9          2.2760   -2.4170    7.4700 c3        1 U11      0.466000
      3 F30         1.4170   -2.1020    8.4500 f         1 U11     -0.165667
      4 F31         3.5220   -2.1100    7.8530 f         1 U11     -0.165667
      5 C5          1.9220   -1.6280    6.2080 c2        1 U11     -0.155000
      6 C2          0.6530   -1.0720    6.0700 c2        1 U11     -0.086000
      7 C4          0.3110   -0.3970    4.8960 c1        1 U11     -0.128000
      8 C6          2.8490   -1.5120    5.1770 c1        1 U11     -0.085000
      9 C3          2.5070   -0.8380    4.0050 c1        1 U11     -0.101000
     10 C7          1.2360   -0.2810    3.8670 c1        1 U11     -0.063000
     11 C11         0.8940    0.5490    2.6200 c3        1 U11     -0.014000
     12 N24         1.9840    1.3660    2.2890 n3        1 U11     -0.361000
     13 C23         0.5880   -0.3770    1.4640 c3        1 U11      0.026000
     14 O27         1.7940   -0.8940    0.9440 oh        1 U11     -0.312000
     15 C25        -0.1430    0.3900    0.3790 c2        1 U11      0.273000
     16 O31        -1.0860    1.1060    0.6690 o         1 U11     -0.388000
     17 N32         0.2220    0.2150   -0.9800 n         1 U11     -0.354000
     18 C33        -0.4120    0.9800   -1.9850 c3        1 U11      0.013000
     19 C37         0.4960    2.1090   -2.4070 c3        1 U11     -0.230000
     20 C36        -0.7120    0.0930   -3.1860 c2        1 U11      0.276000
     21 O41        -0.3480   -1.0750   -3.1910 o         1 U11     -0.357000
     22 N42        -1.4390    0.6260   -4.3110 n         1 U11     -0.355000
     23 C43        -2.0410   -0.2680   -5.2670 c3        1 U11     -0.030000
     24 C47        -2.7380    0.5610   -6.3880 c2        1 U11      0.270000
     25 O60        -2.8300    1.7690   -6.2830 o         1 U11     -0.357000
     26 O61        -3.3090   -0.1150   -7.5440 os        1 U11     -0.270000
     27 C62        -4.3530    0.6370   -8.2110 c3        1 U11     -0.064000
     28 H2         -0.0010   -1.1540    6.7970 ha        1 U11      0.153000
     29 H4         -0.5790   -0.0070    4.7990 ha        1 U11      0.144000
     30 H6          3.7410   -1.9030    5.2740 ha        1 U11      0.154000
     31 H3          3.1570   -0.7560    3.2820 ha        1 U11      0.156000
     32 H11         0.1110    1.1090    2.8060 h1        1 U11      0.096000
     33 H241        2.3620    1.7000    3.0590 hn        1 U11      0.166500
     34 H242        1.6950    2.0630    1.7620 hn        1 U11      0.166500
     35 H23         0.0320   -1.1060    1.7740 h1        1 U11      0.142000
     36 HO27        1.7600   -1.7710    0.9420 ho        1 U11      0.225000
     37 HN32        0.8120   -0.4330   -1.2100 hn        1 U11      0.254000
     38 H33        -1.2490    1.3480   -1.6340 h1        1 U11      0.143000
     39 H371        0.8700    2.5390   -1.6160 hc        1 U11      0.095000
     40 H372        1.2270    1.7520   -2.9650 hc        1 U11      0.095000
     41 H373       -0.0190    2.7670   -2.9240 hc        1 U11      0.095000
     42 HN42       -1.5610    1.5130   -4.3870 hn        1 U11      0.234000
     43 H431       -1.3470   -0.8380   -5.6640 h1        1 U11      0.143500
     44 H432       -2.7030   -0.8280   -4.8170 h1        1 U11      0.143500
     45 H621       -4.0040    1.5210   -8.4790 h1        1 U11      0.093333
     46 H622       -5.1090    0.7560   -7.6030 h1        1 U11      0.093333
     47 H623       -4.6540    0.1390   -9.0210 h1        1 U11      0.093333
@<TRIPOS>BOND
     1    1    2 1   
     2    2    3 1   
     3    2    4 1   
     4    2    5 1   
     5    5    6 1   
     6    5    8 1   
     7    6    7 1   
     8    6   28 1   
     9    7   29 1   
    10    8   30 1   
    11    9   10 1   
    12    9   31 1   
    13   10   11 1   
    14   11   12 1   
    15   11   13 1   
    16   11   32 1   
    17   12   33 1   
    18   12   34 1   
    19   13   14 1   
    20   13   15 1   
    21   13   35 1   
    22   14   36 1   
    23   15   16 1   
    24   15   17 1   
    25   17   18 1   
    26   17   37 1   
    27   18   19 1   
    28   18   20 1   
    29   18   38 1   
    30   19   39 1   
    31   19   40 1   
    32   19   41 1   
    33   20   21 1   
    34   20   22 1   
    35   22   23 1   
    36   22   42 1   
    37   23   24 1   
    38   23   43 1   
    39   23   44 1   
    40   24   25 1   
    41   24   26 1   
    42   26   27 1   
    43   27   45 1   
    44   27   46 1   
    45   27   47 1   
@<TRIPOS>SUBSTRUCTURE
     1 U11         1 TEMP              0 ****  ****    0 ROOT
