@<TRIPOS>MOLECULE
U11
   47    47     1     0     0
SMALL
bcc


@<TRIPOS>ATOM
      1 F29        -6.3130    2.9440   -0.8770 f         1 U11     -0.236633
      2 C9         -6.2120    1.5740   -0.8790 c3        1 U11      0.687200
      3 F30        -6.5350    1.2180   -2.1670 f         1 U11     -0.236633
      4 F31        -7.2910    1.1570   -0.1380 f         1 U11     -0.236633
      5 C5         -4.8690    1.0360   -0.4020 ca        1 U11     -0.163300
      6 C2         -4.8040   -0.2090    0.2270 ca        1 U11     -0.084000
      7 C4         -3.5720   -0.7040    0.6490 ca        1 U11     -0.123000
      8 C6         -3.7100    1.7850   -0.6130 ca        1 U11     -0.084000
      9 C3         -2.4790    1.2850   -0.1890 ca        1 U11     -0.123000
     10 C7         -2.4050    0.0390    0.4420 ca        1 U11     -0.110300
     11 C11        -1.0660   -0.4810    0.9180 c3        1 U11      0.183800
     12 N24        -0.8970   -0.4850    2.3560 n3        1 U11     -0.898800
     13 C23        -0.8200   -1.8910    0.3070 c3        1 U11      0.088100
     14 O27        -1.5490   -2.8980    0.9730 oh        1 U11     -0.593800
     15 C25         0.6800   -2.2170    0.3510 c         1 U11      0.637100
     16 O31         1.1060   -3.0610    1.1620 o         1 U11     -0.597100
     17 N32         1.4960   -1.6050   -0.5820 n         1 U11     -0.539900
     18 C33         2.9340   -1.6730   -0.4840 c3        1 U11      0.033700
     19 C37         3.5980   -2.0930   -1.7970 c3        1 U11     -0.107100
     20 C36         3.5360   -0.2960   -0.0980 c         1 U11      0.633100
     21 O41         2.9570    0.7720   -0.3750 o         1 U11     -0.610100
     22 N42         4.7310   -0.3160    0.6010 n         1 U11     -0.543900
     23 C43         5.4760    0.8800    0.8500 c3        1 U11      0.037000
     24 C47         6.7610    0.9700    0.0510 c         1 U11      0.599100
     25 O60         7.3370    0.0870   -0.5890 o         1 U11     -0.545000
     26 O61         7.3180    2.2140    0.1060 os        1 U11     -0.431900
     27 C62         8.5470    2.4000   -0.6000 c3        1 U11      0.125700
     28 H2         -5.7240   -0.7920    0.3910 ha        1 U11      0.153500
     29 H4         -3.5080   -1.6950    1.1310 ha        1 U11      0.155000
     30 H6         -3.7720    2.7680   -1.1070 ha        1 U11      0.153500
     31 H3         -1.5670    1.8790   -0.3540 ha        1 U11      0.155000
     32 H11        -0.2650    0.2090    0.5060 h1        1 U11      0.074700
     33 H241       -1.0340    0.4340    2.7280 hn        1 U11      0.360800
     34 H242       -1.5450   -1.1170    2.7870 hn        1 U11      0.360800
     35 H23        -1.2060   -1.9040   -0.7510 h1        1 U11      0.097700
     36 HO27       -1.0200   -3.2190    1.7210 ho        1 U11      0.437000
     37 HN32        1.1370   -0.8240   -1.0860 hn        1 U11      0.321500
     38 H33         3.1890   -2.4360    0.3150 h1        1 U11      0.107700
     39 H371        4.7020   -2.1640   -1.6440 hc        1 U11      0.055700
     40 H372        3.2160   -3.0910   -2.1200 hc        1 U11      0.055700
     41 H373        3.3940   -1.3520   -2.6070 hc        1 U11      0.055700
     42 HN42        5.2410   -1.1700    0.6360 hn        1 U11      0.322500
     43 H431        5.7670    0.9110    1.9410 h1        1 U11      0.104200
     44 H432        4.8430    1.7880    0.6210 h1        1 U11      0.104200
     45 H621        8.7980    3.4730   -0.4120 h1        1 U11      0.054367
     46 H622        9.3290    1.7170   -0.1880 h1        1 U11      0.054367
     47 H623        8.3950    2.1970   -1.6870 h1        1 U11      0.054367
@<TRIPOS>BOND
     1    1    2 1   
     2    2    3 1   
     3    2    4 1   
     4    2    5 1   
     5    5    6 ar  
     6    5    8 ar  
     7    6    7 ar  
     8    6   28 1   
     9    7   10 ar  
    10    7   29 1   
    11    8    9 ar  
    12    8   30 1   
    13    9   10 ar  
    14    9   31 1   
    15   10   11 1   
    16   11   12 1   
    17   11   13 1   
    18   11   32 1   
    19   12   33 1   
    20   12   34 1   
    21   13   14 1   
    22   13   15 1   
    23   13   35 1   
    24   14   36 1   
    25   15   16 2   
    26   15   17 1   
    27   17   18 1   
    28   17   37 1   
    29   18   19 1   
    30   18   20 1   
    31   18   38 1   
    32   19   39 1   
    33   19   40 1   
    34   19   41 1   
    35   20   21 2   
    36   20   22 1   
    37   22   23 1   
    38   22   42 1   
    39   23   24 1   
    40   23   43 1   
    41   23   44 1   
    42   24   25 2   
    43   24   26 1   
    44   26   27 1   
    45   27   45 1   
    46   27   46 1   
    47   27   47 1   
@<TRIPOS>SUBSTRUCTURE
     1 U11         1 TEMP              0 ****  ****    0 ROOT
