@<TRIPOS>MOLECULE
U11
   50    50     1     0     0
SMALL
bcc


@<TRIPOS>ATOM
      1 F29        -0.6600   -0.5020   -2.4370 f         1 U11     -0.201633
      2 C9          0.3470   -0.6480   -1.5200 c3        1 U11      0.690200
      3 F30        -0.2720   -0.9740   -0.3420 f         1 U11     -0.201633
      4 F31         0.8640    0.6060   -1.3320 f         1 U11     -0.201633
      5 C5          1.4140   -1.6740   -1.9450 ca        1 U11     -0.099300
      6 C2          2.1490   -2.3500   -0.9630 ca        1 U11     -0.054000
      7 C4          3.1210   -3.2710   -1.3410 ca        1 U11     -0.115500
      8 C6          1.6540   -1.9100   -3.2990 ca        1 U11     -0.054000
      9 C3          2.6340   -2.8300   -3.6800 ca        1 U11     -0.115500
     10 C7          3.3630   -3.5160   -2.7030 ca        1 U11     -0.217300
     11 C11         4.4180   -4.4920   -3.1340 c3        1 U11      0.178800
     12 N24         5.7590   -4.0690   -2.6030 nz        1 U11     -0.841600
     13 C23         4.0060   -5.9270   -2.6910 c3        1 U11      0.073100
     14 O27         4.3520   -6.1970   -1.3520 oh        1 U11     -0.613800
     15 C25         4.7280   -6.9980   -3.5260 c         1 U11      0.539100
     16 O31         5.4940   -6.7930   -4.4500 o         1 U11     -0.388100
     17 N32         4.4210   -8.4250   -3.1320 ny        1 U11     -0.674800
     18 C33         5.2780   -9.4680   -3.8100 c3        1 U11      0.098500
     19 C37         6.7330   -9.4310   -3.3600 c3        1 U11     -0.153100
     20 C36         4.7120  -10.8620   -3.4770 c         1 U11      0.525100
     21 O41         4.1960  -11.1590   -2.4110 o         1 U11     -0.366100
     22 N42         4.8350  -11.9320   -4.5250 ny        1 U11     -0.650800
     23 C43         3.4920  -12.3640   -5.0380 c3        1 U11      0.032800
     24 C47         2.5780  -11.1840   -5.3150 c         1 U11      0.666100
     25 O60         2.7790  -10.0370   -4.8670 o         1 U11     -0.676000
     26 O61         1.5320  -11.5000   -6.0690 os        1 U11     -0.340900
     27 C62         0.5440  -10.4790   -6.3540 c3        1 U11      0.123700
     28 H2          1.9500   -2.1470    0.1070 ha        1 U11      0.201500
     29 H4          3.6990   -3.7860   -0.5590 ha        1 U11      0.144000
     30 H6          1.0700   -1.3670   -4.0680 ha        1 U11      0.201500
     31 H3          2.8210   -2.9970   -4.7540 ha        1 U11      0.144000
     32 H11         4.5010   -4.4860   -4.2680 hx        1 U11      0.140700
     33 H241        5.8120   -4.2490   -1.5910 hn        1 U11      0.478800
     34 H242        6.5180   -4.5630   -3.0790 hn        1 U11      0.478800
     35 H23         2.8920   -6.0160   -2.8790 h1        1 U11      0.148700
     36 HO27        3.6190   -5.9140   -0.7740 ho        1 U11      0.493000
     37 HN32        3.4290   -8.6210   -3.3720 hn        1 U11      0.501800
     38 H33         5.1990   -9.2590   -4.9240 hx        1 U11      0.158700
     39 H371        7.2020   -8.4500   -3.6320 hc        1 U11      0.109700
     40 H372        7.3070  -10.2310   -3.8950 hc        1 U11      0.109700
     41 H373        6.8400   -9.5970   -2.2580 hc        1 U11      0.109700
     42 HN42        5.2910  -12.7650   -4.1050 hn        1 U11      0.494800
     43 H431        2.9920  -13.0250   -4.2600 hx        1 U11      0.182700
     44 H432        3.6400  -12.9770   -5.9820 hx        1 U11      0.182700
     45 H621        1.0300   -9.6390   -6.9020 h1        1 U11      0.094033
     46 H622        0.0800  -10.1380   -5.3990 h1        1 U11      0.094033
     47 H623       -0.1850  -11.0400   -7.0000 h1        1 U11      0.094033
     48 H243        5.8690   -3.0520   -2.7570 hn        1 U11      0.478800
     49 H322        4.5310   -8.4990   -2.1050 hn        1 U11      0.501800
     50 H422        5.4130  -11.6010   -5.3080 hn        1 U11      0.494800
@<TRIPOS>BOND
     1    1    2 1   
     2    2    3 1   
     3    2    4 1   
     4    2    5 1   
     5    5    6 ar  
     6    5    8 ar  
     7    6    7 ar  
     8    6   28 1   
     9    7   10 ar  
    10    7   29 1   
    11    8    9 ar  
    12    8   30 1   
    13    9   10 ar  
    14    9   31 1   
    15   10   11 1   
    16   11   12 1   
    17   11   13 1   
    18   11   32 1   
    19   12   33 1   
    20   12   34 1   
    21   12   48 1   
    22   13   14 1   
    23   13   15 1   
    24   13   35 1   
    25   14   36 1   
    26   15   16 2   
    27   15   17 1   
    28   17   18 1   
    29   17   37 1   
    30   17   49 1   
    31   18   19 1   
    32   18   20 1   
    33   18   38 1   
    34   19   39 1   
    35   19   40 1   
    36   19   41 1   
    37   20   21 2   
    38   20   22 1   
    39   22   23 1   
    40   22   42 1   
    41   22   50 1   
    42   23   24 1   
    43   23   43 1   
    44   23   44 1   
    45   24   25 2   
    46   24   26 1   
    47   26   27 1   
    48   27   45 1   
    49   27   46 1   
    50   27   47 1   
@<TRIPOS>SUBSTRUCTURE
     1 U11         1 TEMP              0 ****  ****    0 ROOT
