@<TRIPOS>MOLECULE
U11
   50    50     1     0     0
SMALL
bcc


@<TRIPOS>ATOM
      1 F29        -0.8130   -0.6470   -2.2030 f         1 U11     -0.201633
      2 C9          0.2430   -0.7600   -1.3390 c3        1 U11      0.690200
      3 F30        -0.3040   -1.1090   -0.1320 f         1 U11     -0.201633
      4 F31         0.7270    0.5090   -1.1730 f         1 U11     -0.201633
      5 C5          1.3210   -1.7500   -1.8210 ca        1 U11     -0.099300
      6 C2          2.1260   -2.4030   -0.8800 ca        1 U11     -0.054000
      7 C4          3.1070   -3.2900   -1.3100 ca        1 U11     -0.115500
      8 C6          1.4990   -1.9750   -3.1860 ca        1 U11     -0.054000
      9 C3          2.4890   -2.8610   -3.6200 ca        1 U11     -0.115500
     10 C7          3.2880   -3.5250   -2.6830 ca        1 U11     -0.217300
     11 C11         4.3510   -4.4650   -3.1700 c3        1 U11      0.178800
     12 N24         5.7030   -3.9980   -2.7050 n4        1 U11     -0.841600
     13 C23         4.0100   -5.9130   -2.7130 c3        1 U11      0.073100
     14 O27         4.4310   -6.1750   -1.3940 oh        1 U11     -0.613800
     15 C25         4.7240   -6.9580   -3.5870 c         1 U11      0.539100
     16 O31         5.4360   -6.7260   -4.5470 o         1 U11     -0.388100
     17 N32         4.4840   -8.3950   -3.1840 n4        1 U11     -0.674800
     18 C33         5.3400   -9.4080   -3.9070 c3        1 U11      0.098500
     19 C37         6.8140   -9.3230   -3.5300 c3        1 U11     -0.153100
     20 C36         4.8370  -10.8200   -3.5520 c         1 U11      0.525100
     21 O41         4.3850  -11.1370   -2.4630 o         1 U11     -0.366100
     22 N42         4.9430  -11.8840   -4.6080 n4        1 U11     -0.650800
     23 C43         3.5910  -12.3580   -5.0560 c3        1 U11      0.032800
     24 C47         2.6260  -11.2090   -5.2830 c         1 U11      0.666100
     25 O60         2.8120  -10.0570   -4.8420 o         1 U11     -0.676000
     26 O61         1.5550  -11.5570   -5.9860 os        1 U11     -0.340900
     27 C62         0.5210  -10.5690   -6.2180 c3        1 U11      0.123700
     28 H2          1.9750   -2.2090    0.2000 ha        1 U11      0.201500
     29 H4          3.7410   -3.7880   -0.5600 ha        1 U11      0.144000
     30 H6          0.8600   -1.4500   -3.9230 ha        1 U11      0.201500
     31 H3          2.6270   -3.0200   -4.7020 ha        1 U11      0.144000
     32 H11         4.3780   -4.4530   -4.3070 hx        1 U11      0.140700
     33 H241        5.7710   -2.9790   -2.8610 hn        1 U11      0.478800
     34 H242        5.8130   -4.1790   -1.6980 hn        1 U11      0.478800
     35 H23         2.8910   -6.0390   -2.8450 h1        1 U11      0.148700
     36 HO27        3.7190   -5.9170   -0.7790 ho        1 U11      0.493000
     37 HN32        3.4880   -8.6230   -3.3750 hn        1 U11      0.501800
     38 H33         5.1990   -9.1990   -5.0160 hx        1 U11      0.158700
     39 H371        7.3860  -10.1040   -4.0950 hc        1 U11      0.109700
     40 H372        6.9810   -9.4880   -2.4350 hc        1 U11      0.109700
     41 H373        7.2360   -8.3270   -3.8210 hc        1 U11      0.109700
     42 HN42        5.4710  -11.5320   -5.4180 hn        1 U11      0.494800
     43 H431        3.1520  -13.0370   -4.2570 hx        1 U11      0.182700
     44 H432        3.7130  -12.9650   -6.0080 hx        1 U11      0.182700
     45 H621        0.0950  -10.2460   -5.2400 h1        1 U11      0.094033
     46 H622       -0.2200  -11.1520   -6.8290 h1        1 U11      0.094033
     47 H623        0.9520   -9.7120   -6.7860 h1        1 U11      0.094033
     48 H243        6.4530   -4.4670   -3.2220 hn        1 U11      0.478800
     49 H322        4.6470   -8.4680   -2.1640 hn        1 U11      0.501800
     50 H422        5.4470  -12.7020   -4.2150 hn        1 U11      0.494800
@<TRIPOS>BOND
     1    1    2 1   
     2    2    3 1   
     3    2    4 1   
     4    2    5 1   
     5    5    6 ar  
     6    5    8 ar  
     7    6    7 ar  
     8    6   28 1   
     9    7   10 ar  
    10    7   29 1   
    11    8    9 ar  
    12    8   30 1   
    13    9   10 ar  
    14    9   31 1   
    15   10   11 1   
    16   11   12 1   
    17   11   13 1   
    18   11   32 1   
    19   12   33 1   
    20   12   34 1   
    21   12   48 1   
    22   13   14 1   
    23   13   15 1   
    24   13   35 1   
    25   14   36 1   
    26   15   16 2   
    27   15   17 1   
    28   17   18 1   
    29   17   37 1   
    30   17   49 1   
    31   18   19 1   
    32   18   20 1   
    33   18   38 1   
    34   19   39 1   
    35   19   40 1   
    36   19   41 1   
    37   20   21 2   
    38   20   22 1   
    39   22   23 1   
    40   22   42 1   
    41   22   50 1   
    42   23   24 1   
    43   23   43 1   
    44   23   44 1   
    45   24   25 2   
    46   24   26 1   
    47   26   27 1   
    48   27   45 1   
    49   27   46 1   
    50   27   47 1   
@<TRIPOS>SUBSTRUCTURE
     1 U11         1 TEMP              0 ****  ****    0 ROOT
