@<TRIPOS>MOLECULE
U11
   50    50     1     0     0
SMALL
bcc


@<TRIPOS>ATOM
      1 F29        -0.4880   -0.3640   -2.6910 f         1 U11     -0.201633
      2 C9          0.4450   -0.5500   -1.7060 c3        1 U11      0.690200
      3 F30        -0.2670   -0.8600   -0.5780 f         1 U11     -0.201633
      4 F31         0.9900    0.6840   -1.4730 f         1 U11     -0.201633
      5 C5          1.5030   -1.6110   -2.0630 ca        1 U11     -0.099300
      6 C2          2.1420   -2.3170   -1.0360 ca        1 U11     -0.054000
      7 C4          3.1060   -3.2700   -1.3510 ca        1 U11     -0.115500
      8 C6          1.8300   -1.8490   -3.3980 ca        1 U11     -0.054000
      9 C3          2.8020   -2.8010   -3.7160 ca        1 U11     -0.115500
     10 C7          3.4360   -3.5170   -2.6940 ca        1 U11     -0.217300
     11 C11         4.4830   -4.5270   -3.0560 c3        1 U11      0.178800
     12 N24         5.7980   -4.1530   -2.4290 n4        1 U11     -0.841600
     13 C23         3.9920   -5.9490   -2.6530 c3        1 U11      0.073100
     14 O27         4.2360   -6.2380   -1.2960 oh        1 U11     -0.613800
     15 C25         4.7320   -7.0420   -3.4440 c         1 U11      0.539100
     16 O31         5.5650   -6.8590   -4.3130 o         1 U11     -0.388100
     17 N32         4.3490   -8.4580   -3.0820 n4        1 U11     -0.674800
     18 C33         5.2140   -9.5270   -3.7070 c3        1 U11      0.098500
     19 C37         6.6360   -9.5430   -3.1600 c3        1 U11     -0.153100
     20 C36         4.5790  -10.9020   -3.4220 c         1 U11      0.525100
     21 O41         3.9830  -11.1860   -2.3960 o         1 U11     -0.366100
     22 N42         4.7350  -11.9720   -4.4660 n4        1 U11     -0.650800
     23 C43         3.4160  -12.3540   -5.0710 c3        1 U11      0.032800
     24 C47         2.5630  -11.1420   -5.4010 c         1 U11      0.666100
     25 O60         2.7740  -10.0050   -4.9340 o         1 U11     -0.676000
     26 O61         1.5600  -11.4180   -6.2260 os        1 U11     -0.340900
     27 C62         0.6300  -10.3630   -6.5700 c3        1 U11      0.123700
     28 H2          1.8760   -2.1130    0.0190 ha        1 U11      0.201500
     29 H4          3.6100   -3.8090   -0.5340 ha        1 U11      0.144000
     30 H6          1.3210   -1.2820   -4.2020 ha        1 U11      0.201500
     31 H3          3.0590   -2.9700   -4.7750 ha        1 U11      0.144000
     32 H11         4.6470   -4.5200   -4.1820 hx        1 U11      0.140700
     33 H241        6.5710   -4.6720   -2.8550 hn        1 U11      0.478800
     34 H242        5.9530   -3.1410   -2.5690 hn        1 U11      0.478800
     35 H23         2.8910   -5.9980   -2.9170 h1        1 U11      0.148700
     36 HO27        3.4750   -5.9320   -0.7670 ho        1 U11      0.493000
     37 HN32        3.3700   -8.6180   -3.3890 hn        1 U11      0.501800
     38 H33         5.2180   -9.3110   -4.8230 hx        1 U11      0.158700
     39 H371        7.2170  -10.3610   -3.6600 hc        1 U11      0.109700
     40 H372        7.1550   -8.5780   -3.3940 hc        1 U11      0.109700
     41 H373        6.6630   -9.7170   -2.0540 hc        1 U11      0.109700
     42 HN42        5.3760  -11.6570   -5.2070 hn        1 U11      0.494800
     43 H431        2.8420  -13.0010   -4.3330 hx        1 U11      0.182700
     44 H432        3.6060  -12.9690   -6.0070 hx        1 U11      0.182700
     45 H621       -0.0730  -10.8950   -7.2670 h1        1 U11      0.094033
     46 H622        1.1800   -9.5370   -7.0780 h1        1 U11      0.094033
     47 H623        0.1150  -10.0100   -5.6460 h1        1 U11      0.094033
     48 H243        5.7740   -4.3400   -1.4180 hn        1 U11      0.478800
     49 H322        4.3870   -8.5400   -2.0500 hn        1 U11      0.501800
     50 H422        5.1340  -12.8210   -4.0220 hn        1 U11      0.494800
@<TRIPOS>BOND
     1    1    2 1   
     2    2    3 1   
     3    2    4 1   
     4    2    5 1   
     5    5    6 ar  
     6    5    8 ar  
     7    6    7 ar  
     8    6   28 1   
     9    7   10 ar  
    10    7   29 1   
    11    8    9 ar  
    12    8   30 1   
    13    9   10 ar  
    14    9   31 1   
    15   10   11 1   
    16   11   12 1   
    17   11   13 1   
    18   11   32 1   
    19   12   33 1   
    20   12   34 1   
    21   12   48 1   
    22   13   14 1   
    23   13   15 1   
    24   13   35 1   
    25   14   36 1   
    26   15   16 2   
    27   15   17 1   
    28   17   18 1   
    29   17   37 1   
    30   17   49 1   
    31   18   19 1   
    32   18   20 1   
    33   18   38 1   
    34   19   39 1   
    35   19   40 1   
    36   19   41 1   
    37   20   21 2   
    38   20   22 1   
    39   22   23 1   
    40   22   42 1   
    41   22   50 1   
    42   23   24 1   
    43   23   43 1   
    44   23   44 1   
    45   24   25 2   
    46   24   26 1   
    47   26   27 1   
    48   27   45 1   
    49   27   46 1   
    50   27   47 1   
@<TRIPOS>SUBSTRUCTURE
     1 U11         1 TEMP              0 ****  ****    0 ROOT
