@<TRIPOS>MOLECULE
U12
   26    22     1     0     0
SMALL
bcc


@<TRIPOS>ATOM
      1 F3          0.2870   -2.9110    3.3730 f         1 U12     -0.167333
      2 C10         0.2290   -3.1960    2.0650 c3        1 U12      0.466000
      3 F1          1.0280   -4.2370    1.7990 f         1 U12     -0.167333
      4 F2         -1.0310   -3.5040    1.7310 f         1 U12     -0.167333
      5 C8          0.6830   -1.9930    1.2660 c2        1 U12     -0.156000
      6 C5          1.6180   -1.1200    1.8000 c1        1 U12     -0.084000
      7 C9          2.0550   -0.0340    1.0580 c1        1 U12     -0.100000
      8 C6          1.5560    0.1790   -0.2180 c1        1 U12     -0.100000
      9 C7          0.1850   -1.7800   -0.0090 c2        1 U12     -0.079000
     10 C4          0.6210   -0.6940   -0.7520 c1        1 U12     -0.059000
     11 N6          0.1750   -0.5240   -2.0880 n2        1 U12     -0.027000
     12 N3         -0.5420    0.4420   -2.3840 n1        1 U12      0.048000
     13 C1         -0.9170    1.3790   -1.3870 c1        1 U12     -0.319000
     14 C3         -2.0130    1.0350   -0.3990 c2        1 U12      0.013000
     15 N5         -2.6150   -0.1190   -0.2900 n1        1 U12     -0.165000
     16 N4         -2.6520    2.3880   -0.2150 n2        1 U12     -0.028000
     17 N1         -1.9810    3.3600   -1.0110 n1        1 U12      0.005000
     18 C2         -0.9650    2.7730   -1.6980 c1        1 U12      0.114000
     19 N2          0.2360    3.4890   -1.9380 n3        1 U12     -0.308000
     20 H5          1.9690   -1.2700    2.6980 ha        1 U12      0.150000
     21 H9          2.7130    0.5810    1.4340 ha        1 U12      0.146000
     22 H6          1.8630    0.9440   -0.7400 ha        1 U12      0.146000
     23 H7         -0.4740   -2.3950   -0.3850 ha        1 U12      0.152000
     24 HN52       -3.2680   -0.2370    0.3380 DU        1 U12      0.178000
     25 HN21        0.2680    4.3900   -1.7880 hn        1 U12      0.254500
     26 HN22        0.9710    3.0520   -2.2600 hn        1 U12      0.254500
@<TRIPOS>BOND
     1    1    2 1   
     2    2    3 1   
     3    2    4 1   
     4    2    5 1   
     5    5    6 1   
     6    5    9 1   
     7    6   20 1   
     8    7    8 1   
     9    7   21 1   
    10    8   22 1   
    11    9   10 1   
    12    9   23 1   
    13   10   11 1   
    14   11   12 1   
    15   13   14 1   
    16   13   18 1   
    17   14   15 1   
    18   14   16 1   
    19   16   17 1   
    20   18   19 1   
    21   19   25 1   
    22   19   26 1   
@<TRIPOS>SUBSTRUCTURE
     1 U12         1 TEMP              0 ****  ****    0 ROOT
