@<TRIPOS>MOLECULE
U12
   26    27     1     0     0
SMALL
bcc


@<TRIPOS>ATOM
      1 F3          4.0920    1.3790    1.0820 f         1 U12     -0.237633
      2 C10         4.0250    0.5340   -0.0010 c3        1 U12      0.688200
      3 F1          5.2390   -0.1070   -0.0010 f         1 U12     -0.237633
      4 F2          4.0920    1.3790   -1.0830 f         1 U12     -0.237633
      5 C8          2.8090   -0.3850   -0.0000 ca        1 U12     -0.174300
      6 C5          2.9700   -1.7710    0.0000 ca        1 U12     -0.077000
      7 C9          1.8390   -2.5860    0.0000 ca        1 U12     -0.136000
      8 C6          0.5630   -2.0300    0.0000 ca        1 U12     -0.090000
      9 C7          1.5410    0.1940   -0.0010 ca        1 U12     -0.055000
     10 C4          0.3940   -0.6290   -0.0000 ca        1 U12      0.115400
     11 N6         -0.8650    0.0560   -0.0010 ne        1 U12     -0.297400
     12 N3         -1.9140   -0.6060   -0.0000 nf        1 U12     -0.108600
     13 C1         -3.1300    0.0600   -0.0010 cd        1 U12     -0.196000
     14 C3         -4.4350   -0.6950   -0.0000 cd        1 U12      0.622600
     15 N5         -4.6010   -1.9590    0.0010 n2        1 U12     -0.670100
     16 N4         -5.4840    0.3980   -0.0010 nd        1 U12     -0.252300
     17 N1         -4.9880    1.5100   -0.0010 nc        1 U12     -0.137600
     18 C2         -3.4830    1.4250   -0.0010 cc        1 U12      0.311600
     19 N2         -2.7000    2.5170   -0.0020 nh        1 U12     -0.790600
     20 H5          3.9790   -2.2120    0.0000 ha        1 U12      0.153000
     21 H9          1.9570   -3.6800    0.0010 ha        1 U12      0.146000
     22 H6         -0.3140   -2.6990    0.0000 ha        1 U12      0.163000
     23 H7          1.4510    1.2920   -0.0010 ha        1 U12      0.156000
     24 HN52       -5.5430   -2.2960    0.0010 hn        1 U12      0.416400
     25 HN21       -1.7120    2.4180   -0.0020 hn        1 U12      0.462300
     26 HN22       -3.0980    3.4250   -0.0020 hn        1 U12      0.462300
@<TRIPOS>BOND
     1    1    2 1   
     2    2    3 1   
     3    2    4 1   
     4    2    5 1   
     5    5    6 ar  
     6    5    9 ar  
     7    6    7 ar  
     8    6   20 1   
     9    7    8 ar  
    10    7   21 1   
    11    8   10 ar  
    12    8   22 1   
    13    9   10 ar  
    14    9   23 1   
    15   10   11 1   
    16   11   12 2   
    17   12   13 1   
    18   13   14 1   
    19   13   18 2   
    20   14   15 2   
    21   14   16 1   
    22   15   24 1   
    23   16   17 2   
    24   17   18 1   
    25   18   19 1   
    26   19   25 1   
    27   19   26 1   
@<TRIPOS>SUBSTRUCTURE
     1 U12         1 TEMP              0 ****  ****    0 ROOT
