@<TRIPOS>MOLECULE
U12
   27    28     1     0     0
SMALL
bcc


@<TRIPOS>ATOM
      1 F3          0.1130   -0.1720    0.4980 f         1 U12     -0.222967
      2 C10         1.3640   -0.0080   -0.0410 c3        1 U12      0.690200
      3 F1          2.1270    0.4920    0.9810 f         1 U12     -0.222967
      4 F2          1.2230    1.0390   -0.9200 f         1 U12     -0.222967
      5 C8          1.9250   -1.2780   -0.6810 ca        1 U12     -0.181300
      6 C5          2.7100   -2.1530    0.0790 ca        1 U12     -0.010000
      7 C9          3.2040   -3.3180   -0.5090 ca        1 U12     -0.139000
      8 C6          2.9250   -3.6160   -1.8390 ca        1 U12     -0.038000
      9 C7          1.6320   -1.5510   -2.0130 ca        1 U12     -0.016000
     10 C4          2.1340   -2.7330   -2.6130 ca        1 U12      0.047400
     11 N6          1.7900   -2.9300   -3.9730 ne        1 U12     -0.208400
     12 N3          2.1730   -3.9370   -4.5910 nf        1 U12     -0.168600
     13 C1          1.7830   -4.0410   -5.9340 cd        1 U12      0.131000
     14 C3          2.1770   -5.2370   -6.8040 cd        1 U12      0.565600
     15 N5          2.8730   -6.2280   -6.4130 n2        1 U12     -0.574100
     16 N4          1.5570   -4.9280   -8.1390 nd        1 U12     -0.206300
     17 N1          0.9540   -3.8660   -8.1290 nc        1 U12     -0.084600
     18 C2          1.0400   -3.2380   -6.7880 cc        1 U12     -0.058400
     19 N2          0.4130   -1.9750   -6.5020 n4        1 U12     -0.656400
     20 H5          2.9360   -1.9150    1.1330 ha        1 U12      0.180000
     21 H9          3.8220   -4.0100    0.0880 ha        1 U12      0.173000
     22 H6          3.3280   -4.5450   -2.2780 ha        1 U12      0.175000
     23 H7          1.0150   -0.8370   -2.5840 ha        1 U12      0.155000
     24 HN52        3.0760   -6.9620   -7.0660 hn        1 U12      0.463400
     25 HN21       -0.2730   -2.0990   -5.7440 hn        1 U12      0.476800
     26 HN22        1.1290   -1.2990   -6.1990 hn        1 U12      0.476800
     27 H23        -0.0660   -1.6120   -7.3400 hn        1 U12      0.476800
@<TRIPOS>BOND
     1    1    2 1   
     2    2    3 1   
     3    2    4 1   
     4    2    5 1   
     5    5    6 ar  
     6    5    9 ar  
     7    6    7 ar  
     8    6   20 1   
     9    7    8 ar  
    10    7   21 1   
    11    8   10 ar  
    12    8   22 1   
    13    9   10 ar  
    14    9   23 1   
    15   10   11 1   
    16   11   12 2   
    17   12   13 1   
    18   13   14 1   
    19   13   18 2   
    20   14   15 2   
    21   14   16 1   
    22   15   24 1   
    23   16   17 2   
    24   17   18 1   
    25   18   19 1   
    26   19   25 1   
    27   19   26 1   
    28   19   27 1   
@<TRIPOS>SUBSTRUCTURE
     1 U12         1 TEMP              0 ****  ****    0 ROOT
