@<TRIPOS>MOLECULE
U12
   27    28     1     0     0
SMALL
bcc


@<TRIPOS>ATOM
      1 F3          0.1110   -0.1670    0.4940 f         1 U12     -0.222967
      2 C10         1.3640   -0.0070   -0.0420 c3        1 U12      0.690200
      3 F1          2.1260    0.4890    0.9830 f         1 U12     -0.222967
      4 F2          1.2300    1.0410   -0.9200 f         1 U12     -0.222967
      5 C8          1.9230   -1.2800   -0.6800 ca        1 U12     -0.181300
      6 C5          2.7010   -2.1580    0.0810 ca        1 U12     -0.010000
      7 C9          3.1930   -3.3250   -0.5050 ca        1 U12     -0.139000
      8 C6          2.9170   -3.6210   -1.8360 ca        1 U12     -0.038000
      9 C7          1.6320   -1.5510   -2.0130 ca        1 U12     -0.016000
     10 C4          2.1310   -2.7340   -2.6120 ca        1 U12      0.047400
     11 N6          1.7900   -2.9290   -3.9740 ne        1 U12     -0.208400
     12 N3          2.1730   -3.9370   -4.5900 nf        1 U12     -0.168600
     13 C1          1.7860   -4.0390   -5.9350 cd        1 U12      0.131000
     14 C3          2.1810   -5.2350   -6.8050 cd        1 U12      0.565600
     15 N5          2.8750   -6.2270   -6.4130 n2        1 U12     -0.574100
     16 N4          1.5650   -4.9240   -8.1420 nd        1 U12     -0.206300
     17 N1          0.9620   -3.8610   -8.1320 nc        1 U12     -0.084600
     18 C2          1.0460   -3.2340   -6.7900 cc        1 U12     -0.058400
     19 N2          0.4200   -1.9710   -6.5040 nz        1 U12     -0.656400
     20 H5          2.9250   -1.9210    1.1370 ha        1 U12      0.180000
     21 H9          3.8070   -4.0190    0.0930 ha        1 U12      0.173000
     22 H6          3.3170   -4.5510   -2.2750 ha        1 U12      0.175000
     23 H7          1.0200   -0.8340   -2.5860 ha        1 U12      0.155000
     24 HN52        3.0780   -6.9610   -7.0670 hn        1 U12      0.463400
     25 HN21       -0.2680   -2.0950   -5.7480 hn        1 U12      0.476800
     26 HN22        1.1360   -1.2960   -6.2000 hn        1 U12      0.476800
     27 H23        -0.0570   -1.6070   -7.3430 hn        1 U12      0.476800
@<TRIPOS>BOND
     1    1    2 1   
     2    2    3 1   
     3    2    4 1   
     4    2    5 1   
     5    5    6 ar  
     6    5    9 ar  
     7    6    7 ar  
     8    6   20 1   
     9    7    8 ar  
    10    7   21 1   
    11    8   10 ar  
    12    8   22 1   
    13    9   10 ar  
    14    9   23 1   
    15   10   11 1   
    16   11   12 2   
    17   12   13 1   
    18   13   14 1   
    19   13   18 2   
    20   14   15 2   
    21   14   16 1   
    22   15   24 1   
    23   16   17 2   
    24   17   18 1   
    25   18   19 1   
    26   19   25 1   
    27   19   26 1   
    28   19   27 1   
@<TRIPOS>SUBSTRUCTURE
     1 U12         1 TEMP              0 ****  ****    0 ROOT
