@<TRIPOS>MOLECULE
U12
   27    28     1     0     0
SMALL
bcc


@<TRIPOS>ATOM
      1 F3          0.0100    0.0640   -0.0790 f         1 U12     -0.222967
      2 C10         1.3820    0.0030   -0.0580 c3        1 U12      0.690200
      3 F1          1.7250    0.2040    1.2520 f         1 U12     -0.222967
      4 F2          1.7810    1.1450   -0.7090 f         1 U12     -0.222967
      5 C8          1.9430   -1.2780   -0.6780 ca        1 U12     -0.181300
      6 C5          2.7370   -2.1470    0.0760 ca        1 U12     -0.011000
      7 C9          3.2360   -3.3080   -0.5160 ca        1 U12     -0.139000
      8 C6          2.9500   -3.6070   -1.8450 ca        1 U12     -0.038000
      9 C7          1.6420   -1.5520   -2.0080 ca        1 U12     -0.015000
     10 C4          2.1450   -2.7300   -2.6120 ca        1 U12      0.047400
     11 N6          1.7900   -2.9310   -3.9690 ne        1 U12     -0.208400
     12 N3          2.1810   -3.9320   -4.5920 nf        1 U12     -0.168600
     13 C1          1.7760   -4.0410   -5.9310 cd        1 U12      0.131000
     14 C3          2.1900   -5.2240   -6.8090 cd        1 U12      0.565600
     15 N5          2.9200   -6.1960   -6.4310 n2        1 U12     -0.574100
     16 N4          1.5420   -4.9290   -8.1340 nd        1 U12     -0.206300
     17 N1          0.9090   -3.8850   -8.1120 nc        1 U12     -0.084600
     18 C2          0.9990   -3.2570   -6.7710 cc        1 U12     -0.058400
     19 N2          0.3420   -2.0120   -6.4720 n4        1 U12     -0.656400
     20 H5          2.9670   -1.9130    1.1310 ha        1 U12      0.181000
     21 H9          3.8630   -3.9970    0.0750 ha        1 U12      0.173000
     22 H6          3.3570   -4.5330   -2.2880 ha        1 U12      0.175000
     23 H7          1.0120   -0.8420   -2.5690 ha        1 U12      0.153000
     24 HN52        3.1330   -6.9230   -7.0900 hn        1 U12      0.463400
     25 HN21       -0.3250   -2.1560   -5.7000 hn        1 U12      0.476800
     26 HN22       -0.1650   -1.6650   -7.3000 hn        1 U12      0.476800
     27 H23         1.0440   -1.3170   -6.1840 hn        1 U12      0.476800
@<TRIPOS>BOND
     1    1    2 1   
     2    2    3 1   
     3    2    4 1   
     4    2    5 1   
     5    5    6 ar  
     6    5    9 ar  
     7    6    7 ar  
     8    6   20 1   
     9    7    8 ar  
    10    7   21 1   
    11    8   10 ar  
    12    8   22 1   
    13    9   10 ar  
    14    9   23 1   
    15   10   11 1   
    16   11   12 2   
    17   12   13 1   
    18   13   14 1   
    19   13   18 2   
    20   14   15 2   
    21   14   16 1   
    22   15   24 1   
    23   16   17 2   
    24   17   18 1   
    25   18   19 1   
    26   19   25 1   
    27   19   26 1   
    28   19   27 1   
@<TRIPOS>SUBSTRUCTURE
     1 U12         1 TEMP              0 ****  ****    0 ROOT
