@<TRIPOS>MOLECULE
U13
   24    25     1     0     0
SMALL
bcc


@<TRIPOS>ATOM
      1 F7         -0.0900   -0.0010   -0.1040 f         1 U13     -0.096900
      2 C3          1.2520   -0.0010   -0.0210 ca        1 U13      0.220900
      3 C6          1.8830   -0.0060    1.2410 ca        1 U13     -0.185500
      4 C2          3.2660   -0.0060    1.3220 ca        1 U13     -0.027000
      5 C5          4.0590    0.0000    0.1460 ca        1 U13      0.025400
      6 C4          3.4100    0.0060   -1.1190 ca        1 U13     -0.027000
      7 C1          2.0290    0.0050   -1.2010 ca        1 U13     -0.185500
      8 N9          5.4690    0.0010    0.1260 ne        1 U13     -0.203400
      9 N13         6.1240   -0.0030    1.1850 nf        1 U13     -0.187600
     10 C14         7.5180   -0.0020    1.0670 cd        1 U13      0.141000
     11 C19         8.3980    0.0040   -0.0070 cc        1 U13     -0.076400
     12 N16         8.0840    0.0110   -1.4110 n4        1 U13     -0.652400
     13 N20         9.7970    0.0030    0.4810 nc        1 U13     -0.085600
     14 N17         9.8200   -0.0030    1.7020 nd        1 U13     -0.211300
     15 C15         8.4370   -0.0070    2.2920 cd        1 U13      0.565600
     16 N18         8.0430   -0.0130    3.5020 n2        1 U13     -0.576100
     17 H6          1.2670   -0.0110    2.1550 ha        1 U13      0.178500
     18 H2          3.7390   -0.0100    2.3200 ha        1 U13      0.159500
     19 H4          3.9980    0.0110   -2.0500 ha        1 U13      0.159500
     20 H1          1.5240    0.0100   -2.1800 ha        1 U13      0.178500
     21 H161        7.5310   -0.8270   -1.6390 hn        1 U13      0.474800
     22 H162        8.9470    0.0140   -1.9730 hn        1 U13      0.474800
     23 H182        8.7330   -0.0160    4.2310 hn        1 U13      0.461400
     24 H163        7.5300    0.8500   -1.6310 hn        1 U13      0.474800
@<TRIPOS>BOND
     1    1    2 1   
     2    2    3 ar  
     3    2    7 ar  
     4    3    4 ar  
     5    3   17 1   
     6    4    5 ar  
     7    4   18 1   
     8    5    6 ar  
     9    5    8 1   
    10    6    7 ar  
    11    6   19 1   
    12    7   20 1   
    13    8    9 2   
    14    9   10 1   
    15   10   11 2   
    16   10   15 1   
    17   11   12 1   
    18   11   13 1   
    19   12   21 1   
    20   12   22 1   
    21   12   24 1   
    22   13   14 2   
    23   14   15 1   
    24   15   16 2   
    25   16   23 1   
@<TRIPOS>SUBSTRUCTURE
     1 U13         1 TEMP              0 ****  ****    0 ROOT
