@<TRIPOS>MOLECULE
U13
   23    18     1     0     0
SMALL
bcc


@<TRIPOS>ATOM
      1 F7         -4.1850   -1.1150    0.3840 f         1 U13     -0.107000
      2 C3         -2.8480   -1.1360    0.4790 c2        1 U13      0.090000
      3 C6         -2.2320   -0.7890    1.6720 c2        1 U13     -0.164000
      4 C2         -0.8500   -0.8280    1.7750 c1        1 U13     -0.068000
      5 C5         -0.0830   -1.2150    0.6860 c1        1 U13     -0.076000
      6 C4         -0.6990   -1.5620   -0.5060 c1        1 U13     -0.101000
      7 C1         -2.0820   -1.5230   -0.6090 c1        1 U13     -0.163000
      8 N9          1.3250   -1.3420    0.8200 n2        1 U13     -0.019000
      9 N13         2.0730   -0.4620    0.3690 n1        1 U13      0.041000
     10 C14         1.5220    0.6720   -0.2810 c1        1 U13     -0.309000
     11 C19         2.2070    1.2650   -1.3880 c1        1 U13      0.101000
     12 N16         2.2830    0.5780   -2.6250 n2        1 U13     -0.312000
     13 N20         2.0270    2.6130   -1.3680 n2        1 U13      0.004000
     14 N17         1.2170    2.9770   -0.2540 n1        1 U13     -0.033000
     15 C15         0.8320    1.7490    0.5310 c1        1 U13      0.009000
     16 N18         0.5840    1.7040    1.8120 n1        1 U13     -0.158000
     17 H6         -2.7720   -0.5170    2.4390 ha        1 U13      0.150000
     18 H2         -0.4170   -0.5840    2.6140 ha        1 U13      0.149000
     19 H4         -0.1600   -1.8340   -1.2730 ha        1 U13      0.139000
     20 H1         -2.5160   -1.7680   -1.4500 ha        1 U13      0.148000
     21 H161        2.7100    0.9630   -3.3360 hn        1 U13      0.251000
     22 H162        1.9050   -0.2500   -2.7110 hn        1 U13      0.251000
     23 H182        0.1610    2.4030    2.2210 DU        1 U13      0.177000
@<TRIPOS>BOND
     1    1    2 1   
     2    2    3 1   
     3    2    7 1   
     4    3    4 1   
     5    3   17 1   
     6    4   18 1   
     7    5    6 1   
     8    5    8 1   
     9    6   19 1   
    10    7   20 1   
    11    8    9 1   
    12   10   11 1   
    13   10   15 1   
    14   11   13 1   
    15   12   21 1   
    16   12   22 1   
    17   13   14 1   
    18   15   16 1   
@<TRIPOS>SUBSTRUCTURE
     1 U13         1 TEMP              0 ****  ****    0 ROOT
