@<TRIPOS>MOLECULE
U13
   23    24     1     0     0
SMALL
bcc


@<TRIPOS>ATOM
      1 F7          5.5370   -0.4510    0.0010 f         1 U13     -0.138900
      2 C3          4.1990   -0.2460    0.0010 ca        1 U13      0.133900
      3 C6          3.3190   -1.3430    0.0020 ca        1 U13     -0.172500
      4 C2          1.9460   -1.1270    0.0010 ca        1 U13     -0.082500
      5 C5          1.4210    0.1820    0.0000 ca        1 U13      0.099400
      6 C4          2.3180    1.2740   -0.0010 ca        1 U13     -0.082500
      7 C1          3.6900    1.0650   -0.0010 ca        1 U13     -0.172500
      8 N9          0.0280    0.5130   -0.0000 ne        1 U13     -0.291400
      9 N13        -0.8140   -0.3970   -0.0000 nf        1 U13     -0.114600
     10 C14        -2.1620   -0.0670   -0.0000 cd        1 U13     -0.190000
     11 C19        -2.8550    1.1600   -0.0010 cc        1 U13      0.305600
     12 N16        -2.3800    2.4180   -0.0010 nh        1 U13     -0.796600
     13 N20        -4.3310    0.8550   -0.0010 nc        1 U13     -0.138600
     14 N17        -4.5240   -0.3470   -0.0010 nd        1 U13     -0.255300
     15 C15        -3.2280   -1.1320   -0.0000 cd        1 U13      0.621600
     16 N18        -3.0630   -2.3970    0.0000 n2        1 U13     -0.669100
     17 H6          3.7240   -2.3650    0.0020 ha        1 U13      0.151000
     18 H2          1.2730   -2.0010    0.0020 ha        1 U13      0.152000
     19 H4          1.9350    2.3070   -0.0020 ha        1 U13      0.152000
     20 H1          4.3850    1.9180   -0.0010 ha        1 U13      0.151000
     21 H161       -1.4000    2.5760   -0.0010 hn        1 U13      0.460800
     22 H162       -2.9980    3.1920   -0.0010 hn        1 U13      0.460800
     23 H182       -3.8870   -2.9640    0.0000 hn        1 U13      0.415400
@<TRIPOS>BOND
     1    1    2 1   
     2    2    3 ar  
     3    2    7 ar  
     4    3    4 ar  
     5    3   17 1   
     6    4    5 ar  
     7    4   18 1   
     8    5    6 ar  
     9    5    8 1   
    10    6    7 ar  
    11    6   19 1   
    12    7   20 1   
    13    8    9 2   
    14    9   10 1   
    15   10   11 2   
    16   10   15 1   
    17   11   12 1   
    18   11   13 1   
    19   12   21 1   
    20   12   22 1   
    21   13   14 2   
    22   14   15 1   
    23   15   16 2   
    24   16   23 1   
@<TRIPOS>SUBSTRUCTURE
     1 U13         1 TEMP              0 ****  ****    0 ROOT
