@<TRIPOS>MOLECULE
U13
   24    25     1     0     0
SMALL
bcc


@<TRIPOS>ATOM
      1 F7         -0.0910   -0.0030   -0.1010 f         1 U13     -0.096900
      2 C3          1.2520   -0.0020   -0.0190 ca        1 U13      0.220900
      3 C6          1.8830   -0.0130    1.2420 ca        1 U13     -0.185500
      4 C2          3.2660   -0.0110    1.3230 ca        1 U13     -0.027000
      5 C5          4.0590    0.0010    0.1460 ca        1 U13      0.025400
      6 C4          3.4090    0.0120   -1.1180 ca        1 U13     -0.027000
      7 C1          2.0290    0.0100   -1.1990 ca        1 U13     -0.185500
      8 N9          5.4690    0.0030    0.1260 ne        1 U13     -0.203400
      9 N13         6.1240   -0.0050    1.1850 nf        1 U13     -0.187600
     10 C14         7.5190   -0.0020    1.0670 cd        1 U13      0.141000
     11 C19         8.3980    0.0050   -0.0090 cc        1 U13     -0.076400
     12 N16         8.0830    0.0140   -1.4120 n4        1 U13     -0.652400
     13 N20         9.7970    0.0040    0.4790 nc        1 U13     -0.085600
     14 N17         9.8210   -0.0040    1.7000 nd        1 U13     -0.211300
     15 C15         8.4380   -0.0090    2.2910 cd        1 U13      0.565600
     16 N18         8.0450   -0.0170    3.5010 n2        1 U13     -0.576100
     17 H6          1.2680   -0.0220    2.1570 ha        1 U13      0.178500
     18 H2          3.7400   -0.0200    2.3210 ha        1 U13      0.159500
     19 H4          3.9970    0.0210   -2.0500 ha        1 U13      0.159500
     20 H1          1.5220    0.0190   -2.1780 ha        1 U13      0.178500
     21 H161        7.5290    0.8540   -1.6300 hn        1 U13      0.474800
     22 H162        8.9460    0.0180   -1.9740 hn        1 U13      0.474800
     23 H182        8.7340   -0.0210    4.2300 hn        1 U13      0.461400
     24 H163        7.5290   -0.8230   -1.6410 hn        1 U13      0.474800
@<TRIPOS>BOND
     1    1    2 1   
     2    2    3 ar  
     3    2    7 ar  
     4    3    4 ar  
     5    3   17 1   
     6    4    5 ar  
     7    4   18 1   
     8    5    6 ar  
     9    5    8 1   
    10    6    7 ar  
    11    6   19 1   
    12    7   20 1   
    13    8    9 2   
    14    9   10 1   
    15   10   11 2   
    16   10   15 1   
    17   11   12 1   
    18   11   13 1   
    19   12   21 1   
    20   12   22 1   
    21   12   24 1   
    22   13   14 2   
    23   14   15 1   
    24   15   16 2   
    25   16   23 1   
@<TRIPOS>SUBSTRUCTURE
     1 U13         1 TEMP              0 ****  ****    0 ROOT
