@<TRIPOS>MOLECULE
U13
   24    25     1     0     0
SMALL
bcc


@<TRIPOS>ATOM
      1 F7         -0.0900   -0.0030   -0.1060 f         1 U13     -0.096900
      2 C3          1.2520   -0.0020   -0.0220 ca        1 U13      0.220900
      3 C6          1.8820   -0.0070    1.2400 ca        1 U13     -0.185500
      4 C2          3.2650   -0.0060    1.3210 ca        1 U13     -0.027000
      5 C5          4.0590    0.0000    0.1450 ca        1 U13      0.025400
      6 C4          3.4100    0.0060   -1.1200 ca        1 U13     -0.027000
      7 C1          2.0300    0.0050   -1.2020 ca        1 U13     -0.185500
      8 N9          5.4690    0.0020    0.1260 ne        1 U13     -0.203400
      9 N13         6.1230   -0.0030    1.1850 nf        1 U13     -0.187600
     10 C14         7.5180   -0.0010    1.0680 cd        1 U13      0.141000
     11 C19         8.3980    0.0040   -0.0060 cc        1 U13     -0.076400
     12 N16         8.0850    0.0090   -1.4100 nz        1 U13     -0.652400
     13 N20         9.7970    0.0030    0.4820 nc        1 U13     -0.085600
     14 N17         9.8200   -0.0010    1.7040 nd        1 U13     -0.211300
     15 C15         8.4360   -0.0050    2.2930 cd        1 U13      0.565600
     16 N18         8.0420   -0.0090    3.5030 n2        1 U13     -0.576100
     17 H6          1.2660   -0.0130    2.1540 ha        1 U13      0.178500
     18 H2          3.7380   -0.0110    2.3190 ha        1 U13      0.159500
     19 H4          3.9990    0.0110   -2.0510 ha        1 U13      0.159500
     20 H1          1.5250    0.0090   -2.1820 ha        1 U13      0.178500
     21 H161        7.5310   -0.8290   -1.6370 hn        1 U13      0.474800
     22 H162        8.9480    0.0110   -1.9710 hn        1 U13      0.474800
     23 H182        8.7310   -0.0120    4.2320 hn        1 U13      0.461400
     24 H163        7.5310    0.8480   -1.6310 hn        1 U13      0.474800
@<TRIPOS>BOND
     1    1    2 1   
     2    2    3 ar  
     3    2    7 ar  
     4    3    4 ar  
     5    3   17 1   
     6    4    5 ar  
     7    4   18 1   
     8    5    6 ar  
     9    5    8 1   
    10    6    7 ar  
    11    6   19 1   
    12    7   20 1   
    13    8    9 2   
    14    9   10 1   
    15   10   11 2   
    16   10   15 1   
    17   11   12 1   
    18   11   13 1   
    19   12   21 1   
    20   12   22 1   
    21   12   24 1   
    22   13   14 2   
    23   14   15 1   
    24   15   16 2   
    25   16   23 1   
@<TRIPOS>SUBSTRUCTURE
     1 U13         1 TEMP              0 ****  ****    0 ROOT
