@<TRIPOS>MOLECULE
U14
   26    27     1     0     0
SMALL
bcc


@<TRIPOS>ATOM
      1 O2         -0.2480    0.0020   -0.4260 o         1 U14     -0.796300
      2 C4          0.9810    0.0020   -0.1450 c         1 U14      0.921200
      3 O1          1.5010    0.0040    0.9960 o         1 U14     -0.796300
      4 C9          1.9420   -0.0010   -1.3470 ca        1 U14     -0.183600
      5 C6          3.3280   -0.0010   -1.1760 ca        1 U14      0.029000
      6 C10         4.1800   -0.0040   -2.2960 ca        1 U14     -0.184000
      7 C7          3.6640   -0.0060   -3.5770 ca        1 U14     -0.055000
      8 C8          1.3990   -0.0030   -2.6210 ca        1 U14      0.001000
      9 C5          2.2470   -0.0050   -3.7750 ca        1 U14      0.017400
     10 N6          1.5890   -0.0070   -4.9810 ne        1 U14     -0.202400
     11 N5          2.1570   -0.0100   -6.1100 nf        1 U14     -0.245600
     12 C2          1.2870   -0.0110   -7.1830 cd        1 U14      0.181000
     13 C3         -0.1140   -0.0110   -7.2840 cc        1 U14     -0.159400
     14 N4         -1.0590   -0.0080   -6.2020 n4        1 U14     -0.634400
     15 N2         -0.5220   -0.0130   -8.6920 nc        1 U14     -0.086600
     16 C1          1.7430   -0.0140   -8.6420 cd        1 U14      0.565600
     17 N3          0.4590   -0.0150   -9.4260 nd        1 U14     -0.259300
     18 N1          2.9540   -0.0150   -9.0360 n2        1 U14     -0.600100
     19 H6          3.7290    0.0010   -0.1450 ha        1 U14      0.185000
     20 H10         5.2710   -0.0040   -2.1450 ha        1 U14      0.146000
     21 H7          4.3390   -0.0080   -4.4470 ha        1 U14      0.151000
     22 H8          0.2970   -0.0020   -2.7070 ha        1 U14      0.166000
     23 HN41       -2.0210   -0.0090   -6.5600 hn        1 U14      0.466800
     24 HN42       -0.9080    0.8280   -5.6200 hn        1 U14      0.466800
     25 HN12        3.1220   -0.0170  -10.0240 hn        1 U14      0.438400
     26 H43        -0.9090   -0.8430   -5.6170 hn        1 U14      0.466800
@<TRIPOS>BOND
     1    1    2 1   
     2    2    3 1   
     3    2    4 1   
     4    4    5 ar  
     5    4    8 ar  
     6    5    6 ar  
     7    5   19 1   
     8    6    7 ar  
     9    6   20 1   
    10    7    9 ar  
    11    7   21 1   
    12    8    9 ar  
    13    8   22 1   
    14    9   10 1   
    15   10   11 2   
    16   11   12 1   
    17   12   13 2   
    18   12   16 1   
    19   13   14 1   
    20   13   15 1   
    21   14   23 1   
    22   14   24 1   
    23   14   26 1   
    24   15   17 2   
    25   16   17 1   
    26   16   18 2   
    27   18   25 1   
@<TRIPOS>SUBSTRUCTURE
     1 U14         1 TEMP              0 ****  ****    0 ROOT
