@<TRIPOS>MOLECULE
U14
   25    26     1     0     0
SMALL
bcc


@<TRIPOS>ATOM
      1 O2          4.1110    2.0640   -0.0010 o         1 U14     -0.828300
      2 C4          4.3820    0.8300   -0.0010 c         1 U14      0.910200
      3 O1          5.5520    0.3550   -0.0010 o         1 U14     -0.828300
      4 C9          3.2170   -0.1520   -0.0010 ca        1 U14     -0.144600
      5 C6          3.4520   -1.5290   -0.0000 ca        1 U14     -0.079000
      6 C10         2.3830   -2.4250    0.0000 ca        1 U14     -0.175000
      7 C7          1.0710   -1.9620    0.0000 ca        1 U14     -0.125000
      8 C8          1.9070    0.3250   -0.0010 ca        1 U14     -0.056000
      9 C5          0.8150   -0.5740   -0.0000 ca        1 U14      0.057400
     10 N6         -0.4790    0.0240   -0.0010 ne        1 U14     -0.259400
     11 N5         -1.5090   -0.6650   -0.0000 nf        1 U14     -0.151600
     12 C2         -2.7340    0.0130   -0.0000 cd        1 U14     -0.162000
     13 C3         -3.0700    1.3770   -0.0010 cc        1 U14      0.274600
     14 N4         -2.2670    2.4630   -0.0020 nh        1 U14     -0.813600
     15 N2         -4.5690    1.4850   -0.0010 nc        1 U14     -0.147600
     16 C1         -4.0440   -0.7250    0.0000 cd        1 U14      0.619600
     17 N3         -5.0840    0.3810   -0.0000 nd        1 U14     -0.286300
     18 N1         -4.2370   -1.9880    0.0010 n2        1 U14     -0.678100
     19 H6          4.4970   -1.8810    0.0000 ha        1 U14      0.155000
     20 H10         2.5740   -3.5070    0.0010 ha        1 U14      0.111000
     21 H7          0.2420   -2.6840    0.0010 ha        1 U14      0.130000
     22 H8          1.7580    1.4190   -0.0010 ha        1 U14      0.160000
     23 HN41       -1.2800    2.3450   -0.0020 hn        1 U14      0.458800
     24 HN42       -2.6510    3.3730   -0.0020 hn        1 U14      0.458800
     25 HN12       -5.1890   -2.2930    0.0010 hn        1 U14      0.398400
@<TRIPOS>BOND
     1    1    2 1   
     2    2    3 1   
     3    2    4 1   
     4    4    5 ar  
     5    4    8 ar  
     6    5    6 ar  
     7    5   19 1   
     8    6    7 ar  
     9    6   20 1   
    10    7    9 ar  
    11    7   21 1   
    12    8    9 ar  
    13    8   22 1   
    14    9   10 1   
    15   10   11 2   
    16   11   12 1   
    17   12   13 2   
    18   12   16 1   
    19   13   14 1   
    20   13   15 1   
    21   14   23 1   
    22   14   24 1   
    23   15   17 2   
    24   16   17 1   
    25   16   18 2   
    26   18   25 1   
@<TRIPOS>SUBSTRUCTURE
     1 U14         1 TEMP              0 ****  ****    0 ROOT
