@<TRIPOS>MOLECULE
U14
   26    27     1     0     0
SMALL
bcc


@<TRIPOS>ATOM
      1 O2         -0.2400    0.0120   -0.4230 o         1 U14     -0.796300
      2 C4          0.9890    0.0080   -0.1440 c         1 U14      0.921200
      3 O1          1.5110    0.0100    0.9960 o         1 U14     -0.796300
      4 C9          1.9480    0.0010   -1.3480 ca        1 U14     -0.183600
      5 C6          3.3340   -0.0040   -1.1790 ca        1 U14      0.029000
      6 C10         4.1840   -0.0100   -2.3000 ca        1 U14     -0.184000
      7 C7          3.6660   -0.0120   -3.5800 ca        1 U14     -0.055000
      8 C8          1.4030   -0.0000   -2.6210 ca        1 U14      0.001000
      9 C5          2.2490   -0.0070   -3.7760 ca        1 U14      0.017400
     10 N6          1.5890   -0.0080   -4.9810 ne        1 U14     -0.202400
     11 N5          2.1540   -0.0130   -6.1110 nf        1 U14     -0.245600
     12 C2          1.2820   -0.0130   -7.1830 cd        1 U14      0.181000
     13 C3         -0.1190   -0.0070   -7.2800 cc        1 U14     -0.159400
     14 N4         -1.0620   -0.0000   -6.1970 nz        1 U14     -0.634400
     15 N2         -0.5300   -0.0100   -8.6880 nc        1 U14     -0.086600
     16 C1          1.7350   -0.0190   -8.6420 cd        1 U14      0.565600
     17 N3          0.4500   -0.0160   -9.4240 nd        1 U14     -0.259300
     18 N1          2.9460   -0.0250   -9.0390 n2        1 U14     -0.600100
     19 H6          3.7370   -0.0020   -0.1490 ha        1 U14      0.185000
     20 H10         5.2750   -0.0140   -2.1520 ha        1 U14      0.146000
     21 H7          4.3390   -0.0170   -4.4530 ha        1 U14      0.151000
     22 H8          0.3010    0.0040   -2.7050 ha        1 U14      0.166000
     23 HN41       -2.0240    0.0030   -6.5530 hn        1 U14      0.466800
     24 HN42       -0.9070    0.8370   -5.6170 hn        1 U14      0.466800
     25 HN12        3.1120   -0.0290  -10.0270 hn        1 U14      0.438400
     26 H43        -0.9140   -0.8350   -5.6120 hn        1 U14      0.466800
@<TRIPOS>BOND
     1    1    2 1   
     2    2    3 1   
     3    2    4 1   
     4    4    5 ar  
     5    4    8 ar  
     6    5    6 ar  
     7    5   19 1   
     8    6    7 ar  
     9    6   20 1   
    10    7    9 ar  
    11    7   21 1   
    12    8    9 ar  
    13    8   22 1   
    14    9   10 1   
    15   10   11 2   
    16   11   12 1   
    17   12   13 2   
    18   12   16 1   
    19   13   14 1   
    20   13   15 1   
    21   14   23 1   
    22   14   24 1   
    23   14   26 1   
    24   15   17 2   
    25   16   17 1   
    26   16   18 2   
    27   18   25 1   
@<TRIPOS>SUBSTRUCTURE
     1 U14         1 TEMP              0 ****  ****    0 ROOT
