@<TRIPOS>MOLECULE
U15
   59    59     1     0     0
SMALL
bcc


@<TRIPOS>ATOM
      1 O42         4.1130    1.7390    2.0200 o         1 U15     -0.539000
      2 C41         4.0660    1.7040    0.7890 c         1 U15      0.606100
      3 O43         4.2020    2.8660    0.0880 os        1 U15     -0.430900
      4 C44         4.3830    4.0600    0.8540 c3        1 U15      0.123700
      5 C37         3.8860    0.4900   -0.1220 c3        1 U15      0.061700
      6 C39         5.2990    0.0010   -0.4840 c3        1 U15     -0.085400
      7 C48         5.3060   -1.1480   -1.4790 c3        1 U15     -0.061700
      8 C53         4.6240   -0.7740   -2.7790 c3        1 U15     -0.098100
      9 C51         6.7380   -1.5760   -1.7380 c3        1 U15     -0.098100
     10 N36         3.0620   -0.5030    0.5150 n         1 U15     -0.556900
     11 C27         1.8800   -0.9470   -0.0390 c         1 U15      0.641100
     12 O35         1.5020   -0.5780   -1.1690 o         1 U15     -0.612100
     13 C24         1.0730   -1.9850    0.7850 c3        1 U15      0.036700
     14 C28         1.6420   -3.3630    0.4390 c3        1 U15     -0.107100
     15 N23        -0.3380   -1.8720    0.5100 n         1 U15     -0.540900
     16 C20        -1.2470   -1.5030    1.4740 c         1 U15      0.627100
     17 O22        -0.9370   -1.3760    2.6790 o         1 U15     -0.626100
     18 C14        -2.7030   -1.2610    1.0520 c3        1 U15      0.039100
     19 O19        -3.5640   -1.7840    2.0420 oh        1 U15     -0.585800
     20 C7         -2.8870    0.2770    0.8490 c3        1 U15      0.197800
     21 N15        -2.8820    1.0460    2.0750 n3        1 U15     -0.900800
     22 C3         -4.1210    0.5230    0.0210 ca        1 U15     -0.096300
     23 C6         -4.0270    1.2790   -1.1510 ca        1 U15     -0.110000
     24 C2         -5.1620    1.5190   -1.9230 ca        1 U15     -0.134000
     25 C5         -6.4070    1.0130   -1.5310 ca        1 U15     -0.070300
     26 C9         -7.6160    1.2830   -2.3420 c3        1 U15     -0.055800
     27 C4         -6.4970    0.2590   -0.3540 ca        1 U15     -0.134000
     28 C1         -5.3630    0.0180    0.4180 ca        1 U15     -0.110000
     29 H441        4.4570    4.8610    0.0770 h1        1 U15      0.054033
     30 H442        3.5060    4.2180    1.5250 h1        1 U15      0.054033
     31 H443        5.3200    3.9850    1.4570 h1        1 U15      0.054033
     32 H37         3.3690    0.8380   -1.0710 h1        1 U15      0.124700
     33 H391        5.8490    0.8780   -0.9210 hc        1 U15      0.058200
     34 H392        5.8390   -0.3140    0.4470 hc        1 U15      0.058200
     35 H48         4.7550   -2.0210   -1.0270 hc        1 U15      0.048700
     36 H531        5.0460    0.1760   -3.1860 hc        1 U15      0.039533
     37 H532        4.7760   -1.5810   -3.5360 hc        1 U15      0.039533
     38 H533        3.5250   -0.6420   -2.6220 hc        1 U15      0.039533
     39 H511        6.7570   -2.4530   -2.4290 hc        1 U15      0.039533
     40 H512        7.3170   -0.7450   -2.2060 hc        1 U15      0.039533
     41 H513        7.2390   -1.8660   -0.7840 hc        1 U15      0.039533
     42 HN36        3.2960   -0.7500    1.4490 hn        1 U15      0.329500
     43 H24         1.2230   -1.7980    1.8940 h1        1 U15      0.104700
     44 H281        1.5220   -3.5840   -0.6490 hc        1 U15      0.054367
     45 H282        2.7290   -3.3820    0.6930 hc        1 U15      0.054367
     46 H283        1.1200   -4.1550    1.0270 hc        1 U15      0.054367
     47 HN23       -0.5990   -1.8330   -0.4490 hn        1 U15      0.331500
     48 H14        -2.9830   -1.8100    0.1120 h1        1 U15      0.102700
     49 HO19       -3.2050   -1.5490    2.9110 ho        1 U15      0.422000
     50 H7         -1.9850    0.6240    0.2550 h1        1 U15      0.070700
     51 H151       -3.7570    0.9610    2.5540 hn        1 U15      0.361800
     52 H152       -2.1390    0.7380    2.6750 hn        1 U15      0.361800
     53 H6         -3.0570    1.6930   -1.4650 ha        1 U15      0.142000
     54 H2         -5.0810    2.1130   -2.8450 ha        1 U15      0.133000
     55 H91        -8.3540    0.4490   -2.2510 hc        1 U15      0.045033
     56 H92        -8.1080    2.2250   -1.9880 hc        1 U15      0.045033
     57 H93        -7.3550    1.4100   -3.4210 hc        1 U15      0.045033
     58 H4         -7.4700   -0.1450   -0.0370 ha        1 U15      0.133000
     59 H1         -5.4360   -0.5870    1.3360 ha        1 U15      0.142000
@<TRIPOS>BOND
     1    1    2 2   
     2    2    3 1   
     3    2    5 1   
     4    3    4 1   
     5    4   29 1   
     6    4   30 1   
     7    4   31 1   
     8    5    6 1   
     9    5   10 1   
    10    5   32 1   
    11    6    7 1   
    12    6   33 1   
    13    6   34 1   
    14    7    8 1   
    15    7    9 1   
    16    7   35 1   
    17    8   36 1   
    18    8   37 1   
    19    8   38 1   
    20    9   39 1   
    21    9   40 1   
    22    9   41 1   
    23   10   11 1   
    24   10   42 1   
    25   11   12 2   
    26   11   13 1   
    27   13   14 1   
    28   13   15 1   
    29   13   43 1   
    30   14   44 1   
    31   14   45 1   
    32   14   46 1   
    33   15   16 1   
    34   15   47 1   
    35   16   17 2   
    36   16   18 1   
    37   18   19 1   
    38   18   20 1   
    39   18   48 1   
    40   19   49 1   
    41   20   21 1   
    42   20   22 1   
    43   20   50 1   
    44   21   51 1   
    45   21   52 1   
    46   22   23 ar  
    47   22   28 ar  
    48   23   24 ar  
    49   23   53 1   
    50   24   25 ar  
    51   24   54 1   
    52   25   26 1   
    53   25   27 ar  
    54   26   55 1   
    55   26   56 1   
    56   26   57 1   
    57   27   28 ar  
    58   27   58 1   
    59   28   59 1   
@<TRIPOS>SUBSTRUCTURE
     1 U15         1 TEMP              0 ****  ****    0 ROOT
