@<TRIPOS>MOLECULE
U15
   62    62     1     0     0
SMALL
bcc


@<TRIPOS>ATOM
      1 O42         1.1080   -1.9500    1.8450 o         1 U15     -0.679000
      2 C41         2.0600   -1.2860    1.3870 c         1 U15      0.660100
      3 O43         2.6150   -1.5590    0.2090 os        1 U15     -0.346900
      4 C44         2.1060   -2.6810   -0.5510 c3        1 U15      0.122700
      5 C37         2.7200   -0.1280    2.1270 c3        1 U15      0.078500
      6 C39         3.0210    1.0420    1.1900 c3        1 U15     -0.115400
      7 C48         3.6930    2.2260    1.8720 c3        1 U15     -0.077700
      8 C53         4.9100    1.8180    2.6720 c3        1 U15     -0.108600
      9 C51         4.0830    3.2390    0.8080 c3        1 U15     -0.108600
     10 N36         1.8580    0.3160    3.3010 n4        1 U15     -0.660800
     11 C27         1.3080   -0.8380    4.0700 c         1 U15      0.529100
     12 O35         2.0880   -1.5620    4.6710 o         1 U15     -0.381100
     13 C24        -0.2220   -1.0240    4.0870 c3        1 U15      0.094500
     14 C28        -0.7810   -0.2450    5.2710 c3        1 U15     -0.151100
     15 N23        -0.5280   -2.5010    4.1510 n4        1 U15     -0.673800
     16 C20        -1.9840   -2.8560    3.9740 c         1 U15      0.541100
     17 O22        -2.7650   -1.9920    3.6160 o         1 U15     -0.397100
     18 C14        -2.3330   -4.3220    4.2770 c3        1 U15      0.072100
     19 O19        -1.9200   -4.5290    5.6090 oh        1 U15     -0.615800
     20 C7         -3.8490   -4.5980    4.0670 c3        1 U15      0.190800
     21 N15        -4.7080   -4.0140    5.1580 n4        1 U15     -0.844600
     22 C3         -4.0850   -6.0690    3.9650 ca        1 U15     -0.265300
     23 C6         -4.5510   -6.6020    2.7550 ca        1 U15     -0.098500
     24 C2         -4.7930   -7.9680    2.6420 ca        1 U15     -0.115000
     25 C5         -4.5890   -8.8250    3.7340 ca        1 U15      0.034700
     26 C9         -4.8720  -10.2700    3.6220 c3        1 U15     -0.095800
     27 C4         -4.1280   -8.2810    4.9490 ca        1 U15     -0.115000
     28 C1         -3.8790   -6.9210    5.0640 ca        1 U15     -0.098500
     29 H441        2.7540   -2.6550   -1.4680 h1        1 U15      0.091033
     30 H442        1.0310   -2.5070   -0.7920 h1        1 U15      0.091033
     31 H443        2.2500   -3.6190    0.0340 h1        1 U15      0.091033
     32 H37         3.6970   -0.5200    2.5670 hx        1 U15      0.172700
     33 H391        3.7110    0.6300    0.3940 hc        1 U15      0.112700
     34 H392        2.0860    1.3810    0.6710 hc        1 U15      0.112700
     35 H48         2.9510    2.7240    2.5600 hc        1 U15      0.025700
     36 H531        5.6200    1.2230    2.0470 hc        1 U15      0.062200
     37 H532        5.4550    2.7300    3.0290 hc        1 U15      0.062200
     38 H533        4.6280    1.2150    3.5700 hc        1 U15      0.062200
     39 H511        4.8650    2.8170    0.1300 hc        1 U15      0.062200
     40 H512        3.1960    3.5310    0.1970 hc        1 U15      0.062200
     41 H513        4.4980    4.1570    1.2930 hc        1 U15      0.062200
     42 HN36        2.4750    0.8850    3.9130 hn        1 U15      0.490800
     43 H24        -0.6800   -0.6530    3.1150 hx        1 U15      0.156700
     44 H281       -0.3730   -0.6110    6.2470 hc        1 U15      0.107033
     45 H282       -0.5140    0.8370    5.1610 hc        1 U15      0.107033
     46 H283       -1.8990   -0.3120    5.2910 hc        1 U15      0.107033
     47 HN23       -0.2210   -2.8780    5.0650 hn        1 U15      0.501300
     48 H14        -1.7820   -4.9880    3.5460 h1        1 U15      0.146700
     49 HO19       -1.7290   -5.4780    5.7300 ho        1 U15      0.493000
     50 H7         -4.1640   -4.0890    3.1010 hx        1 U15      0.134700
     51 H151       -4.7400   -2.9930    5.0970 hn        1 U15      0.474800
     52 H152       -4.3480   -4.2960    6.0780 hn        1 U15      0.474800
     53 H6         -4.7330   -5.9490    1.8850 ha        1 U15      0.133500
     54 H2         -5.1590   -8.3820    1.6850 ha        1 U15      0.182500
     55 H91        -5.9390  -10.4690    3.9090 hc        1 U15      0.088033
     56 H92        -4.7250  -10.6330    2.5730 hc        1 U15      0.088033
     57 H93        -4.2140  -10.8680    4.3020 hc        1 U15      0.088033
     58 H4         -3.9720   -8.9470    5.8150 ha        1 U15      0.182500
     59 H1         -3.5340   -6.5210    6.0300 ha        1 U15      0.133500
     60 H362        1.1030    0.9190    2.9500 hn        1 U15      0.490800
     61 H232        0.0160   -2.9720    3.4020 hn        1 U15      0.501300
     62 H153       -5.6640   -4.3910    5.0550 hn        1 U15      0.474800
@<TRIPOS>BOND
     1    1    2 2   
     2    2    3 1   
     3    2    5 1   
     4    3    4 1   
     5    4   29 1   
     6    4   30 1   
     7    4   31 1   
     8    5    6 1   
     9    5   10 1   
    10    5   32 1   
    11    6    7 1   
    12    6   33 1   
    13    6   34 1   
    14    7    8 1   
    15    7    9 1   
    16    7   35 1   
    17    8   36 1   
    18    8   37 1   
    19    8   38 1   
    20    9   39 1   
    21    9   40 1   
    22    9   41 1   
    23   10   11 1   
    24   10   42 1   
    25   10   60 1   
    26   11   12 2   
    27   11   13 1   
    28   13   14 1   
    29   13   15 1   
    30   13   43 1   
    31   14   44 1   
    32   14   45 1   
    33   14   46 1   
    34   15   16 1   
    35   15   47 1   
    36   15   61 1   
    37   16   17 2   
    38   16   18 1   
    39   18   19 1   
    40   18   20 1   
    41   18   48 1   
    42   19   49 1   
    43   20   21 1   
    44   20   22 1   
    45   20   50 1   
    46   21   51 1   
    47   21   52 1   
    48   21   62 1   
    49   22   23 ar  
    50   22   28 ar  
    51   23   24 ar  
    52   23   53 1   
    53   24   25 ar  
    54   24   54 1   
    55   25   26 1   
    56   25   27 ar  
    57   26   55 1   
    58   26   56 1   
    59   26   57 1   
    60   27   28 ar  
    61   27   58 1   
    62   28   59 1   
@<TRIPOS>SUBSTRUCTURE
     1 U15         1 TEMP              0 ****  ****    0 ROOT
