@<TRIPOS>MOLECULE
U15
   62    62     1     0     0
SMALL
bcc


@<TRIPOS>ATOM
      1 O42         1.1360   -1.9630    1.8730 o         1 U15     -0.679000
      2 C41         2.0950   -1.3010    1.4270 c         1 U15      0.660100
      3 O43         2.6830   -1.5930    0.2700 os        1 U15     -0.346900
      4 C44         2.2020   -2.7320   -0.4820 c3        1 U15      0.122700
      5 C37         2.7290   -0.1250    2.1620 c3        1 U15      0.078500
      6 C39         3.0460    1.0290    1.2110 c3        1 U15     -0.115400
      7 C48         3.6920    2.2310    1.8880 c3        1 U15     -0.077700
      8 C53         4.8910    1.8470    2.7280 c3        1 U15     -0.108600
      9 C51         4.1040    3.2260    0.8150 c3        1 U15     -0.108600
     10 N36         1.8320    0.3360    3.3040 ny        1 U15     -0.660800
     11 C27         1.2710   -0.8070    4.0810 c         1 U15      0.529100
     12 O35         2.0390   -1.5150    4.7160 o         1 U15     -0.381100
     13 C24        -0.2580   -1.0040    4.0610 c3        1 U15      0.094500
     14 C28        -0.8530   -0.2080    5.2160 c3        1 U15     -0.151100
     15 N23        -0.5550   -2.4820    4.1460 ny        1 U15     -0.673800
     16 C20        -2.0040   -2.8510    3.9380 c         1 U15      0.541100
     17 O22        -2.7810   -1.9990    3.5430 o         1 U15     -0.397100
     18 C14        -2.3510   -4.3140    4.2600 c3        1 U15      0.072100
     19 O19        -1.9710   -4.4930    5.6050 oh        1 U15     -0.615800
     20 C7         -3.8590   -4.6050    4.0160 c3        1 U15      0.190800
     21 N15        -4.7500   -4.0070    5.0730 nz        1 U15     -0.844600
     22 C3         -4.0820   -6.0790    3.9350 ca        1 U15     -0.265300
     23 C6         -4.5130   -6.6380    2.7240 ca        1 U15     -0.098500
     24 C2         -4.7430   -8.0080    2.6310 ca        1 U15     -0.115000
     25 C5         -4.5610   -8.8420    3.7440 ca        1 U15      0.034700
     26 C9         -4.8310  -10.2920    3.6510 c3        1 U15     -0.095800
     27 C4         -4.1350   -8.2720    4.9590 ca        1 U15     -0.115000
     28 C1         -3.8980   -6.9090    5.0550 ca        1 U15     -0.098500
     29 H441        1.1330   -2.5710   -0.7540 h1        1 U15      0.091033
     30 H442        2.3360   -3.6580    0.1250 h1        1 U15      0.091033
     31 H443        2.8730   -2.7180   -1.3820 h1        1 U15      0.091033
     32 H37         3.6960   -0.5020    2.6350 hx        1 U15      0.172700
     33 H391        3.7600    0.6080    0.4420 hc        1 U15      0.112700
     34 H392        2.1230    1.3520    0.6610 hc        1 U15      0.112700
     35 H48         2.9290    2.7370    2.5460 hc        1 U15      0.025700
     36 H531        5.4190    2.7690    3.0810 hc        1 U15      0.062200
     37 H532        5.6200    1.2440    2.1330 hc        1 U15      0.062200
     38 H533        4.5880    1.2590    3.6290 hc        1 U15      0.062200
     39 H511        4.5000    4.1560    1.2940 hc        1 U15      0.062200
     40 H512        4.9070    2.7970    0.1670 hc        1 U15      0.062200
     41 H513        3.2320    3.5000    0.1750 hc        1 U15      0.062200
     42 HN36        2.4300    0.9210    3.9210 hn        1 U15      0.490800
     43 H24        -0.6930   -0.6550    3.0710 hx        1 U15      0.156700
     44 H281       -1.9700   -0.2820    5.2080 hc        1 U15      0.107033
     45 H282       -0.4680   -0.5520    6.2090 hc        1 U15      0.107033
     46 H283       -0.5900    0.8750    5.0920 hc        1 U15      0.107033
     47 HN23       -0.2700   -2.8400    5.0750 hn        1 U15      0.501300
     48 H14        -1.7760   -4.9900    3.5550 h1        1 U15      0.146700
     49 HO19       -1.7770   -5.4380    5.7500 ho        1 U15      0.493000
     50 H7         -4.1520   -4.1160    3.0320 hx        1 U15      0.134700
     51 H151       -4.4120   -4.2690    6.0080 hn        1 U15      0.474800
     52 H152       -4.7870   -2.9870    4.9920 hn        1 U15      0.474800
     53 H6         -4.6760   -6.0030    1.8380 ha        1 U15      0.133500
     54 H2         -5.0810   -8.4420    1.6730 ha        1 U15      0.182500
     55 H91        -4.1870  -10.8720    4.3590 hc        1 U15      0.088033
     56 H92        -4.6550  -10.6730    2.6140 hc        1 U15      0.088033
     57 H93        -5.9040  -10.4920    3.9160 hc        1 U15      0.088033
     58 H4         -3.9970   -8.9210    5.8420 ha        1 U15      0.182500
     59 H1         -3.5820   -6.4890    6.0230 ha        1 U15      0.133500
     60 H362        1.0830    0.9260    2.9220 hn        1 U15      0.490800
     61 H232        0.0110   -2.9630    3.4200 hn        1 U15      0.501300
     62 H153       -5.7000   -4.3930    4.9530 hn        1 U15      0.474800
@<TRIPOS>BOND
     1    1    2 2   
     2    2    3 1   
     3    2    5 1   
     4    3    4 1   
     5    4   29 1   
     6    4   30 1   
     7    4   31 1   
     8    5    6 1   
     9    5   10 1   
    10    5   32 1   
    11    6    7 1   
    12    6   33 1   
    13    6   34 1   
    14    7    8 1   
    15    7    9 1   
    16    7   35 1   
    17    8   36 1   
    18    8   37 1   
    19    8   38 1   
    20    9   39 1   
    21    9   40 1   
    22    9   41 1   
    23   10   11 1   
    24   10   42 1   
    25   10   60 1   
    26   11   12 2   
    27   11   13 1   
    28   13   14 1   
    29   13   15 1   
    30   13   43 1   
    31   14   44 1   
    32   14   45 1   
    33   14   46 1   
    34   15   16 1   
    35   15   47 1   
    36   15   61 1   
    37   16   17 2   
    38   16   18 1   
    39   18   19 1   
    40   18   20 1   
    41   18   48 1   
    42   19   49 1   
    43   20   21 1   
    44   20   22 1   
    45   20   50 1   
    46   21   51 1   
    47   21   52 1   
    48   21   62 1   
    49   22   23 ar  
    50   22   28 ar  
    51   23   24 ar  
    52   23   53 1   
    53   24   25 ar  
    54   24   54 1   
    55   25   26 1   
    56   25   27 ar  
    57   26   55 1   
    58   26   56 1   
    59   26   57 1   
    60   27   28 ar  
    61   27   58 1   
    62   28   59 1   
@<TRIPOS>SUBSTRUCTURE
     1 U15         1 TEMP              0 ****  ****    0 ROOT
