@<TRIPOS>MOLECULE
U15
   62    62     1     0     0
SMALL
bcc


@<TRIPOS>ATOM
      1 O42         1.1210   -1.9570    1.8580 o         1 U15     -0.679000
      2 C41         2.0780   -1.2960    1.4060 c         1 U15      0.660100
      3 O43         2.6460   -1.5780    0.2360 os        1 U15     -0.346900
      4 C44         2.1460   -2.7060   -0.5210 c3        1 U15      0.122700
      5 C37         2.7300   -0.1330    2.1450 c3        1 U15      0.078500
      6 C39         3.0410    1.0300    1.2020 c3        1 U15     -0.115400
      7 C48         3.7050    2.2200    1.8830 c3        1 U15     -0.077700
      8 C53         4.9140    1.8180    2.6990 c3        1 U15     -0.108600
      9 C51         4.1070    3.2240    0.8160 c3        1 U15     -0.108600
     10 N36         1.8550    0.3200    3.3050 n4        1 U15     -0.660800
     11 C27         1.2970   -0.8280    4.0780 c         1 U15      0.529100
     12 O35         2.0700   -1.5480    4.6930 o         1 U15     -0.381100
     13 C24        -0.2330   -1.0140    4.0790 c3        1 U15      0.094500
     14 C28        -0.8050   -0.2280    5.2510 c3        1 U15     -0.151100
     15 N23        -0.5400   -2.4910    4.1510 n4        1 U15     -0.673800
     16 C20        -1.9940   -2.8480    3.9590 c         1 U15      0.541100
     17 O22        -2.7710   -1.9860    3.5870 o         1 U15     -0.397100
     18 C14        -2.3460   -4.3120    4.2690 c3        1 U15      0.072100
     19 O19        -1.9470   -4.5100    5.6060 oh        1 U15     -0.615800
     20 C7         -3.8590   -4.5900    4.0440 c3        1 U15      0.190800
     21 N15        -4.7300   -3.9990    5.1210 n4        1 U15     -0.844600
     22 C3         -4.0930   -6.0620    3.9480 ca        1 U15     -0.265300
     23 C6         -4.5460   -6.6020    2.7360 ca        1 U15     -0.098500
     24 C2         -4.7860   -7.9690    2.6290 ca        1 U15     -0.115000
     25 C5         -4.5940   -8.8190    3.7290 ca        1 U15      0.034700
     26 C9         -4.8750  -10.2650    3.6230 c3        1 U15     -0.095800
     27 C4         -4.1460   -8.2670    4.9450 ca        1 U15     -0.115000
     28 C1         -3.8980   -6.9070    5.0540 ca        1 U15     -0.098500
     29 H441        2.8040   -2.6860   -1.4310 h1        1 U15      0.091033
     30 H442        1.0740   -2.5340   -0.7750 h1        1 U15      0.091033
     31 H443        2.2840   -3.6390    0.0730 h1        1 U15      0.091033
     32 H37         3.7020   -0.5210    2.5980 hx        1 U15      0.172700
     33 H391        3.7400    0.6130    0.4170 hc        1 U15      0.112700
     34 H392        2.1110    1.3650    0.6710 hc        1 U15      0.112700
     35 H48         2.9560    2.7230    2.5590 hc        1 U15      0.025700
     36 H531        5.6310    1.2180    2.0860 hc        1 U15      0.062200
     37 H532        4.6220    1.2220    3.5980 hc        1 U15      0.062200
     38 H533        5.4540    2.7320    3.0550 hc        1 U15      0.062200
     39 H511        3.2270    3.5130    0.1920 hc        1 U15      0.062200
     40 H512        4.5170    4.1460    1.2980 hc        1 U15      0.062200
     41 H513        4.8960    2.7980    0.1490 hc        1 U15      0.062200
     42 HN36        2.4660    0.8940    3.9200 hn        1 U15      0.490800
     43 H24        -0.6800   -0.6510    3.0990 hx        1 U15      0.156700
     44 H281       -1.9230   -0.2940    5.2600 hc        1 U15      0.107033
     45 H282       -0.4070   -0.5870    6.2350 hc        1 U15      0.107033
     46 H283       -0.5370    0.8540    5.1360 hc        1 U15      0.107033
     47 HN23        0.0130   -2.9680    3.4110 hn        1 U15      0.501300
     48 H14        -1.7860   -4.9830    3.5480 h1        1 U15      0.146700
     49 HO19       -1.7570   -5.4590    5.7360 ho        1 U15      0.493000
     50 H7         -4.1640   -4.0870    3.0710 hx        1 U15      0.134700
     51 H151       -5.6850   -4.3780    5.0110 hn        1 U15      0.474800
     52 H152       -4.7610   -2.9790    5.0540 hn        1 U15      0.474800
     53 H6         -4.7190   -5.9550    1.8610 ha        1 U15      0.133500
     54 H2         -5.1420   -8.3890    1.6710 ha        1 U15      0.182500
     55 H91        -4.2230  -10.8590    4.3120 hc        1 U15      0.088033
     56 H92        -4.7190  -10.6340    2.5780 hc        1 U15      0.088033
     57 H93        -5.9440  -10.4630    3.9020 hc        1 U15      0.088033
     58 H4         -3.9990   -8.9280    5.8170 ha        1 U15      0.182500
     59 H1         -3.5650   -6.5010    6.0220 ha        1 U15      0.133500
     60 H362        1.1030    0.9200    2.9420 hn        1 U15      0.490800
     61 H232       -0.2430   -2.8610    5.0710 hn        1 U15      0.501300
     62 H153       -4.3800   -4.2760    6.0480 hn        1 U15      0.474800
@<TRIPOS>BOND
     1    1    2 2   
     2    2    3 1   
     3    2    5 1   
     4    3    4 1   
     5    4   29 1   
     6    4   30 1   
     7    4   31 1   
     8    5    6 1   
     9    5   10 1   
    10    5   32 1   
    11    6    7 1   
    12    6   33 1   
    13    6   34 1   
    14    7    8 1   
    15    7    9 1   
    16    7   35 1   
    17    8   36 1   
    18    8   37 1   
    19    8   38 1   
    20    9   39 1   
    21    9   40 1   
    22    9   41 1   
    23   10   11 1   
    24   10   42 1   
    25   10   60 1   
    26   11   12 2   
    27   11   13 1   
    28   13   14 1   
    29   13   15 1   
    30   13   43 1   
    31   14   44 1   
    32   14   45 1   
    33   14   46 1   
    34   15   16 1   
    35   15   47 1   
    36   15   61 1   
    37   16   17 2   
    38   16   18 1   
    39   18   19 1   
    40   18   20 1   
    41   18   48 1   
    42   19   49 1   
    43   20   21 1   
    44   20   22 1   
    45   20   50 1   
    46   21   51 1   
    47   21   52 1   
    48   21   62 1   
    49   22   23 ar  
    50   22   28 ar  
    51   23   24 ar  
    52   23   53 1   
    53   24   25 ar  
    54   24   54 1   
    55   25   26 1   
    56   25   27 ar  
    57   26   55 1   
    58   26   56 1   
    59   26   57 1   
    60   27   28 ar  
    61   27   58 1   
    62   28   59 1   
@<TRIPOS>SUBSTRUCTURE
     1 U15         1 TEMP              0 ****  ****    0 ROOT
