@<TRIPOS>MOLECULE
U16
   68    68     1     0     0
SMALL
bcc


@<TRIPOS>ATOM
      1 O31         0.4790   -1.6300   -0.5880 o         1 U16     -0.397100
      2 C25         1.4300   -0.8980   -0.3750 c         1 U16      0.541100
      3 C23         2.2030   -0.7780    0.9490 c3        1 U16      0.072100
      4 C11         1.6230   -1.7310    2.0310 c3        1 U16      0.190800
      5 C7          2.6110   -1.8950    3.1390 ca        1 U16     -0.265300
      6 C3          2.9490   -0.8250    3.9830 ca        1 U16     -0.102000
      7 C6          3.8520   -1.0100    5.0210 ca        1 U16     -0.112500
      8 C5          4.4410   -2.2670    5.2440 ca        1 U16      0.036700
      9 C9          5.4100   -2.5090    6.3580 c3        1 U16     -0.050400
     10 C14         6.0720   -1.2440    6.8640 c3        1 U16     -0.099100
     11 C15         4.7170   -3.2350    7.5000 c3        1 U16     -0.099100
     12 C2          4.0950   -3.3330    4.3970 ca        1 U16     -0.112500
     13 C4          3.1860   -3.1560    3.3590 ca        1 U16     -0.102000
     14 N24         0.3040   -1.2590    2.5840 nz        1 U16     -0.844600
     15 O27         2.1030    0.5810    1.3080 oh        1 U16     -0.615800
     16 N32         1.9310   -0.0050   -1.4840 ny        1 U16     -0.673800
     17 C33         1.0390    0.0580   -2.7010 c3        1 U16      0.094500
     18 C37        -0.2840    0.7650   -2.4350 c3        1 U16     -0.150100
     19 C36         1.7780    0.8260   -3.8140 c         1 U16      0.529100
     20 O41         2.5370    1.7620   -3.6070 o         1 U16     -0.381100
     21 N42         1.5190    0.4180   -5.2260 ny        1 U16     -0.660800
     22 C43         2.7640   -0.1320   -5.9080 c3        1 U16      0.078500
     23 C45         2.4130   -0.8110   -7.2320 c3        1 U16     -0.115400
     24 C49         1.6730    0.0870   -8.2130 c3        1 U16     -0.077700
     25 C52         2.3750    1.4100   -8.4280 c3        1 U16     -0.108100
     26 C53         1.5350   -0.6500   -9.5350 c3        1 U16     -0.108100
     27 C47         3.5120   -1.0760   -4.9730 c         1 U16      0.660100
     28 O60         3.2940   -1.1560   -3.7470 o         1 U16     -0.679000
     29 O61         4.4580   -1.7930   -5.5740 os        1 U16     -0.346900
     30 C62         5.2730   -2.6760   -4.7680 c3        1 U16      0.122700
     31 H23         3.2750   -1.1010    0.7780 h1        1 U16      0.146700
     32 H11         1.4250   -2.7370    1.5390 hx        1 U16      0.134700
     33 H3          2.4920    0.1680    3.8460 ha        1 U16      0.132000
     34 H6          4.1040   -0.1620    5.6840 ha        1 U16      0.183000
     35 H9          6.2220   -3.1860    5.9550 hc        1 U16      0.083700
     36 H141        5.3500   -0.6090    7.4340 hc        1 U16      0.055867
     37 H142        6.9080   -1.5160    7.5560 hc        1 U16      0.055867
     38 H143        6.4940   -0.6480    6.0200 hc        1 U16      0.055867
     39 H151        3.9140   -2.6010    7.9460 hc        1 U16      0.055867
     40 H152        4.2670   -4.1920    7.1430 hc        1 U16      0.055867
     41 H153        5.4650   -3.4690    8.2980 hc        1 U16      0.055867
     42 H2          4.5440   -4.3290    4.5660 ha        1 U16      0.183000
     43 H4          2.9240   -4.0130    2.7190 ha        1 U16      0.132000
     44 H241       -0.4440   -1.3580    1.8930 hn        1 U16      0.474800
     45 H242        0.3780   -0.2770    2.8790 hn        1 U16      0.474800
     46 HO27        2.8640    0.8080    1.8770 ho        1 U16      0.493000
     47 HN32        2.8610   -0.3550   -1.7890 hn        1 U16      0.501300
     48 H33         0.8590   -1.0210   -3.0110 hx        1 U16      0.156700
     49 H371       -0.8780    0.2080   -1.6650 hc        1 U16      0.107033
     50 H372       -0.1370    1.8210   -2.0940 hc        1 U16      0.107033
     51 H373       -0.8910    0.7790   -3.3770 hc        1 U16      0.107033
     52 HN42        0.7720   -0.2870   -5.2760 hn        1 U16      0.490800
     53 H43         3.4480    0.7580   -6.1100 hx        1 U16      0.172700
     54 H451        1.8200   -1.7470   -7.0490 hc        1 U16      0.112700
     55 H452        3.3980   -1.1280   -7.6880 hc        1 U16      0.112700
     56 H49         0.6330    0.2820   -7.8220 hc        1 U16      0.025700
     57 H521        1.8810    1.9720   -9.2620 hc        1 U16      0.062200
     58 H522        3.4450    1.2550   -8.7100 hc        1 U16      0.062200
     59 H523        2.3320    2.0500   -7.5130 hc        1 U16      0.062200
     60 H531        1.0370   -1.6390   -9.3860 hc        1 U16      0.062200
     61 H532        0.9160   -0.0460  -10.2430 hc        1 U16      0.062200
     62 H533        2.5370   -0.8180  -10.0000 hc        1 U16      0.062200
     63 H621        5.8330   -2.0760   -4.0140 h1        1 U16      0.091033
     64 H622        5.9550   -3.1300   -5.5360 h1        1 U16      0.091033
     65 H623        4.6220   -3.4410   -4.2830 h1        1 U16      0.091033
     66 H243        0.0780   -1.8300    3.4150 hn        1 U16      0.474800
     67 H322        2.0510    0.9460   -1.0930 hn        1 U16      0.501300
     68 H422        1.2270    1.2460   -5.7830 hn        1 U16      0.490800
@<TRIPOS>BOND
     1    1    2 2   
     2    2    3 1   
     3    2   16 1   
     4    3    4 1   
     5    3   15 1   
     6    3   31 1   
     7    4    5 1   
     8    4   14 1   
     9    4   32 1   
    10    5    6 ar  
    11    5   13 ar  
    12    6    7 ar  
    13    6   33 1   
    14    7    8 ar  
    15    7   34 1   
    16    8    9 1   
    17    8   12 ar  
    18    9   10 1   
    19    9   11 1   
    20    9   35 1   
    21   10   36 1   
    22   10   37 1   
    23   10   38 1   
    24   11   39 1   
    25   11   40 1   
    26   11   41 1   
    27   12   13 ar  
    28   12   42 1   
    29   13   43 1   
    30   14   44 1   
    31   14   45 1   
    32   14   66 1   
    33   15   46 1   
    34   16   17 1   
    35   16   47 1   
    36   16   67 1   
    37   17   18 1   
    38   17   19 1   
    39   17   48 1   
    40   18   49 1   
    41   18   50 1   
    42   18   51 1   
    43   19   20 2   
    44   19   21 1   
    45   21   22 1   
    46   21   52 1   
    47   21   68 1   
    48   22   23 1   
    49   22   27 1   
    50   22   53 1   
    51   23   24 1   
    52   23   54 1   
    53   23   55 1   
    54   24   25 1   
    55   24   26 1   
    56   24   56 1   
    57   25   57 1   
    58   25   58 1   
    59   25   59 1   
    60   26   60 1   
    61   26   61 1   
    62   26   62 1   
    63   27   28 2   
    64   27   29 1   
    65   29   30 1   
    66   30   63 1   
    67   30   64 1   
    68   30   65 1   
@<TRIPOS>SUBSTRUCTURE
     1 U16         1 TEMP              0 ****  ****    0 ROOT
