@<TRIPOS>MOLECULE
U16
   65    65     1     0     0
SMALL
bcc


@<TRIPOS>ATOM
      1 O31         0.1250   -1.6080   -2.9970 o         1 U16     -0.600100
      2 C25         0.5570   -1.5660   -1.8290 c         1 U16      0.636100
      3 C23         2.0290   -1.2210   -1.5690 c3        1 U16      0.089100
      4 C11         2.1380    0.2070   -0.9600 c3        1 U16      0.187800
      5 C7          3.4630    0.3450   -0.2480 ca        1 U16     -0.145300
      6 C3          4.6650    0.1020   -0.9210 ca        1 U16     -0.115000
      7 C6          5.8820    0.2550   -0.2630 ca        1 U16     -0.130000
      8 C5          5.9200    0.6540    1.0790 ca        1 U16     -0.065300
      9 C9          7.2230    0.8220    1.7950 c3        1 U16     -0.025400
     10 C14         7.9840   -0.4900    1.8540 c3        1 U16     -0.088100
     11 C15         8.0690    1.8970    1.1400 c3        1 U16     -0.088100
     12 C2          4.7150    0.8950    1.7500 ca        1 U16     -0.130000
     13 C4          3.4960    0.7430    1.0910 ca        1 U16     -0.115000
     14 N24         1.8740    1.2310   -1.9520 n3        1 U16     -0.898800
     15 O27         2.7670   -1.3580   -2.7630 oh        1 U16     -0.592800
     16 N32        -0.2280   -1.8970   -0.7390 n         1 U16     -0.543900
     17 C33        -1.6580   -2.0420   -0.8540 c3        1 U16      0.035700
     18 C37        -2.1680   -3.3630   -0.2750 c3        1 U16     -0.104100
     19 C36        -2.3970   -0.9050   -0.0980 c         1 U16      0.641100
     20 O41        -1.8990   -0.3620    0.9090 o         1 U16     -0.617100
     21 N42        -3.6510   -0.5700   -0.5600 n         1 U16     -0.556900
     22 C43        -4.4270    0.4950    0.0220 c3        1 U16      0.062700
     23 C45        -5.7640    0.0410    0.6350 c3        1 U16     -0.085400
     24 C49        -5.5990   -0.9390    1.7860 c3        1 U16     -0.061700
     25 C52        -4.7770   -0.3530    2.9140 c3        1 U16     -0.098100
     26 C53        -6.9690   -1.3520    2.2900 c3        1 U16     -0.098100
     27 C47        -4.7710    1.5470   -1.0330 c         1 U16      0.606100
     28 O60        -5.0040    1.3840   -2.2320 o         1 U16     -0.539000
     29 O61        -4.8290    2.8060   -0.5130 os        1 U16     -0.430900
     30 C62        -5.1540    3.8620   -1.4210 c3        1 U16      0.123700
     31 H23         2.4960   -1.9580   -0.8550 h1        1 U16      0.097700
     32 H11         1.3190    0.3030   -0.1820 h1        1 U16      0.069700
     33 H3          4.6390   -0.2300   -1.9720 ha        1 U16      0.143000
     34 H6          6.8220    0.0590   -0.8000 ha        1 U16      0.134000
     35 H9          7.0110    1.1460    2.8560 hc        1 U16      0.050700
     36 H141        7.3730   -1.2720    2.3650 hc        1 U16      0.037200
     37 H142        8.2310   -0.8490    0.8260 hc        1 U16      0.037200
     38 H143        8.9360   -0.3530    2.4210 hc        1 U16      0.037200
     39 H151        7.5210    2.8690    1.1260 hc        1 U16      0.037200
     40 H152        9.0210    2.0310    1.7070 hc        1 U16      0.037200
     41 H153        8.3200    1.6160    0.0890 hc        1 U16      0.037200
     42 H2          4.7270    1.2070    2.8050 ha        1 U16      0.134000
     43 H4          2.5580    0.9390    1.6330 ha        1 U16      0.143000
     44 H241        1.9280    2.1390   -1.5320 hn        1 U16      0.357300
     45 H242        2.5420    1.1760   -2.6970 hn        1 U16      0.357300
     46 HO27        2.2120   -1.0620   -3.5020 ho        1 U16      0.434000
     47 HN32        0.1120   -1.6850    0.1730 hn        1 U16      0.323500
     48 H33        -1.9210   -2.0020   -1.9560 h1        1 U16      0.105700
     49 H371       -1.9430   -3.4370    0.8160 hc        1 U16      0.052700
     50 H372       -3.2740   -3.4220   -0.4190 hc        1 U16      0.052700
     51 H373       -1.6900   -4.2250   -0.7990 hc        1 U16      0.052700
     52 HN42       -3.9870   -0.9580   -1.4110 hn        1 U16      0.329500
     53 H43        -3.8080    0.9960    0.8300 h1        1 U16      0.123700
     54 H451       -6.2880    0.9640    1.0020 hc        1 U16      0.057700
     55 H452       -6.4040   -0.4260   -0.1590 hc        1 U16      0.057700
     56 H49        -5.0730   -1.8600    1.4050 hc        1 U16      0.049700
     57 H521       -5.1830    0.6400    3.2240 hc        1 U16      0.039033
     58 H522       -4.7990   -1.0340    3.7990 hc        1 U16      0.039033
     59 H523       -3.7120   -0.2230    2.5980 hc        1 U16      0.039033
     60 H531       -7.5730   -1.7970    1.4640 hc        1 U16      0.039033
     61 H532       -6.8660   -2.1100    3.1040 hc        1 U16      0.039033
     62 H533       -7.5190   -0.4690    2.6970 hc        1 U16      0.039033
     63 H621       -4.3910    3.9100   -2.2350 h1        1 U16      0.053700
     64 H622       -6.1680    3.6900   -1.8550 h1        1 U16      0.053700
     65 H623       -5.1300    4.7770   -0.7790 h1        1 U16      0.053700
@<TRIPOS>BOND
     1    1    2 2   
     2    2    3 1   
     3    2   16 1   
     4    3    4 1   
     5    3   15 1   
     6    3   31 1   
     7    4    5 1   
     8    4   14 1   
     9    4   32 1   
    10    5    6 ar  
    11    5   13 ar  
    12    6    7 ar  
    13    6   33 1   
    14    7    8 ar  
    15    7   34 1   
    16    8    9 1   
    17    8   12 ar  
    18    9   10 1   
    19    9   11 1   
    20    9   35 1   
    21   10   36 1   
    22   10   37 1   
    23   10   38 1   
    24   11   39 1   
    25   11   40 1   
    26   11   41 1   
    27   12   13 ar  
    28   12   42 1   
    29   13   43 1   
    30   14   44 1   
    31   14   45 1   
    32   15   46 1   
    33   16   17 1   
    34   16   47 1   
    35   17   18 1   
    36   17   19 1   
    37   17   48 1   
    38   18   49 1   
    39   18   50 1   
    40   18   51 1   
    41   19   20 2   
    42   19   21 1   
    43   21   22 1   
    44   21   52 1   
    45   22   23 1   
    46   22   27 1   
    47   22   53 1   
    48   23   24 1   
    49   23   54 1   
    50   23   55 1   
    51   24   25 1   
    52   24   26 1   
    53   24   56 1   
    54   25   57 1   
    55   25   58 1   
    56   25   59 1   
    57   26   60 1   
    58   26   61 1   
    59   26   62 1   
    60   27   28 2   
    61   27   29 1   
    62   29   30 1   
    63   30   63 1   
    64   30   64 1   
    65   30   65 1   
@<TRIPOS>SUBSTRUCTURE
     1 U16         1 TEMP              0 ****  ****    0 ROOT
