@<TRIPOS>MOLECULE
U16
   68    68     1     0     0
SMALL
bcc


@<TRIPOS>ATOM
      1 O31         0.4490   -1.5050   -0.5610 o         1 U16     -0.397100
      2 C25         1.4390   -0.8230   -0.3630 c         1 U16      0.541100
      3 C23         2.2300   -0.7330    0.9520 c3        1 U16      0.072100
      4 C11         1.6110   -1.6450    2.0490 c3        1 U16      0.190800
      5 C7          2.5990   -1.8520    3.1490 ca        1 U16     -0.265300
      6 C3          3.0020   -0.7940    3.9800 ca        1 U16     -0.102000
      7 C6          3.9040   -1.0180    5.0110 ca        1 U16     -0.112500
      8 C5          4.4280   -2.3030    5.2400 ca        1 U16      0.036700
      9 C9          5.3940   -2.5860    6.3470 c3        1 U16     -0.050400
     10 C14         6.1270   -1.3540    6.8350 c3        1 U16     -0.099100
     11 C15         4.6740   -3.2640    7.5020 c3        1 U16     -0.099100
     12 C2          4.0170   -3.3560    4.4050 ca        1 U16     -0.112500
     13 C4          3.1090   -3.1390    3.3740 ca        1 U16     -0.102000
     14 N24         0.3240   -1.0980    2.6090 n4        1 U16     -0.844600
     15 O27         2.2070    0.6330    1.3000 oh        1 U16     -0.615800
     16 N32         1.9770    0.0320   -1.4850 n4        1 U16     -0.673800
     17 C33         1.0780    0.1320   -2.6940 c3        1 U16      0.094500
     18 C37        -0.2030    0.9110   -2.4230 c3        1 U16     -0.150100
     19 C36         1.8460    0.8500   -3.8210 c         1 U16      0.529100
     20 O41         2.6560    1.7450   -3.6300 o         1 U16     -0.381100
     21 N42         1.5520    0.4440   -5.2270 n4        1 U16     -0.660800
     22 C43         2.7600   -0.1780   -5.9150 c3        1 U16      0.078500
     23 C45         2.3600   -0.8490   -7.2290 c3        1 U16     -0.115400
     24 C49         1.6600    0.0790   -8.2130 c3        1 U16     -0.077700
     25 C52         2.4300    1.3610   -8.4450 c3        1 U16     -0.108100
     26 C53         1.4710   -0.6620   -9.5250 c3        1 U16     -0.108100
     27 C47         3.4650   -1.1530   -4.9780 c         1 U16      0.660100
     28 O60         3.2550   -1.2100   -3.7490 o         1 U16     -0.679000
     29 O61         4.3650   -1.9240   -5.5810 os        1 U16     -0.346900
     30 C62         5.1400   -2.8430   -4.7740 c3        1 U16      0.122700
     31 H23         3.2820   -1.1150    0.7740 h1        1 U16      0.146700
     32 H11         1.3550   -2.6420    1.5670 hx        1 U16      0.134700
     33 H3          2.5970    0.2210    3.8380 ha        1 U16      0.132000
     34 H6          4.2070   -0.1790    5.6640 ha        1 U16      0.183000
     35 H9          6.1640   -3.3100    5.9430 hc        1 U16      0.083700
     36 H141        6.5720   -0.7900    5.9810 hc        1 U16      0.055867
     37 H142        5.4460   -0.6760    7.4050 hc        1 U16      0.055867
     38 H143        6.9540   -1.6640    7.5210 hc        1 U16      0.055867
     39 H151        3.9100   -2.5830    7.9500 hc        1 U16      0.055867
     40 H152        4.1690   -4.1980    7.1580 hc        1 U16      0.055867
     41 H153        5.4150   -3.5300    8.2960 hc        1 U16      0.055867
     42 H2          4.4140   -4.3720    4.5790 ha        1 U16      0.183000
     43 H4          2.7950   -3.9870    2.7450 ha        1 U16      0.132000
     44 H241       -0.4340   -1.1630    1.9260 hn        1 U16      0.474800
     45 H242        0.0760   -1.6490    3.4480 hn        1 U16      0.474800
     46 HO27        2.9840    0.8230    1.8600 ho        1 U16      0.493000
     47 HN32        2.8840   -0.3690   -1.7950 hn        1 U16      0.501300
     48 H33         0.8380   -0.9380   -2.9930 hx        1 U16      0.156700
     49 H371       -0.8170    0.9500   -3.3600 hc        1 U16      0.107033
     50 H372       -0.8180    0.3940   -1.6430 hc        1 U16      0.107033
     51 H373        0.0040    1.9610   -2.0940 hc        1 U16      0.107033
     52 HN42        0.7690   -0.2200   -5.2630 hn        1 U16      0.490800
     53 H43         3.4890    0.6720   -6.1310 hx        1 U16      0.172700
     54 H451        1.7200   -1.7500   -7.0320 hc        1 U16      0.112700
     55 H452        3.3230   -1.2220   -7.6910 hc        1 U16      0.112700
     56 H49         0.6360    0.3330   -7.8140 hc        1 U16      0.025700
     57 H521        3.4880    1.1460   -8.7360 hc        1 U16      0.062200
     58 H522        1.9600    1.9400   -9.2810 hc        1 U16      0.062200
     59 H523        2.4300    2.0100   -7.5360 hc        1 U16      0.062200
     60 H531        0.8790   -0.0310  -10.2340 hc        1 U16      0.062200
     61 H532        0.9220   -1.6210   -9.3630 hc        1 U16      0.062200
     62 H533        2.4580   -0.8870   -9.9980 hc        1 U16      0.062200
     63 H621        5.7390   -2.2670   -4.0310 h1        1 U16      0.091033
     64 H622        5.7900   -3.3390   -5.5440 h1        1 U16      0.091033
     65 H623        4.4530   -3.5670   -4.2760 h1        1 U16      0.091033
     66 H243        0.4530   -0.1190    2.8940 hn        1 U16      0.474800
     67 H322        2.1510    0.9790   -1.1040 hn        1 U16      0.501300
     68 H422        1.3000    1.2810   -5.7890 hn        1 U16      0.490800
@<TRIPOS>BOND
     1    1    2 2   
     2    2    3 1   
     3    2   16 1   
     4    3    4 1   
     5    3   15 1   
     6    3   31 1   
     7    4    5 1   
     8    4   14 1   
     9    4   32 1   
    10    5    6 ar  
    11    5   13 ar  
    12    6    7 ar  
    13    6   33 1   
    14    7    8 ar  
    15    7   34 1   
    16    8    9 1   
    17    8   12 ar  
    18    9   10 1   
    19    9   11 1   
    20    9   35 1   
    21   10   36 1   
    22   10   37 1   
    23   10   38 1   
    24   11   39 1   
    25   11   40 1   
    26   11   41 1   
    27   12   13 ar  
    28   12   42 1   
    29   13   43 1   
    30   14   44 1   
    31   14   45 1   
    32   14   66 1   
    33   15   46 1   
    34   16   17 1   
    35   16   47 1   
    36   16   67 1   
    37   17   18 1   
    38   17   19 1   
    39   17   48 1   
    40   18   49 1   
    41   18   50 1   
    42   18   51 1   
    43   19   20 2   
    44   19   21 1   
    45   21   22 1   
    46   21   52 1   
    47   21   68 1   
    48   22   23 1   
    49   22   27 1   
    50   22   53 1   
    51   23   24 1   
    52   23   54 1   
    53   23   55 1   
    54   24   25 1   
    55   24   26 1   
    56   24   56 1   
    57   25   57 1   
    58   25   58 1   
    59   25   59 1   
    60   26   60 1   
    61   26   61 1   
    62   26   62 1   
    63   27   28 2   
    64   27   29 1   
    65   29   30 1   
    66   30   63 1   
    67   30   64 1   
    68   30   65 1   
@<TRIPOS>SUBSTRUCTURE
     1 U16         1 TEMP              0 ****  ****    0 ROOT
