@<TRIPOS>MOLECULE
U16
   68    68     1     0     0
SMALL
bcc


@<TRIPOS>ATOM
      1 O31         0.4830   -1.6380   -0.5920 o         1 U16     -0.398100
      2 C25         1.4320   -0.9040   -0.3760 c         1 U16      0.541100
      3 C23         2.2030   -0.7860    0.9500 c3        1 U16      0.072100
      4 C11         1.6250   -1.7460    2.0280 c3        1 U16      0.190800
      5 C7          2.6110   -1.9090    3.1370 ca        1 U16     -0.265300
      6 C3          2.9410   -0.8400    3.9860 ca        1 U16     -0.102000
      7 C6          3.8430   -1.0240    5.0250 ca        1 U16     -0.112500
      8 C5          4.4390   -2.2790    5.2450 ca        1 U16      0.036700
      9 C9          5.4070   -2.5190    6.3600 c3        1 U16     -0.050400
     10 C14         6.0600   -1.2520    6.8720 c3        1 U16     -0.099100
     11 C15         4.7150   -3.2530    7.4980 c3        1 U16     -0.099100
     12 C2          4.0990   -3.3430    4.3930 ca        1 U16     -0.112500
     13 C4          3.1920   -3.1670    3.3540 ca        1 U16     -0.102000
     14 N24         0.3020   -1.2820    2.5790 n4        1 U16     -0.844600
     15 O27         2.0980    0.5710    1.3140 oh        1 U16     -0.615800
     16 N32         1.9330   -0.0070   -1.4820 n4        1 U16     -0.673800
     17 C33         1.0420    0.0590   -2.6990 c3        1 U16      0.094500
     18 C37        -0.2820    0.7630   -2.4320 c3        1 U16     -0.150100
     19 C36         1.7800    0.8310   -3.8090 c         1 U16      0.529100
     20 O41         2.5380    1.7670   -3.5990 o         1 U16     -0.381100
     21 N42         1.5230    0.4280   -5.2220 n4        1 U16     -0.660800
     22 C43         2.7690   -0.1190   -5.9050 c3        1 U16      0.078500
     23 C45         2.4200   -0.7950   -7.2310 c3        1 U16     -0.115400
     24 C49         1.6810    0.1070   -8.2110 c3        1 U16     -0.077700
     25 C52         2.3820    1.4310   -8.4200 c3        1 U16     -0.108100
     26 C53         1.5450   -0.6270   -9.5350 c3        1 U16     -0.108100
     27 C47         3.5170   -1.0660   -4.9720 c         1 U16      0.660100
     28 O60         3.2990   -1.1490   -3.7460 o         1 U16     -0.679000
     29 O61         4.4640   -1.7810   -5.5750 os        1 U16     -0.346900
     30 C62         5.2790   -2.6660   -4.7710 c3        1 U16      0.122700
     31 H23         3.2760   -1.1060    0.7780 h1        1 U16      0.146700
     32 H11         1.4330   -2.7510    1.5320 hx        1 U16      0.134700
     33 H3          2.4800    0.1510    3.8510 ha        1 U16      0.132000
     34 H6          4.0890   -0.1770    5.6910 ha        1 U16      0.183000
     35 H9          6.2230   -3.1910    5.9570 hc        1 U16      0.083700
     36 H141        6.8960   -1.5220    7.5650 hc        1 U16      0.055867
     37 H142        5.3340   -0.6230    7.4420 hc        1 U16      0.055867
     38 H143        6.4820   -0.6520    6.0310 hc        1 U16      0.055867
     39 H151        4.2710   -4.2110    7.1360 hc        1 U16      0.055867
     40 H152        3.9070   -2.6240    7.9450 hc        1 U16      0.055867
     41 H153        5.4620   -3.4860    8.2970 hc        1 U16      0.055867
     42 H2          4.5530   -4.3370    4.5600 ha        1 U16      0.183000
     43 H4          2.9360   -4.0240    2.7100 ha        1 U16      0.132000
     44 H241        0.0770   -1.8560    3.4080 hn        1 U16      0.474800
     45 H242        0.3710   -0.3000    2.8770 hn        1 U16      0.474800
     46 HO27        2.8560    0.7980    1.8850 ho        1 U16      0.493000
     47 HN32        2.8640   -0.3540   -1.7860 hn        1 U16      0.501300
     48 H33         0.8630   -1.0190   -3.0120 hx        1 U16      0.156700
     49 H371       -0.8890    0.7790   -3.3740 hc        1 U16      0.107033
     50 H372       -0.1370    1.8190   -2.0880 hc        1 U16      0.107033
     51 H373       -0.8760    0.2040   -1.6640 hc        1 U16      0.107033
     52 HN42        0.7770   -0.2780   -5.2750 hn        1 U16      0.490800
     53 H43         3.4530    0.7710   -6.1030 hx        1 U16      0.172700
     54 H451        3.4060   -1.1090   -7.6870 hc        1 U16      0.112700
     55 H452        1.8270   -1.7310   -7.0520 hc        1 U16      0.112700
     56 H49         0.6400    0.3000   -7.8200 hc        1 U16      0.025700
     57 H521        3.4530    1.2770   -8.7020 hc        1 U16      0.062200
     58 H522        2.3380    2.0680   -7.5030 hc        1 U16      0.062200
     59 H523        1.8900    1.9950   -9.2530 hc        1 U16      0.062200
     60 H531        1.0470   -1.6160   -9.3890 hc        1 U16      0.062200
     61 H532        0.9270   -0.0200  -10.2420 hc        1 U16      0.062200
     62 H533        2.5470   -0.7920   -9.9990 hc        1 U16      0.062200
     63 H621        4.6270   -3.4320   -4.2880 h1        1 U16      0.091033
     64 H622        5.9620   -3.1170   -5.5390 h1        1 U16      0.091033
     65 H623        5.8390   -2.0670   -4.0150 h1        1 U16      0.091033
     66 H243       -0.4430   -1.3810    1.8860 hn        1 U16      0.474800
     67 H322        2.0500    0.9430   -1.0870 hn        1 U16      0.501300
     68 H422        1.2310    1.2570   -5.7770 hn        1 U16      0.490800
@<TRIPOS>BOND
     1    1    2 2   
     2    2    3 1   
     3    2   16 1   
     4    3    4 1   
     5    3   15 1   
     6    3   31 1   
     7    4    5 1   
     8    4   14 1   
     9    4   32 1   
    10    5    6 ar  
    11    5   13 ar  
    12    6    7 ar  
    13    6   33 1   
    14    7    8 ar  
    15    7   34 1   
    16    8    9 1   
    17    8   12 ar  
    18    9   10 1   
    19    9   11 1   
    20    9   35 1   
    21   10   36 1   
    22   10   37 1   
    23   10   38 1   
    24   11   39 1   
    25   11   40 1   
    26   11   41 1   
    27   12   13 ar  
    28   12   42 1   
    29   13   43 1   
    30   14   44 1   
    31   14   45 1   
    32   14   66 1   
    33   15   46 1   
    34   16   17 1   
    35   16   47 1   
    36   16   67 1   
    37   17   18 1   
    38   17   19 1   
    39   17   48 1   
    40   18   49 1   
    41   18   50 1   
    42   18   51 1   
    43   19   20 2   
    44   19   21 1   
    45   21   22 1   
    46   21   52 1   
    47   21   68 1   
    48   22   23 1   
    49   22   27 1   
    50   22   53 1   
    51   23   24 1   
    52   23   54 1   
    53   23   55 1   
    54   24   25 1   
    55   24   26 1   
    56   24   56 1   
    57   25   57 1   
    58   25   58 1   
    59   25   59 1   
    60   26   60 1   
    61   26   61 1   
    62   26   62 1   
    63   27   28 2   
    64   27   29 1   
    65   29   30 1   
    66   30   63 1   
    67   30   64 1   
    68   30   65 1   
@<TRIPOS>SUBSTRUCTURE
     1 U16         1 TEMP              0 ****  ****    0 ROOT
