@<TRIPOS>MOLECULE
U17
   62    61     1     0     0
SMALL
bcc


@<TRIPOS>ATOM
      1 O2          0.8530   -2.3820    0.1900 o         1 U17     -0.402100
      2 C10         1.7540   -1.7050   -0.2770 c         1 U17      0.538100
      3 C9          2.8990   -1.0670    0.5300 c3        1 U17      0.071100
      4 C7          2.8860   -1.5630    2.0020 c3        1 U17      0.095500
      5 C3          4.2310   -1.1950    2.6510 c3        1 U17     -0.115400
      6 C6          4.3450   -1.6940    4.0780 c3        1 U17     -0.102400
      7 C2          5.7900   -1.6320    4.5470 c3        1 U17     -0.075400
      8 C5          5.9070   -2.0730    5.9840 c3        1 U17     -0.106100
      9 N1          1.7330   -1.0170    2.7870 nz        1 U17     -0.840600
     10 O1          2.6660    0.3200    0.4410 oh        1 U17     -0.603800
     11 N2          1.7680   -1.4230   -1.7550 ny        1 U17     -0.665800
     12 C11         0.6740   -2.0990   -2.5410 c3        1 U17      0.061500
     13 C13        -0.5940   -1.2300   -2.6530 c3        1 U17      0.099400
     14 O6         -0.2030   -0.0090   -3.2500 oh        1 U17     -0.656800
     15 C12         1.2420   -2.5830   -3.8910 c         1 U17      0.521100
     16 O3          1.9720   -3.5630   -3.9460 o         1 U17     -0.356100
     17 N3          0.8860   -1.8810   -5.1520 ny        1 U17     -0.661800
     18 C14         2.0920   -1.6570   -6.0520 c3        1 U17      0.078500
     19 C15         1.7100   -0.8520   -7.2950 c3        1 U17     -0.114400
     20 C17         0.6030   -1.4800   -8.1300 c3        1 U17     -0.077700
     21 C18         0.4540   -0.6830   -9.4150 c3        1 U17     -0.108100
     22 C19         0.8740   -2.9340   -8.4500 c3        1 U17     -0.108100
     23 C16         3.2100   -0.9780   -5.2690 c         1 U17      0.665100
     24 O4          3.2370   -0.8890   -4.0250 o         1 U17     -0.683000
     25 O5          4.1940   -0.5080   -6.0330 os        1 U17     -0.348900
     26 C20         5.3370    0.1020   -5.3900 c3        1 U17      0.122700
     27 H9          3.8900   -1.3720    0.0800 h1        1 U17      0.137700
     28 H7          2.7770   -2.6940    2.0050 hx        1 U17      0.142700
     29 H31         5.0430   -1.6750    2.0360 hc        1 U17      0.092200
     30 H32         4.3860   -0.0840    2.6170 hc        1 U17      0.092200
     31 H61         3.7250   -1.0630    4.7700 hc        1 U17      0.054700
     32 H62         3.9830   -2.7530    4.1510 hc        1 U17      0.054700
     33 H21         6.4240   -2.2920    3.8980 hc        1 U17      0.058200
     34 H22         6.1740   -0.5830    4.4410 hc        1 U17      0.058200
     35 H51         6.9780   -2.0300    6.3060 hc        1 U17      0.060367
     36 H52         5.3150   -1.4070    6.6580 hc        1 U17      0.060367
     37 H53         5.5460   -3.1220    6.1120 hc        1 U17      0.060367
     38 HN11        0.8480   -1.4180    2.4580 hn        1 U17      0.480800
     39 HN12        1.8640   -1.2610    3.7830 hn        1 U17      0.480800
     40 HO1         3.5160    0.7890    0.5200 ho        1 U17      0.490000
     41 HN2         1.6870   -0.3950   -1.8950 hn        1 U17      0.510800
     42 H11         0.3730   -3.0540   -1.9860 hx        1 U17      0.182700
     43 H131       -1.3520   -1.7660   -3.2890 h1        1 U17      0.105200
     44 H132       -1.0350   -1.0600   -1.6320 h1        1 U17      0.105200
     45 HO6        -0.9500    0.6130   -3.2040 ho        1 U17      0.493000
     46 HN3         0.2190   -2.4590   -5.6980 hn        1 U17      0.498800
     47 H14         2.4700   -2.6850   -6.3680 hx        1 U17      0.171700
     48 H151        1.4240    0.1960   -7.0110 hc        1 U17      0.112200
     49 H152        2.6510   -0.7820   -7.9170 hc        1 U17      0.112200
     50 H17        -0.3720   -1.4030   -7.5680 hc        1 U17      0.023700
     51 H181       -0.4140   -1.0700  -10.0030 hc        1 U17      0.062033
     52 H182        1.3720   -0.7740  -10.0450 hc        1 U17      0.062033
     53 H183        0.2770    0.3970   -9.1910 hc        1 U17      0.062033
     54 H191        1.8850   -3.0610   -8.9090 hc        1 U17      0.062033
     55 H192        0.1170   -3.3090   -9.1860 hc        1 U17      0.062033
     56 H193        0.8100   -3.5740   -7.5360 hc        1 U17      0.062033
     57 H201        5.9750    0.3870   -6.2680 h1        1 U17      0.090033
     58 H202        5.0020    0.9940   -4.8090 h1        1 U17      0.090033
     59 H203        5.8380   -0.6490   -4.7360 h1        1 U17      0.090033
     60 H13         1.6990    0.0070    2.7020 hn        1 U17      0.480800
     61 H221        2.6920   -1.7050   -2.1400 hn        1 U17      0.510800
     62 H321        0.4490   -0.9640   -4.9560 hn        1 U17      0.498800
@<TRIPOS>BOND
     1    1    2 2   
     2    2    3 1   
     3    2   11 1   
     4    3    4 1   
     5    3   10 1   
     6    3   27 1   
     7    4    5 1   
     8    4    9 1   
     9    4   28 1   
    10    5    6 1   
    11    5   29 1   
    12    5   30 1   
    13    6    7 1   
    14    6   31 1   
    15    6   32 1   
    16    7    8 1   
    17    7   33 1   
    18    7   34 1   
    19    8   35 1   
    20    8   36 1   
    21    8   37 1   
    22    9   38 1   
    23    9   39 1   
    24    9   60 1   
    25   10   40 1   
    26   11   12 1   
    27   11   41 1   
    28   11   61 1   
    29   12   13 1   
    30   12   15 1   
    31   12   42 1   
    32   13   14 1   
    33   13   43 1   
    34   13   44 1   
    35   14   45 1   
    36   15   16 2   
    37   15   17 1   
    38   17   18 1   
    39   17   46 1   
    40   17   62 1   
    41   18   19 1   
    42   18   23 1   
    43   18   47 1   
    44   19   20 1   
    45   19   48 1   
    46   19   49 1   
    47   20   21 1   
    48   20   22 1   
    49   20   50 1   
    50   21   51 1   
    51   21   52 1   
    52   21   53 1   
    53   22   54 1   
    54   22   55 1   
    55   22   56 1   
    56   23   24 2   
    57   23   25 1   
    58   25   26 1   
    59   26   57 1   
    60   26   58 1   
    61   26   59 1   
@<TRIPOS>SUBSTRUCTURE
     1 U17         1 TEMP              0 ****  ****    0 ROOT
