@<TRIPOS>MOLECULE
U17
   59    58     1     0     0
SMALL
bcc


@<TRIPOS>ATOM
      1 O2         -1.6360   -2.3990    1.8610 o         1 U17     -0.610100
      2 C10        -1.9640   -1.9090    0.7610 c         1 U17      0.645100
      3 C9         -3.4050   -1.4410    0.5310 c3        1 U17      0.085100
      4 C7         -3.4600    0.1090    0.4780 c3        1 U17      0.139500
      5 C3         -4.8940    0.5100    0.1010 c3        1 U17     -0.117400
      6 C6         -5.0510    2.0080   -0.0350 c3        1 U17     -0.081400
      7 C2         -6.3940    2.3640   -0.6400 c3        1 U17     -0.079400
      8 C5         -6.5740    3.8560   -0.7430 c3        1 U17     -0.093100
      9 N1         -2.9410    0.6880    1.6990 n3        1 U17     -0.904800
     10 O1         -4.2500   -1.9540    1.5370 oh        1 U17     -0.591800
     11 N2         -1.0870   -1.8320   -0.3040 n         1 U17     -0.533900
     12 C11         0.3250   -2.0520   -0.1320 c3        1 U17      0.034700
     13 C13         0.8650   -3.1610   -1.0640 c3        1 U17      0.121400
     14 O6          0.7600   -2.7050   -2.3990 oh        1 U17     -0.596800
     15 C12         1.1430   -0.7610   -0.3870 c         1 U17      0.656100
     16 O3          0.6570    0.2360   -0.9530 o         1 U17     -0.598100
     17 N3          2.4420   -0.7630    0.0880 n         1 U17     -0.558900
     18 C14         3.3690    0.2940   -0.2180 c3        1 U17      0.062700
     19 C15         3.9760    0.9770    1.0200 c3        1 U17     -0.081400
     20 C17         2.9410    1.6590    1.9000 c3        1 U17     -0.063700
     21 C18         3.6360    2.2870    3.0930 c3        1 U17     -0.096600
     22 C19         2.1530    2.7050    1.1390 c3        1 U17     -0.096600
     23 C16         4.5400   -0.2320   -1.0500 c         1 U17      0.606100
     24 O4          4.9830   -1.3810   -1.1150 o         1 U17     -0.549000
     25 O5          5.1390    0.7470   -1.7860 os        1 U17     -0.430900
     26 C20         6.2500    0.3540   -2.5950 c3        1 U17      0.124700
     27 H9         -3.8150   -1.8580   -0.4320 h1        1 U17      0.090700
     28 H7         -2.7750    0.4460   -0.3590 h1        1 U17      0.067700
     29 H31        -5.6060    0.1140    0.8720 hc        1 U17      0.054700
     30 H32        -5.1530    0.0180   -0.8730 hc        1 U17      0.054700
     31 H61        -4.2290    2.4200   -0.6800 hc        1 U17      0.038700
     32 H62        -4.9610    2.4980    0.9700 hc        1 U17      0.038700
     33 H21        -7.2130    1.9270   -0.0100 hc        1 U17      0.041200
     34 H22        -6.4790    1.9030   -1.6590 hc        1 U17      0.041200
     35 H51        -5.7760    4.3070   -1.3810 hc        1 U17      0.033700
     36 H52        -7.5660    4.0960   -1.1970 hc        1 U17      0.033700
     37 H53        -6.5250    4.3310    0.2670 hc        1 U17      0.033700
     38 HN11       -2.9100    1.6860    1.6220 hn        1 U17      0.354800
     39 HN12       -3.5160    0.4370    2.4800 hn        1 U17      0.354800
     40 HO1        -3.7550   -1.9710    2.3710 ho        1 U17      0.431000
     41 HN2        -1.3390   -1.2880   -1.1000 hn        1 U17      0.332500
     42 H11         0.5020   -2.3980    0.9340 h1        1 U17      0.110700
     43 H131        1.9390   -3.3680   -0.8080 h1        1 U17      0.040200
     44 H132        0.2670   -4.1020   -0.9240 h1        1 U17      0.040200
     45 HO6         1.0760   -3.4210   -2.9630 ho        1 U17      0.409000
     46 HN3         2.8290   -1.6020    0.4530 hn        1 U17      0.321500
     47 H14         2.8340    1.0810   -0.8380 h1        1 U17      0.125700
     48 H151        4.5380    0.2220    1.6310 hc        1 U17      0.056200
     49 H152        4.7130    1.7380    0.6480 hc        1 U17      0.056200
     50 H17         2.2200    0.8820    2.2820 hc        1 U17      0.057700
     51 H181        4.3440    3.0840    2.7600 hc        1 U17      0.038367
     52 H182        2.8830    2.7470    3.7770 hc        1 U17      0.038367
     53 H183        4.2090    1.5170    3.6620 hc        1 U17      0.038367
     54 H191        1.5130    3.2900    1.8430 hc        1 U17      0.038367
     55 H192        2.8380    3.4120    0.6140 hc        1 U17      0.038367
     56 H193        1.4860    2.2200    0.3820 hc        1 U17      0.038367
     57 H201        7.0640   -0.0560   -1.9500 h1        1 U17      0.052700
     58 H202        5.9260   -0.4130   -3.3380 h1        1 U17      0.052700
     59 H203        6.5600    1.3040   -3.0950 h1        1 U17      0.052700
@<TRIPOS>BOND
     1    1    2 2   
     2    2    3 1   
     3    2   11 1   
     4    3    4 1   
     5    3   10 1   
     6    3   27 1   
     7    4    5 1   
     8    4    9 1   
     9    4   28 1   
    10    5    6 1   
    11    5   29 1   
    12    5   30 1   
    13    6    7 1   
    14    6   31 1   
    15    6   32 1   
    16    7    8 1   
    17    7   33 1   
    18    7   34 1   
    19    8   35 1   
    20    8   36 1   
    21    8   37 1   
    22    9   38 1   
    23    9   39 1   
    24   10   40 1   
    25   11   12 1   
    26   11   41 1   
    27   12   13 1   
    28   12   15 1   
    29   12   42 1   
    30   13   14 1   
    31   13   43 1   
    32   13   44 1   
    33   14   45 1   
    34   15   16 2   
    35   15   17 1   
    36   17   18 1   
    37   17   46 1   
    38   18   19 1   
    39   18   23 1   
    40   18   47 1   
    41   19   20 1   
    42   19   48 1   
    43   19   49 1   
    44   20   21 1   
    45   20   22 1   
    46   20   50 1   
    47   21   51 1   
    48   21   52 1   
    49   21   53 1   
    50   22   54 1   
    51   22   55 1   
    52   22   56 1   
    53   23   24 2   
    54   23   25 1   
    55   25   26 1   
    56   26   57 1   
    57   26   58 1   
    58   26   59 1   
@<TRIPOS>SUBSTRUCTURE
     1 U17         1 TEMP              0 ****  ****    0 ROOT
