@<TRIPOS>MOLECULE
U17
   62    61     1     0     0
SMALL
bcc


@<TRIPOS>ATOM
      1 O2          0.8520   -2.3840    0.1880 o         1 U17     -0.402100
      2 C10         1.7440   -1.6960   -0.2790 c         1 U17      0.538100
      3 C9          2.8680   -1.0260    0.5310 c3        1 U17      0.071100
      4 C7          2.8510   -1.5040    2.0090 c3        1 U17      0.095500
      5 C3          4.1820   -1.1020    2.6660 c3        1 U17     -0.115400
      6 C6          4.2920   -1.5800    4.1010 c3        1 U17     -0.102400
      7 C2          5.7300   -1.4850    4.5830 c3        1 U17     -0.075400
      8 C5          5.8420   -1.9050    6.0260 c3        1 U17     -0.106100
      9 N1          1.6800   -0.9700    2.7750 n4        1 U17     -0.840600
     10 O1          2.6100    0.3550    0.4220 oh        1 U17     -0.603800
     11 N2          1.7670   -1.4320   -1.7600 n4        1 U17     -0.665800
     12 C11         0.6940   -2.1400   -2.5480 c3        1 U17      0.061500
     13 C13        -0.5890   -1.2980   -2.6830 c3        1 U17      0.099400
     14 O6         -0.2180   -0.0760   -3.2920 oh        1 U17     -0.656800
     15 C12         1.2850   -2.6290   -3.8870 c         1 U17      0.521100
     16 O3          2.0360   -3.5930   -3.9220 o         1 U17     -0.356100
     17 N3          0.9260   -1.9490   -5.1600 n4        1 U17     -0.661800
     18 C14         2.1360   -1.7110   -6.0510 c3        1 U17      0.078500
     19 C15         1.7490   -0.9300   -7.3080 c3        1 U17     -0.114400
     20 C17         0.6640   -1.5930   -8.1450 c3        1 U17     -0.077700
     21 C18         0.5120   -0.8140   -9.4410 c3        1 U17     -0.108100
     22 C19         0.9690   -3.0440   -8.4440 c3        1 U17     -0.108100
     23 C16         3.2320   -0.9990   -5.2660 c         1 U17      0.665100
     24 O4          3.2450   -0.8950   -4.0230 o         1 U17     -0.683000
     25 O5          4.2130   -0.5180   -6.0270 os        1 U17     -0.348900
     26 C20         5.3370    0.1250   -5.3800 c3        1 U17      0.122700
     27 H9          3.8700   -1.3180    0.0940 h1        1 U17      0.137700
     28 H7          2.7640   -2.6360    2.0250 hx        1 U17      0.142700
     29 H31         4.3170    0.0110    2.6190 hc        1 U17      0.092200
     30 H32         5.0090   -1.5740    2.0650 hc        1 U17      0.092200
     31 H61         3.9490   -2.6450    4.1840 hc        1 U17      0.054700
     32 H62         3.6530   -0.9520    4.7780 hc        1 U17      0.054700
     33 H21         6.0960   -0.4310    4.4660 hc        1 U17      0.058200
     34 H22         6.3820   -2.1420    3.9480 hc        1 U17      0.058200
     35 H51         5.2300   -1.2420    6.6850 hc        1 U17      0.060367
     36 H52         5.4990   -2.9590    6.1640 hc        1 U17      0.060367
     37 H53         6.9080   -1.8380    6.3570 hc        1 U17      0.060367
     38 HN11        1.8060   -1.1990    3.7760 hn        1 U17      0.480800
     39 HN12        1.6270    0.0520    2.6770 hn        1 U17      0.480800
     40 HO1         3.4500    0.8420    0.5030 ho        1 U17      0.490000
     41 HN2         2.7000   -1.7000   -2.1330 hn        1 U17      0.510800
     42 H11         0.4070   -3.0940   -1.9840 hx        1 U17      0.182700
     43 H131       -1.0440   -1.1250   -1.6680 h1        1 U17      0.105200
     44 H132       -1.3310   -1.8570   -3.3190 h1        1 U17      0.105200
     45 HO6        -0.9780    0.5310   -3.2600 ho        1 U17      0.493000
     46 HN3         0.2780   -2.5490   -5.7050 hn        1 U17      0.498800
     47 H14         2.5390   -2.7350   -6.3510 hx        1 U17      0.171700
     48 H151        1.4390    0.1150   -7.0400 hc        1 U17      0.112200
     49 H152        2.6950   -0.8480   -7.9220 hc        1 U17      0.112200
     50 H17        -0.3170   -1.5290   -7.5930 hc        1 U17      0.023700
     51 H181       -0.3420   -1.2280  -10.0330 hc        1 U17      0.062033
     52 H182        0.3100    0.2640   -9.2330 hc        1 U17      0.062033
     53 H183        1.4380   -0.8940  -10.0610 hc        1 U17      0.062033
     54 H191        0.2280   -3.4450   -9.1820 hc        1 U17      0.062033
     55 H192        1.9870   -3.1560   -8.8920 hc        1 U17      0.062033
     56 H193        0.9090   -3.6740   -7.5230 hc        1 U17      0.062033
     57 H201        5.9770    0.4140   -6.2560 h1        1 U17      0.090033
     58 H202        4.9770    1.0150   -4.8130 h1        1 U17      0.090033
     59 H203        5.8480   -0.6080   -4.7140 h1        1 U17      0.090033
     60 H13         0.8060   -1.3920    2.4440 hn        1 U17      0.480800
     61 H221        1.6670   -0.4080   -1.9140 hn        1 U17      0.510800
     62 H321        0.4690   -1.0400   -4.9790 hn        1 U17      0.498800
@<TRIPOS>BOND
     1    1    2 2   
     2    2    3 1   
     3    2   11 1   
     4    3    4 1   
     5    3   10 1   
     6    3   27 1   
     7    4    5 1   
     8    4    9 1   
     9    4   28 1   
    10    5    6 1   
    11    5   29 1   
    12    5   30 1   
    13    6    7 1   
    14    6   31 1   
    15    6   32 1   
    16    7    8 1   
    17    7   33 1   
    18    7   34 1   
    19    8   35 1   
    20    8   36 1   
    21    8   37 1   
    22    9   38 1   
    23    9   39 1   
    24    9   60 1   
    25   10   40 1   
    26   11   12 1   
    27   11   41 1   
    28   11   61 1   
    29   12   13 1   
    30   12   15 1   
    31   12   42 1   
    32   13   14 1   
    33   13   43 1   
    34   13   44 1   
    35   14   45 1   
    36   15   16 2   
    37   15   17 1   
    38   17   18 1   
    39   17   46 1   
    40   17   62 1   
    41   18   19 1   
    42   18   23 1   
    43   18   47 1   
    44   19   20 1   
    45   19   48 1   
    46   19   49 1   
    47   20   21 1   
    48   20   22 1   
    49   20   50 1   
    50   21   51 1   
    51   21   52 1   
    52   21   53 1   
    53   22   54 1   
    54   22   55 1   
    55   22   56 1   
    56   23   24 2   
    57   23   25 1   
    58   25   26 1   
    59   26   57 1   
    60   26   58 1   
    61   26   59 1   
@<TRIPOS>SUBSTRUCTURE
     1 U17         1 TEMP              0 ****  ****    0 ROOT
