@<TRIPOS>MOLECULE
U17
   62    61     1     0     0
SMALL
bcc


@<TRIPOS>ATOM
      1 O2          0.7990   -2.3090    0.1830 o         1 U17     -0.402100
      2 C10         1.7240   -1.6630   -0.2810 c         1 U17      0.538100
      3 C9          2.8770   -1.0480    0.5320 c3        1 U17      0.071100
      4 C7          2.8340   -1.5260    2.0090 c3        1 U17      0.095500
      5 C3          4.1820   -1.1880    2.6690 c3        1 U17     -0.115400
      6 C6          4.2660   -1.6730    4.1030 c3        1 U17     -0.102400
      7 C2          5.7070   -1.6470    4.5880 c3        1 U17     -0.075400
      8 C5          5.7960   -2.0730    6.0310 c3        1 U17     -0.106100
      9 N1          1.6880   -0.9380    2.7740 n4        1 U17     -0.840600
     10 O1          2.6840    0.3440    0.4240 oh        1 U17     -0.603800
     11 N2          1.7620   -1.4000   -1.7620 n4        1 U17     -0.665800
     12 C11         0.6580   -2.0540   -2.5520 c3        1 U17      0.061500
     13 C13        -0.5830   -1.1500   -2.6900 c3        1 U17      0.099400
     14 O6         -0.1510    0.0520   -3.2960 oh        1 U17     -0.656800
     15 C12         1.2280   -2.5700   -3.8900 c         1 U17      0.521100
     16 O3          1.9300   -3.5700   -3.9250 o         1 U17     -0.356100
     17 N3          0.9050   -1.8730   -5.1630 n4        1 U17     -0.661800
     18 C14         2.1270   -1.6940   -6.0520 c3        1 U17      0.078500
     19 C15         1.7820   -0.8930   -7.3080 c3        1 U17     -0.114400
     20 C17         0.6670   -1.5010   -8.1490 c3        1 U17     -0.077700
     21 C18         0.5560   -0.7150   -9.4450 c3        1 U17     -0.108100
     22 C19         0.9010   -2.9650   -8.4490 c3        1 U17     -0.108100
     23 C16         3.2560   -1.0370   -5.2640 c         1 U17      0.665100
     24 O4          3.2710   -0.9340   -4.0210 o         1 U17     -0.683000
     25 O5          4.2610   -0.6050   -6.0220 os        1 U17     -0.348900
     26 C20         5.4130   -0.0190   -5.3730 c3        1 U17      0.122700
     27 H9          3.8650   -1.3870    0.0970 h1        1 U17      0.137700
     28 H7          2.6930   -2.6530    2.0240 hx        1 U17      0.142700
     29 H31         4.9860   -1.6990    2.0690 hc        1 U17      0.092200
     30 H32         4.3690   -0.0830    2.6240 hc        1 U17      0.092200
     31 H61         3.6560   -1.0160    4.7800 hc        1 U17      0.054700
     32 H62         3.8730   -2.7210    4.1840 hc        1 U17      0.054700
     33 H21         6.1220   -0.6110    4.4730 hc        1 U17      0.058200
     34 H22         6.3280   -2.3330    3.9530 hc        1 U17      0.058200
     35 H51         5.2150   -1.3830    6.6900 hc        1 U17      0.060367
     36 H52         5.4030   -3.1100    6.1670 hc        1 U17      0.060367
     37 H53         6.8640   -2.0570    6.3640 hc        1 U17      0.060367
     38 HN11        0.7960   -1.3180    2.4410 hn        1 U17      0.480800
     39 HN12        1.6840    0.0860    2.6770 hn        1 U17      0.480800
     40 HO1         3.5470    0.7900    0.5070 ho        1 U17      0.490000
     41 HN2         1.7120   -0.3710   -1.9150 hn        1 U17      0.510800
     42 H11         0.3240   -2.9930   -1.9900 hx        1 U17      0.182700
     43 H131       -1.3490   -1.6730   -3.3280 h1        1 U17      0.105200
     44 H132       -1.0310   -0.9570   -1.6760 h1        1 U17      0.105200
     45 HO6        -0.8810    0.6950   -3.2660 ho        1 U17      0.493000
     46 HN3         0.2290   -2.4390   -5.7100 hn        1 U17      0.498800
     47 H14         2.4800   -2.7360   -6.3520 hx        1 U17      0.171700
     48 H151        2.7320   -0.8570   -7.9210 hc        1 U17      0.112200
     49 H152        1.5230    0.1660   -7.0400 hc        1 U17      0.112200
     50 H17        -0.3110   -1.3900   -7.5990 hc        1 U17      0.023700
     51 H181        0.4070    0.3720   -9.2360 hc        1 U17      0.062033
     52 H182        1.4780   -0.8390  -10.0630 hc        1 U17      0.062033
     53 H183       -0.3160   -1.0850  -10.0390 hc        1 U17      0.062033
     54 H191        0.8080   -3.5920   -7.5280 hc        1 U17      0.062033
     55 H192        1.9130   -3.1260   -8.8950 hc        1 U17      0.062033
     56 H193        0.1430   -3.3280   -9.1890 hc        1 U17      0.062033
     57 H201        6.0690    0.2370   -6.2470 h1        1 U17      0.090033
     58 H202        5.0970    0.8880   -4.8070 h1        1 U17      0.090033
     59 H203        5.8860   -0.7760   -4.7050 h1        1 U17      0.090033
     60 H13         1.8020   -1.1740    3.7750 hn        1 U17      0.480800
     61 H221        2.6820   -1.7110   -2.1340 hn        1 U17      0.510800
     62 H321        0.4930   -0.9420   -4.9830 hn        1 U17      0.498800
@<TRIPOS>BOND
     1    1    2 2   
     2    2    3 1   
     3    2   11 1   
     4    3    4 1   
     5    3   10 1   
     6    3   27 1   
     7    4    5 1   
     8    4    9 1   
     9    4   28 1   
    10    5    6 1   
    11    5   29 1   
    12    5   30 1   
    13    6    7 1   
    14    6   31 1   
    15    6   32 1   
    16    7    8 1   
    17    7   33 1   
    18    7   34 1   
    19    8   35 1   
    20    8   36 1   
    21    8   37 1   
    22    9   38 1   
    23    9   39 1   
    24    9   60 1   
    25   10   40 1   
    26   11   12 1   
    27   11   41 1   
    28   11   61 1   
    29   12   13 1   
    30   12   15 1   
    31   12   42 1   
    32   13   14 1   
    33   13   43 1   
    34   13   44 1   
    35   14   45 1   
    36   15   16 2   
    37   15   17 1   
    38   17   18 1   
    39   17   46 1   
    40   17   62 1   
    41   18   19 1   
    42   18   23 1   
    43   18   47 1   
    44   19   20 1   
    45   19   48 1   
    46   19   49 1   
    47   20   21 1   
    48   20   22 1   
    49   20   50 1   
    50   21   51 1   
    51   21   52 1   
    52   21   53 1   
    53   22   54 1   
    54   22   55 1   
    55   22   56 1   
    56   23   24 2   
    57   23   25 1   
    58   25   26 1   
    59   26   57 1   
    60   26   58 1   
    61   26   59 1   
@<TRIPOS>SUBSTRUCTURE
     1 U17         1 TEMP              0 ****  ****    0 ROOT
