@<TRIPOS>MOLECULE
U18
   59    63     1     0     0
SMALL
bcc


@<TRIPOS>ATOM
      1 N1          0.9360    0.5010    8.8890 nc        1 U18     -0.632100
      2 C2          2.1380   -0.0080    8.6720 cd        1 U18      0.483900
      3 CA2         3.1670   -0.0140    9.7780 c3        1 U18     -0.140400
      4 N3          2.5300   -0.5580    7.4520 n         1 U18     -0.496400
      5 C4          1.6500   -0.6040    6.3510 c         1 U18      0.707100
      6 OA4         2.0930   -1.1470    5.3240 o         1 U18     -0.622500
      7 C4A         0.3120   -0.0150    6.5570 ca        1 U18     -0.166600
      8 C4B        -0.6610    0.0380    5.5090 ca        1 U18      0.017000
      9 C5         -0.4190   -0.4270    4.1890 ca        1 U18     -0.125000
     10 C6         -1.3940   -0.3580    3.2150 ca        1 U18     -0.070300
     11 C7         -2.6670    0.1850    3.5180 ca        1 U18     -0.104000
     12 C8         -2.9260    0.6530    4.7820 ca        1 U18     -0.130000
     13 C8A        -1.9370    0.5940    5.7970 ca        1 U18     -0.061000
     14 C9         -2.2170    1.0940    7.0990 ca        1 U18     -0.080000
     15 C10        -1.2800    1.0590    8.0910 ca        1 U18     -0.135000
     16 C1A         0.0170    0.5010    7.8350 ca        1 U18      0.190400
     17 C11        -1.1240   -0.8970    1.8370 c3        1 U18      0.213100
     18 N12        -1.5560   -0.0050    0.7790 nh        1 U18     -0.714600
     19 C13        -1.1090   -0.3140   -0.5310 ca        1 U18      0.109600
     20 C14        -0.9960    0.7430   -1.4770 ca        1 U18     -0.178000
     21 C15        -0.6530    0.4340   -2.7760 ca        1 U18     -0.035300
     22 C16        -0.3990   -0.9050   -3.1690 ca        1 U18     -0.169600
     23 C17        -0.5020   -1.9350   -2.2590 ca        1 U18     -0.051000
     24 C18        -0.8530   -1.6380   -0.9350 ca        1 U18     -0.206000
     25 C19        -0.4670    1.3180   -3.9820 c3        1 U18      0.079300
     26 C          -0.0480   -0.9070   -4.6390 c         1 U18      0.704100
     27 O           0.2160   -1.9360   -5.2780 o         1 U18     -0.617500
     28 N           0.0180    0.4330   -5.0550 n         1 U18     -0.396800
     29 CA         -0.2300    0.9110   -6.4130 c3        1 U18     -0.019300
     30 CT         -1.7570    0.9290   -6.7610 c         1 U18      0.893600
     31 O1         -2.2220    0.1590   -7.6380 o         1 U18     -0.845300
     32 O2         -2.4660    1.7660   -6.1180 o         1 U18     -0.845300
     33 CB          0.6210    0.2290   -7.4850 c3        1 U18     -0.054400
     34 CG          2.0980    0.4990   -7.3060 c3        1 U18     -0.178400
     35 CD          2.9270    0.3450   -8.5860 c         1 U18      0.904600
     36 OE1         2.5590    0.9260   -9.6510 o         1 U18     -0.874800
     37 OE2         4.0060   -0.3220   -8.5220 o         1 U18     -0.874800
     38 HA21        2.7510    0.4380   10.7120 hc        1 U18      0.064367
     39 HA22        3.4790   -1.0650    9.9980 hc        1 U18      0.064367
     40 HA23        4.0610    0.5770    9.4620 hc        1 U18      0.064367
     41 HN3         3.4460   -0.9320    7.3440 hn        1 U18      0.333500
     42 H5          0.5680   -0.8490    3.9320 ha        1 U18      0.177000
     43 H7         -3.4360    0.2270    2.7300 ha        1 U18      0.160000
     44 H8         -3.9080    1.0850    5.0290 ha        1 U18      0.130000
     45 H9         -3.2150    1.5190    7.2910 ha        1 U18      0.133000
     46 H10        -1.5010    1.4550    9.0940 ha        1 U18      0.146000
     47 H111       -0.0290   -1.1620    1.7470 h1        1 U18      0.051700
     48 H112       -1.7090   -1.8580    1.7250 h1        1 U18      0.051700
     49 HN2        -1.3780    0.9550    1.0080 hn        1 U18      0.376800
     50 H14        -1.1940    1.7840   -1.1850 ha        1 U18      0.126000
     51 H17        -0.3100   -2.9740   -2.5660 ha        1 U18      0.142000
     52 H18        -0.9330   -2.4660   -0.2170 ha        1 U18      0.113000
     53 H191       -1.4410    1.8120   -4.2860 h1        1 U18      0.094200
     54 H192        0.3080    2.1070   -3.7890 h1        1 U18      0.094200
     55 HA          0.0800    2.0030   -6.3830 h1        1 U18      0.037700
     56 HB1         0.4210   -0.8740   -7.4860 hc        1 U18      0.067700
     57 HB2         0.2800    0.6330   -8.4760 hc        1 U18      0.067700
     58 HG1         2.2500    1.5530   -6.9520 hc        1 U18      0.013700
     59 HG2         2.5150   -0.1830   -6.5220 hc        1 U18      0.013700
@<TRIPOS>BOND
     1    1    2 2   
     2    1   16 1   
     3    2    3 1   
     4    2    4 1   
     5    3   38 1   
     6    3   39 1   
     7    3   40 1   
     8    4    5 1   
     9    4   41 1   
    10    5    6 2   
    11    5    7 1   
    12    7    8 ar  
    13    7   16 ar  
    14    8    9 ar  
    15    8   13 ar  
    16    9   10 ar  
    17    9   42 1   
    18   10   11 ar  
    19   10   17 1   
    20   11   12 ar  
    21   11   43 1   
    22   12   13 ar  
    23   12   44 1   
    24   13   14 ar  
    25   14   15 ar  
    26   14   45 1   
    27   15   16 ar  
    28   15   46 1   
    29   17   18 1   
    30   17   47 1   
    31   17   48 1   
    32   18   19 1   
    33   18   49 1   
    34   19   20 ar  
    35   19   24 ar  
    36   20   21 ar  
    37   20   50 1   
    38   21   22 ar  
    39   21   25 1   
    40   22   23 ar  
    41   22   26 1   
    42   23   24 ar  
    43   23   51 1   
    44   24   52 1   
    45   25   28 1   
    46   25   53 1   
    47   25   54 1   
    48   26   27 2   
    49   26   28 1   
    50   28   29 1   
    51   29   30 1   
    52   29   33 1   
    53   29   55 1   
    54   30   31 1   
    55   30   32 1   
    56   33   34 1   
    57   33   56 1   
    58   33   57 1   
    59   34   35 1   
    60   34   58 1   
    61   34   59 1   
    62   35   36 1   
    63   35   37 1   
@<TRIPOS>SUBSTRUCTURE
     1 U18         1 TEMP              0 ****  ****    0 ROOT
