@<TRIPOS>MOLECULE
U18
   59    63     1     0     0
SMALL
bcc


@<TRIPOS>ATOM
      1 N1         -0.4980    0.4140   -0.3670 nc        1 U18     -0.632100
      2 C2          0.8000    0.6320   -0.4890 cd        1 U18      0.483900
      3 CA2         1.4070    0.8370   -1.8570 c3        1 U18     -0.140400
      4 N3          1.6750    0.6880    0.5960 ns        1 U18     -0.496400
      5 C4          1.2160    0.5100    1.9170 c         1 U18      0.707100
      6 OA4         2.0760    0.6140    2.8100 o         1 U18     -0.622500
      7 C4A        -0.2250    0.2350    2.0790 ca        1 U18     -0.166600
      8 C4B        -0.8110   -0.0040    3.3630 ca        1 U18      0.017000
      9 C5         -0.0650   -0.0370    4.5720 ca        1 U18     -0.125000
     10 C6         -0.6800   -0.2660    5.7860 ca        1 U18     -0.070300
     11 C7         -2.0790   -0.4760    5.8480 ca        1 U18     -0.104000
     12 C8         -2.8240   -0.4620    4.6950 ca        1 U18     -0.130000
     13 C8A        -2.2120   -0.2300    3.4370 ca        1 U18     -0.061000
     14 C9         -2.9950   -0.2300    2.2490 ca        1 U18     -0.080000
     15 C10        -2.4300   -0.0200    1.0250 ca        1 U18     -0.135000
     16 C1A        -1.0200    0.2150    0.9150 ca        1 U18      0.190400
     17 C11         0.1270   -0.2540    7.0540 c3        1 U18      0.213100
     18 N12        -0.1750   -1.3630    7.9360 nu        1 U18     -0.714600
     19 C13         0.7160   -1.5730    9.0210 ca        1 U18      0.109600
     20 C14         0.8360   -2.8840    9.5580 ca        1 U18     -0.178000
     21 C15         1.6280   -3.0720   10.6700 ca        1 U18     -0.035300
     22 C16         2.3270   -1.9910   11.2650 ca        1 U18     -0.168600
     23 C17         2.2200   -0.7180   10.7490 ca        1 U18     -0.051000
     24 C18         1.4160   -0.5080    9.6200 ca        1 U18     -0.206000
     25 C19         1.9390   -4.3190   11.4570 c3        1 U18      0.079300
     26 C           3.1000   -2.5240   12.4500 c         1 U18      0.704100
     27 O           3.8040   -1.8130   13.1820 o         1 U18     -0.617500
     28 N           2.9420   -3.9190   12.4600 n         1 U18     -0.396800
     29 CA          3.0080   -4.7700   13.6450 c3        1 U18     -0.019300
     30 CT          1.7120   -4.6650   14.5180 c         1 U18      0.893600
     31 O1          1.7530   -4.1620   15.6680 o         1 U18     -0.845300
     32 O2          0.6470   -5.1280   13.9940 o         1 U18     -0.845300
     33 CB          4.2920   -4.6150   14.4610 c3        1 U18     -0.054400
     34 CG          5.5210   -5.0350   13.6850 c3        1 U18     -0.178400
     35 CD          6.7130   -5.4370   14.5620 c         1 U18      0.904600
     36 OE1         7.8540   -4.9600   14.2720 o         1 U18     -0.874800
     37 OE2         6.5520   -6.2700   15.5030 o         1 U18     -0.874800
     38 HA21        0.6240    0.7840   -2.6530 hc        1 U18      0.064367
     39 HA22        2.1700    0.0430   -2.0520 hc        1 U18      0.064367
     40 HA23        1.8990    1.8400   -1.9060 hc        1 U18      0.064367
     41 HN3         2.6440    0.8600    0.4480 hn        1 U18      0.333500
     42 H5          1.0270    0.1200    4.5430 ha        1 U18      0.177000
     43 H7         -2.5540   -0.6520    6.8270 ha        1 U18      0.160000
     44 H8         -3.9110   -0.6310    4.7290 ha        1 U18      0.130000
     45 H9         -4.0790   -0.4090    2.3390 ha        1 U18      0.133000
     46 H10        -3.0420   -0.0290    0.1090 ha        1 U18      0.146000
     47 H111        1.2280   -0.2050    6.7980 h1        1 U18      0.051700
     48 H112       -0.1260    0.6970    7.6120 h1        1 U18      0.051700
     49 HN2        -0.3320   -2.2110    7.4250 hn        1 U18      0.376800
     50 H14         0.2960   -3.7290    9.1090 ha        1 U18      0.126000
     51 H17         2.7580    0.1210   11.2140 ha        1 U18      0.142000
     52 H18         1.3360    0.5110    9.2160 ha        1 U18      0.113000
     53 H191        2.3870   -5.1110   10.7990 h1        1 U18      0.094200
     54 H192        1.0130   -4.7290   11.9660 h1        1 U18      0.094200
     55 HA          3.0010   -5.8260   13.2290 h1        1 U18      0.037700
     56 HB1         4.3950   -3.5560   14.8130 hc        1 U18      0.067700
     57 HB2         4.1790   -5.2630   15.3710 hc        1 U18      0.067700
     58 HG1         5.8380   -4.2070   13.0020 hc        1 U18      0.013700
     59 HG2         5.2790   -5.9260   13.0460 hc        1 U18      0.013700
@<TRIPOS>BOND
     1    1    2 2   
     2    1   16 1   
     3    2    3 1   
     4    2    4 1   
     5    3   38 1   
     6    3   39 1   
     7    3   40 1   
     8    4    5 1   
     9    4   41 1   
    10    5    6 2   
    11    5    7 1   
    12    7    8 ar  
    13    7   16 ar  
    14    8    9 ar  
    15    8   13 ar  
    16    9   10 ar  
    17    9   42 1   
    18   10   11 ar  
    19   10   17 1   
    20   11   12 ar  
    21   11   43 1   
    22   12   13 ar  
    23   12   44 1   
    24   13   14 ar  
    25   14   15 ar  
    26   14   45 1   
    27   15   16 ar  
    28   15   46 1   
    29   17   18 1   
    30   17   47 1   
    31   17   48 1   
    32   18   19 1   
    33   18   49 1   
    34   19   20 ar  
    35   19   24 ar  
    36   20   21 ar  
    37   20   50 1   
    38   21   22 ar  
    39   21   25 1   
    40   22   23 ar  
    41   22   26 1   
    42   23   24 ar  
    43   23   51 1   
    44   24   52 1   
    45   25   28 1   
    46   25   53 1   
    47   25   54 1   
    48   26   27 2   
    49   26   28 1   
    50   28   29 1   
    51   29   30 1   
    52   29   33 1   
    53   29   55 1   
    54   30   31 1   
    55   30   32 1   
    56   33   34 1   
    57   33   56 1   
    58   33   57 1   
    59   34   35 1   
    60   34   58 1   
    61   34   59 1   
    62   35   36 1   
    63   35   37 1   
@<TRIPOS>SUBSTRUCTURE
     1 U18         1 TEMP              0 ****  ****    0 ROOT
