@<TRIPOS>MOLECULE
U18
   60    64     1     0     0
SMALL
bcc


@<TRIPOS>ATOM
      1 N1         -2.1350    1.3600    1.2090 nc        1 U18     -0.625100
      2 C2         -1.3130    1.4430    0.1780 cd        1 U18      0.480900
      3 CA2        -1.8310    1.8890   -1.1690 c3        1 U18     -0.140400
      4 N3          0.0460    1.1360    0.2540 n         1 U18     -0.496400
      5 C4          0.6350    0.7100    1.4610 c         1 U18      0.710100
      6 OA4         1.8560    0.4680    1.4130 o         1 U18     -0.640500
      7 C4A        -0.2620    0.6050    2.6270 ca        1 U18     -0.171600
      8 C4B         0.2070    0.1800    3.9110 ca        1 U18      0.014000
      9 C5          1.5560   -0.1810    4.1720 ca        1 U18     -0.127000
     10 C6          1.9600   -0.5800    5.4310 ca        1 U18     -0.111300
     11 C7          1.0260   -0.6400    6.4920 ca        1 U18     -0.114000
     12 C8         -0.2860   -0.3030    6.2700 ca        1 U18     -0.110000
     13 C8A        -0.7200    0.1110    4.9850 ca        1 U18     -0.059000
     14 C9         -2.0850    0.4560    4.7700 ca        1 U18     -0.072000
     15 C10        -2.5300    0.8580    3.5440 ca        1 U18     -0.136000
     16 C1A        -1.6190    0.9410    2.4390 ca        1 U18      0.193400
     17 C11         3.4040   -0.9220    5.6840 c3        1 U18      0.214100
     18 N12         3.6730   -2.2010    6.3060 nh        1 U18     -0.705600
     19 C13         3.5090   -2.2880    7.7140 ca        1 U18      0.113600
     20 C14         2.7140   -3.3260    8.2710 ca        1 U18     -0.180000
     21 C15         2.6110   -3.4170    9.6430 ca        1 U18     -0.032300
     22 C16         3.2880   -2.5060   10.4910 ca        1 U18     -0.174600
     23 C17         4.0760   -1.5040    9.9620 ca        1 U18     -0.047000
     24 C18         4.1880   -1.3970    8.5710 ca        1 U18     -0.186000
     25 C19         1.8090   -4.3600   10.5030 c3        1 U18      0.087300
     26 C           2.9330   -2.8360   11.9110 c         1 U18      0.707100
     27 O           3.3640   -2.2320   12.9060 o         1 U18     -0.632500
     28 N           2.1420   -4.0110   11.8980 n         1 U18     -0.406800
     29 CA          1.0880   -4.2750   12.8670 c3        1 U18     -0.042300
     30 CT         -0.2030   -3.3830   12.7260 c         1 U18      0.905600
     31 O1         -0.5150   -2.9740   11.5730 o         1 U18     -0.826800
     32 O2         -0.8960   -3.1980   13.7610 o         1 U18     -0.826800
     33 CB          1.5870   -4.2820   14.3130 c3        1 U18     -0.086400
     34 CG          2.1080   -5.6350   14.7540 c3        1 U18     -0.116400
     35 CD          3.3960   -6.0100   14.0950 c         1 U18      0.651100
     36 OE1         3.6200   -6.8730   13.2390 o         1 U18     -0.582000
     37 OE2         4.4890   -5.3330   14.5570 oh        1 U18     -0.607100
     38 HA21       -1.6620    1.0820   -1.9240 hc        1 U18      0.064700
     39 HA22       -1.2930    2.8140   -1.4920 hc        1 U18      0.064700
     40 HA23       -2.9250    2.1110   -1.1210 hc        1 U18      0.064700
     41 HN3         0.6210    1.2170   -0.5540 hn        1 U18      0.331500
     42 H5          2.2960   -0.1420    3.3560 ha        1 U18      0.168000
     43 H7          1.3610   -0.9610    7.4940 ha        1 U18      0.166000
     44 H8         -1.0210   -0.3530    7.0910 ha        1 U18      0.151000
     45 H9         -2.7800    0.3900    5.6230 ha        1 U18      0.144000
     46 H10        -3.5870    1.1230    3.3840 ha        1 U18      0.150000
     47 H111        3.9590   -0.9310    4.7000 h1        1 U18      0.063700
     48 H112        3.8450   -0.1010    6.3190 h1        1 U18      0.063700
     49 HN2         5.2610   -5.5630   14.0180 ho        1 U18      0.429000
     50 H14         2.1810   -4.0370    7.6240 ha        1 U18      0.132000
     51 H17         4.6020   -0.7980   10.6200 ha        1 U18      0.144000
     52 H18         4.8230   -0.6030    8.1520 ha        1 U18      0.127000
     53 H191        2.1060   -5.4280   10.3270 h1        1 U18      0.091200
     54 H192        0.7040   -4.2240   10.3070 h1        1 U18      0.091200
     55 HA          0.7230   -5.3190   12.6180 h1        1 U18      0.042700
     56 HB1         2.3730   -3.4990   14.4780 hc        1 U18      0.092700
     57 HB2         0.7060   -4.0210   14.9670 hc        1 U18      0.092700
     58 HG1         2.2790   -5.6180   15.8630 hc        1 U18      0.061200
     59 HG2         1.3580   -6.4360   14.5200 hc        1 U18      0.061200
     60 H122        3.1730   -2.9360    5.8410 hn        1 U18      0.378800
@<TRIPOS>BOND
     1    1    2 2   
     2    1   16 1   
     3    2    3 1   
     4    2    4 1   
     5    3   38 1   
     6    3   39 1   
     7    3   40 1   
     8    4    5 1   
     9    4   41 1   
    10    5    6 2   
    11    5    7 1   
    12    7    8 ar  
    13    7   16 ar  
    14    8    9 ar  
    15    8   13 ar  
    16    9   10 ar  
    17    9   42 1   
    18   10   11 ar  
    19   10   17 1   
    20   11   12 ar  
    21   11   43 1   
    22   12   13 ar  
    23   12   44 1   
    24   13   14 ar  
    25   14   15 ar  
    26   14   45 1   
    27   15   16 ar  
    28   15   46 1   
    29   17   18 1   
    30   17   47 1   
    31   17   48 1   
    32   18   19 1   
    33   18   60 1   
    34   19   20 ar  
    35   19   24 ar  
    36   20   21 ar  
    37   20   50 1   
    38   21   22 ar  
    39   21   25 1   
    40   22   23 ar  
    41   22   26 1   
    42   23   24 ar  
    43   23   51 1   
    44   24   52 1   
    45   25   28 1   
    46   25   53 1   
    47   25   54 1   
    48   26   27 2   
    49   26   28 1   
    50   28   29 1   
    51   29   30 1   
    52   29   33 1   
    53   29   55 1   
    54   30   31 1   
    55   30   32 1   
    56   33   34 1   
    57   33   56 1   
    58   33   57 1   
    59   34   35 1   
    60   34   58 1   
    61   34   59 1   
    62   35   36 2   
    63   35   37 1   
    64   37   49 1   
@<TRIPOS>SUBSTRUCTURE
     1 U18         1 TEMP              0 ****  ****    0 ROOT
