@<TRIPOS>MOLECULE
U19
   27    28     1     0     0
SMALL
bcc


@<TRIPOS>ATOM
      1 F3         -0.0850    0.0730   -0.2980 f         1 U19     -0.242633
      2 C7          1.2920   -0.0060   -0.2550 c3        1 U19      0.699200
      3 F1          1.6010    0.2450    1.0530 f         1 U19     -0.242633
      4 F2          1.6550    1.1500   -0.9160 f         1 U19     -0.242633
      5 C3          1.8810   -1.2890   -0.8350 ca        1 U19     -0.115300
      6 C6          2.6690   -2.1040   -0.0350 ca        1 U19     -0.081000
      7 C2          3.2160   -3.2860   -0.5560 ca        1 U19     -0.069000
      8 C1          1.6240   -1.6520   -2.1890 ca        1 U19      0.110400
      9 C4          2.1790   -2.8400   -2.6970 ca        1 U19     -0.065000
     10 C5          2.9710   -3.6480   -1.8760 ca        1 U19     -0.103000
     11 N1          0.8090   -0.7510   -2.9140 ne        1 U19     -0.246400
     12 N2          0.4810   -0.9000   -4.0980 nf        1 U19     -0.123600
     13 C8         -0.3380    0.1350   -4.6010 cd        1 U19      0.105000
     14 C10        -0.8510    1.2910   -4.0310 cc        1 U19     -0.024400
     15 N5         -0.6760    1.7780   -2.6870 nz        1 U19     -0.668400
     16 N6         -1.6620    2.0270   -5.0340 nc        1 U19     -0.086600
     17 N3         -1.6680    1.4260   -6.0980 nd        1 U19     -0.205300
     18 C9         -0.8600    0.1580   -6.0340 cd        1 U19      0.567600
     19 N4         -0.6230   -0.7300   -6.9150 n2        1 U19     -0.576100
     20 H6          2.8690   -1.8250    1.0140 ha        1 U19      0.178000
     21 H2          3.8410   -3.9250    0.0910 ha        1 U19      0.173000
     22 H4          1.9970   -3.1440   -3.7430 ha        1 U19      0.177000
     23 H5          3.4010   -4.5780   -2.2840 ha        1 U19      0.172000
     24 HN51       -1.1790    2.6670   -2.5560 hn        1 U19      0.482467
     25 HN52        0.3310    1.9220   -2.4960 hn        1 U19      0.482467
     26 HN42       -1.0180   -0.6170   -7.8310 hn        1 U19      0.462400
     27 H53        -1.0310    1.0790   -2.0120 hn        1 U19      0.482467
@<TRIPOS>BOND
     1    1    2 1   
     2    2    3 1   
     3    2    4 1   
     4    2    5 1   
     5    5    6 ar  
     6    5    8 ar  
     7    6    7 ar  
     8    6   20 1   
     9    7   10 ar  
    10    7   21 1   
    11    8    9 ar  
    12    8   11 1   
    13    9   10 ar  
    14    9   22 1   
    15   10   23 1   
    16   11   12 2   
    17   12   13 1   
    18   13   14 2   
    19   13   18 1   
    20   14   15 1   
    21   14   16 1   
    22   15   24 1   
    23   15   25 1   
    24   15   27 1   
    25   16   17 2   
    26   17   18 1   
    27   18   19 2   
    28   19   26 1   
@<TRIPOS>SUBSTRUCTURE
     1 U19         1 TEMP              0 ****  ****    0 ROOT
