@<TRIPOS>MOLECULE
U19
   27    28     1     0     0
SMALL
bcc


@<TRIPOS>ATOM
      1 F3         -0.0770    0.0850   -0.2980 f         1 U19     -0.242633
      2 C7          1.3010    0.0010   -0.2580 c3        1 U19      0.699200
      3 F1          1.6140    0.2570    1.0470 f         1 U19     -0.242633
      4 F2          1.6650    1.1540   -0.9250 f         1 U19     -0.242633
      5 C3          1.8840   -1.2860   -0.8360 ca        1 U19     -0.115300
      6 C6          2.6720   -2.1000   -0.0350 ca        1 U19     -0.081000
      7 C2          3.2140   -3.2850   -0.5530 ca        1 U19     -0.069000
      8 C1          1.6220   -1.6520   -2.1880 ca        1 U19      0.110400
      9 C4          2.1730   -2.8440   -2.6930 ca        1 U19     -0.065000
     10 C5          2.9640   -3.6510   -1.8710 ca        1 U19     -0.103000
     11 N1          0.8080   -0.7520   -2.9140 ne        1 U19     -0.246400
     12 N2          0.4760   -0.9040   -4.0960 nf        1 U19     -0.123600
     13 C8         -0.3410    0.1310   -4.6000 cd        1 U19      0.105000
     14 C10        -0.8500    1.2910   -4.0340 cc        1 U19     -0.024400
     15 N5         -0.6690    1.7830   -2.6920 n4        1 U19     -0.668400
     16 N6         -1.6610    2.0250   -5.0370 nc        1 U19     -0.086600
     17 N3         -1.6720    1.4210   -6.0980 nd        1 U19     -0.205300
     18 C9         -0.8680    0.1500   -6.0320 cd        1 U19      0.567600
     19 N4         -0.6360   -0.7420   -6.9110 n2        1 U19     -0.576100
     20 H6          2.8750   -1.8170    1.0130 ha        1 U19      0.178000
     21 H2          3.8390   -3.9240    0.0950 ha        1 U19      0.173000
     22 H4          1.9860   -3.1520   -3.7370 ha        1 U19      0.177000
     23 H5          3.3910   -4.5840   -2.2770 ha        1 U19      0.172000
     24 HN51       -1.1690    2.6730   -2.5630 hn        1 U19      0.482467
     25 HN52        0.3390    1.9240   -2.5040 hn        1 U19      0.482467
     26 HN42       -1.0330   -0.6310   -7.8250 hn        1 U19      0.462400
     27 H53        -1.0240    1.0870   -2.0130 hn        1 U19      0.482467
@<TRIPOS>BOND
     1    1    2 1   
     2    2    3 1   
     3    2    4 1   
     4    2    5 1   
     5    5    6 ar  
     6    5    8 ar  
     7    6    7 ar  
     8    6   20 1   
     9    7   10 ar  
    10    7   21 1   
    11    8    9 ar  
    12    8   11 1   
    13    9   10 ar  
    14    9   22 1   
    15   10   23 1   
    16   11   12 2   
    17   12   13 1   
    18   13   14 2   
    19   13   18 1   
    20   14   15 1   
    21   14   16 1   
    22   15   24 1   
    23   15   25 1   
    24   15   27 1   
    25   16   17 2   
    26   17   18 1   
    27   18   19 2   
    28   19   26 1   
@<TRIPOS>SUBSTRUCTURE
     1 U19         1 TEMP              0 ****  ****    0 ROOT
