@<TRIPOS>MOLECULE
U19
   26    27     1     0     0
SMALL
bcc


@<TRIPOS>ATOM
      1 F3          1.4760   -1.7720   -1.0790 f         1 U19     -0.242300
      2 C7          2.1390   -1.2320   -0.0010 c3        1 U19      0.699200
      3 F1          3.3440   -1.8950   -0.0020 f         1 U19     -0.242300
      4 F2          1.4770   -1.7730    1.0770 f         1 U19     -0.242300
      5 C3          2.2470    0.2890   -0.0010 ca        1 U19     -0.146300
      6 C6          3.5080    0.8830   -0.0010 ca        1 U19     -0.087000
      7 C2          3.6330    2.2710   -0.0010 ca        1 U19     -0.134000
      8 C1          1.0790    1.0930   -0.0000 ca        1 U19      0.181400
      9 C4          1.2250    2.4940   -0.0000 ca        1 U19     -0.129000
     10 C5          2.4920    3.0710   -0.0000 ca        1 U19     -0.100000
     11 N1         -0.1580    0.3850   -0.0000 ne        1 U19     -0.330400
     12 N2         -1.2460    0.9830    0.0010 nf        1 U19     -0.079600
     13 C8         -2.3930    0.2050    0.0010 cd        1 U19     -0.213000
     14 C10        -2.5870   -1.1970    0.0010 cc        1 U19      0.324600
     15 N5         -1.6870   -2.1890   -0.0000 nh        1 U19     -0.773600
     16 N6         -4.0750   -1.4480    0.0010 nc        1 U19     -0.140600
     17 N3         -4.6910   -0.3980    0.0010 nd        1 U19     -0.251300
     18 C9         -3.7700    0.8070    0.0010 cd        1 U19      0.627600
     19 N4         -4.0790    2.0450    0.0020 n2        1 U19     -0.674100
     20 H6          4.4100    0.2480   -0.0020 ha        1 U19      0.154000
     21 H2          4.6330    2.7300   -0.0010 ha        1 U19      0.143000
     22 H4          0.3330    3.1430    0.0000 ha        1 U19      0.164000
     23 H5          2.5900    4.1670   -0.0000 ha        1 U19      0.142000
     24 HN51       -0.7100   -1.9880   -0.0000 hn        1 U19      0.467800
     25 HN52       -1.9800   -3.1380   -0.0000 hn        1 U19      0.467800
     26 HN42       -5.0530    2.2720    0.0020 hn        1 U19      0.415400
@<TRIPOS>BOND
     1    1    2 1   
     2    2    3 1   
     3    2    4 1   
     4    2    5 1   
     5    5    6 ar  
     6    5    8 ar  
     7    6    7 ar  
     8    6   20 1   
     9    7   10 ar  
    10    7   21 1   
    11    8    9 ar  
    12    8   11 1   
    13    9   10 ar  
    14    9   22 1   
    15   10   23 1   
    16   11   12 2   
    17   12   13 1   
    18   13   14 2   
    19   13   18 1   
    20   14   15 1   
    21   14   16 1   
    22   15   24 1   
    23   15   25 1   
    24   16   17 2   
    25   17   18 1   
    26   18   19 2   
    27   19   26 1   
@<TRIPOS>SUBSTRUCTURE
     1 U19         1 TEMP              0 ****  ****    0 ROOT
