@<TRIPOS>MOLECULE
U19
   27    28     1     0     0
SMALL
bcc


@<TRIPOS>ATOM
      1 F3         -0.0880    0.0770   -0.3000 f         1 U19     -0.242633
      2 C7          1.2890   -0.0010   -0.2550 c3        1 U19      0.699200
      3 F1          1.5970    0.2540    1.0520 f         1 U19     -0.242633
      4 F2          1.6510    1.1550   -0.9190 f         1 U19     -0.242633
      5 C3          1.8790   -1.2850   -0.8330 ca        1 U19     -0.115300
      6 C6          2.6670   -2.0980   -0.0300 ca        1 U19     -0.081000
      7 C2          3.2150   -3.2800   -0.5480 ca        1 U19     -0.069000
      8 C1          1.6240   -1.6500   -2.1870 ca        1 U19      0.110400
      9 C4          2.1810   -2.8390   -2.6910 ca        1 U19     -0.065000
     10 C5          2.9720   -3.6440   -1.8670 ca        1 U19     -0.103000
     11 N1          0.8100   -0.7510   -2.9140 ne        1 U19     -0.246400
     12 N2          0.4840   -0.9030   -4.0980 nf        1 U19     -0.123600
     13 C8         -0.3360    0.1300   -4.6040 cd        1 U19      0.105000
     14 C10        -0.8520    1.2870   -4.0370 cc        1 U19     -0.024400
     15 N5         -0.6800    1.7760   -2.6930 n4        1 U19     -0.668400
     16 N6         -1.6620    2.0190   -5.0420 nc        1 U19     -0.086600
     17 N3         -1.6650    1.4170   -6.1050 nd        1 U19     -0.205300
     18 C9         -0.8560    0.1500   -6.0380 cd        1 U19      0.567600
     19 N4         -0.6160   -0.7380   -6.9180 n2        1 U19     -0.576100
     20 H6          2.8660   -1.8150    1.0190 ha        1 U19      0.178000
     21 H2          3.8400   -3.9170    0.1010 ha        1 U19      0.173000
     22 H4          2.0000   -3.1460   -3.7360 ha        1 U19      0.177000
     23 H5          3.4040   -4.5750   -2.2730 ha        1 U19      0.172000
     24 HN51       -1.0350    1.0770   -2.0180 hn        1 U19      0.482467
     25 HN52       -1.1840    2.6640   -2.5640 hn        1 U19      0.482467
     26 HN42       -1.0090   -0.6270   -7.8340 hn        1 U19      0.462400
     27 H53         0.3270    1.9210   -2.5000 hn        1 U19      0.482467
@<TRIPOS>BOND
     1    1    2 1   
     2    2    3 1   
     3    2    4 1   
     4    2    5 1   
     5    5    6 ar  
     6    5    8 ar  
     7    6    7 ar  
     8    6   20 1   
     9    7   10 ar  
    10    7   21 1   
    11    8    9 ar  
    12    8   11 1   
    13    9   10 ar  
    14    9   22 1   
    15   10   23 1   
    16   11   12 2   
    17   12   13 1   
    18   13   14 2   
    19   13   18 1   
    20   14   15 1   
    21   14   16 1   
    22   15   24 1   
    23   15   25 1   
    24   15   27 1   
    25   16   17 2   
    26   17   18 1   
    27   18   19 2   
    28   19   26 1   
@<TRIPOS>SUBSTRUCTURE
     1 U19         1 TEMP              0 ****  ****    0 ROOT
