@<TRIPOS>MOLECULE
U1K
   31    31     1     0     0
SMALL
bcc


@<TRIPOS>ATOM
      1 O1          3.3020    1.5240    0.3330 o         1 U1K     -0.801300
      2 C2          3.3340    0.3230   -0.0130 c         1 U1K      0.918600
      3 O3          4.3560   -0.4120   -0.1270 o         1 U1K     -0.801300
      4 C4          1.9510   -0.3310   -0.3960 c3        1 U1K     -0.026500
      5 C5          0.9440   -0.2020    0.7480 c3        1 U1K      0.003900
      6 C6         -0.4310   -0.4890    0.3040 cc        1 U1K     -0.342600
      7 C7         -1.4400    0.3900    0.0170 cd        1 U1K     -0.026400
      8 S8         -2.8340   -0.5120   -0.3900 ss        1 U1K     -0.023800
      9 N9         -2.1850   -2.0210   -0.2270 nd        1 U1K     -0.679100
     10 C10        -0.8930   -1.9160    0.1500 cc        1 U1K      0.880300
     11 O11        -0.1040   -2.9090    0.3410 o         1 U1K     -0.896000
     12 C12        -1.4470    1.8780    0.0310 c3        1 U1K      0.024300
     13 C13        -0.3020    2.4410   -0.8060 c3        1 U1K     -0.087433
     14 C14        -1.3280    2.3920    1.4630 c3        1 U1K     -0.087433
     15 C15        -2.7610    2.3980   -0.5530 c3        1 U1K     -0.087433
     16 N16         2.1380   -1.7580   -0.7960 n4        1 U1K     -0.854600
     17 H4          1.5610    0.2330   -1.2910 hx        1 U1K      0.076700
     18 H51         1.0460    0.8450    1.1440 hc        1 U1K      0.072700
     19 H52         1.2160   -0.9040    1.5830 hc        1 U1K      0.072700
     20 H131        0.6890    2.1840   -0.3580 hc        1 U1K      0.034700
     21 H132       -0.3430    2.0250   -1.8410 hc        1 U1K      0.034700
     22 H133       -0.3870    3.5530   -0.8640 hc        1 U1K      0.034700
     23 H141       -1.3300    3.5090    1.4670 hc        1 U1K      0.034700
     24 H142       -2.1870    2.0280    2.0750 hc        1 U1K      0.034700
     25 H143       -0.3800    2.0360    1.9320 hc        1 U1K      0.034700
     26 H151       -2.8630    2.0790   -1.6180 hc        1 U1K      0.034700
     27 H152       -3.6290    1.9990    0.0250 hc        1 U1K      0.034700
     28 H153       -2.7830    3.5130   -0.5090 hc        1 U1K      0.034700
     29 H161        1.5620   -2.3760   -0.1760 hn        1 U1K      0.450800
     30 H162        1.8480   -1.9010   -1.7560 hn        1 U1K      0.450800
     31 H163        3.1410   -1.9790   -0.6960 hn        1 U1K      0.450800
@<TRIPOS>BOND
     1    1    2 1   
     2    2    3 1   
     3    2    4 1   
     4    4    5 1   
     5    4   16 1   
     6    4   17 1   
     7    5    6 1   
     8    5   18 1   
     9    5   19 1   
    10    6    7 2   
    11    6   10 1   
    12    7    8 1   
    13    7   12 1   
    14    8    9 1   
    15    9   10 2   
    16   10   11 1   
    17   12   13 1   
    18   12   14 1   
    19   12   15 1   
    20   13   20 1   
    21   13   21 1   
    22   13   22 1   
    23   14   23 1   
    24   14   24 1   
    25   14   25 1   
    26   15   26 1   
    27   15   27 1   
    28   15   28 1   
    29   16   29 1   
    30   16   30 1   
    31   16   31 1   
@<TRIPOS>SUBSTRUCTURE
     1 U1K         1 TEMP              0 ****  ****    0 ROOT
