@<TRIPOS>MOLECULE
U1K
   31    31     1     0     0
SMALL
bcc


@<TRIPOS>ATOM
      1 O1          0.1080    0.1340   -0.0140 o         1 U1K     -0.801300
      2 C2          1.3170   -0.1530   -0.1460 c         1 U1K      0.918600
      3 O3          1.8990   -0.5500   -1.1960 o         1 U1K     -0.801300
      4 C4          2.2050   -0.0540    1.1540 c3        1 U1K     -0.026500
      5 C5          2.1190    1.3420    1.7760 c3        1 U1K      0.003900
      6 C6          2.6500    1.3650    3.1490 cc        1 U1K     -0.342600
      7 C7          1.9630    1.3700    4.3330 cd        1 U1K     -0.026400
      8 S8          3.0990    1.4610    5.6080 ss        1 U1K     -0.023800
      9 N9          4.4710    1.4790    4.6910 nd        1 U1K     -0.679100
     10 C10         4.1390    1.4270    3.3840 cc        1 U1K      0.880300
     11 O11         4.9800    1.4050    2.4150 o         1 U1K     -0.896000
     12 C12         0.4990    1.3200    4.5910 c3        1 U1K      0.024300
     13 C13        -0.1460    0.1420    3.8680 c3        1 U1K     -0.087433
     14 C14        -0.1610    2.6190    4.1360 c3        1 U1K     -0.087433
     15 C15         0.2400    1.1550    6.0890 c3        1 U1K     -0.087433
     16 N16         3.6190   -0.4280    0.8550 n4        1 U1K     -0.854600
     17 H4          1.7930   -0.8050    1.8870 hx        1 U1K      0.076700
     18 H51         2.6900    2.0800    1.1470 hc        1 U1K      0.072700
     19 H52         1.0360    1.6400    1.7400 hc        1 U1K      0.072700
     20 H131       -1.2220    0.0650    4.1560 hc        1 U1K      0.034700
     21 H132        0.3670   -0.8080    4.1470 hc        1 U1K      0.034700
     22 H133       -0.0850    0.2680    2.7590 hc        1 U1K      0.034700
     23 H141        0.0020    2.7820    3.0440 hc        1 U1K      0.034700
     24 H142       -1.2600    2.5740    4.3290 hc        1 U1K      0.034700
     25 H143        0.2680    3.4850    4.6930 hc        1 U1K      0.034700
     26 H151       -0.8580    1.1550    6.2890 hc        1 U1K      0.034700
     27 H152        0.7080    1.9940    6.6600 hc        1 U1K      0.034700
     28 H153        0.6700    0.1920    6.4520 hc        1 U1K      0.034700
     29 H161        3.8950   -1.2400    1.3930 hn        1 U1K      0.450800
     30 H162        3.6770   -0.6400   -0.1530 hn        1 U1K      0.450800
     31 H163        4.2550    0.3680    1.1000 hn        1 U1K      0.450800
@<TRIPOS>BOND
     1    1    2 1   
     2    2    3 1   
     3    2    4 1   
     4    4    5 1   
     5    4   16 1   
     6    4   17 1   
     7    5    6 1   
     8    5   18 1   
     9    5   19 1   
    10    6    7 2   
    11    6   10 1   
    12    7    8 1   
    13    7   12 1   
    14    8    9 1   
    15    9   10 2   
    16   10   11 1   
    17   12   13 1   
    18   12   14 1   
    19   12   15 1   
    20   13   20 1   
    21   13   21 1   
    22   13   22 1   
    23   14   23 1   
    24   14   24 1   
    25   14   25 1   
    26   15   26 1   
    27   15   27 1   
    28   15   28 1   
    29   16   29 1   
    30   16   30 1   
    31   16   31 1   
@<TRIPOS>SUBSTRUCTURE
     1 U1K         1 TEMP              0 ****  ****    0 ROOT
