@<TRIPOS>MOLECULE
U1K
   31    31     1     0     0
SMALL
bcc


@<TRIPOS>ATOM
      1 O1          0.1120    0.1510   -0.0220 o         1 U1K     -0.801800
      2 C2          1.3220   -0.1330   -0.1540 c         1 U1K      0.918600
      3 O3          1.9060   -0.5250   -1.2050 o         1 U1K     -0.801800
      4 C4          2.2070   -0.0390    1.1480 c3        1 U1K     -0.026500
      5 C5          2.1170    1.3520    1.7780 c3        1 U1K      0.003900
      6 C6          2.6480    1.3690    3.1510 cc        1 U1K     -0.342600
      7 C7          1.9620    1.3630    4.3360 cd        1 U1K     -0.026400
      8 S8          3.0980    1.4510    5.6110 ss        1 U1K     -0.023800
      9 N9          4.4690    1.4800    4.6930 nd        1 U1K     -0.679100
     10 C10         4.1360    1.4340    3.3860 cc        1 U1K      0.880300
     11 O11         4.9770    1.4220    2.4170 o         1 U1K     -0.896000
     12 C12         0.4980    1.3060    4.5940 c3        1 U1K      0.024300
     13 C13        -0.1430    0.1300    3.8640 c3        1 U1K     -0.087433
     14 C14        -0.1680    2.6050    4.1470 c3        1 U1K     -0.087433
     15 C15         0.2400    1.1310    6.0920 c3        1 U1K     -0.087433
     16 N16         3.6240   -0.4070    0.8480 nz        1 U1K     -0.854600
     17 H4          1.7970   -0.7960    1.8750 hx        1 U1K      0.076700
     18 H51         2.6840    2.0960    1.1540 hc        1 U1K      0.072700
     19 H52         1.0320    1.6450    1.7440 hc        1 U1K      0.072700
     20 H131        0.3740   -0.8200    4.1370 hc        1 U1K      0.034700
     21 H132       -0.0830    0.2630    2.7560 hc        1 U1K      0.034700
     22 H133       -1.2190    0.0470    4.1520 hc        1 U1K      0.034700
     23 H141       -1.2660    2.5550    4.3400 hc        1 U1K      0.034700
     24 H142       -0.0050    2.7760    3.0570 hc        1 U1K      0.034700
     25 H143        0.2580    3.4700    4.7100 hc        1 U1K      0.034700
     26 H151       -0.8580    1.1250    6.2920 hc        1 U1K      0.034700
     27 H152        0.7050    1.9680    6.6670 hc        1 U1K      0.034700
     28 H153        0.6750    0.1670    6.4480 hc        1 U1K      0.034700
     29 H161        4.2550    0.3920    1.0930 hn        1 U1K      0.451133
     30 H162        3.6820   -0.6180   -0.1610 hn        1 U1K      0.451133
     31 H163        3.9040   -1.2180    1.3860 hn        1 U1K      0.451133
@<TRIPOS>BOND
     1    1    2 1   
     2    2    3 1   
     3    2    4 1   
     4    4    5 1   
     5    4   16 1   
     6    4   17 1   
     7    5    6 1   
     8    5   18 1   
     9    5   19 1   
    10    6    7 2   
    11    6   10 1   
    12    7    8 1   
    13    7   12 1   
    14    8    9 1   
    15    9   10 2   
    16   10   11 1   
    17   12   13 1   
    18   12   14 1   
    19   12   15 1   
    20   13   20 1   
    21   13   21 1   
    22   13   22 1   
    23   14   23 1   
    24   14   24 1   
    25   14   25 1   
    26   15   26 1   
    27   15   27 1   
    28   15   28 1   
    29   16   29 1   
    30   16   30 1   
    31   16   31 1   
@<TRIPOS>SUBSTRUCTURE
     1 U1K         1 TEMP              0 ****  ****    0 ROOT
