@<TRIPOS>MOLECULE
U1K
   31    29     1     0     0
SMALL
bcc


@<TRIPOS>ATOM
      1 O1         -2.5930   -3.0670   -0.6630 o         1 U1K     -0.540500
      2 C2         -1.5260   -2.7380   -1.2460 c2        1 U1K      0.332000
      3 O3         -1.4970   -2.6470   -2.5010 o         1 U1K     -0.540500
      4 C4         -0.2720   -2.4880   -0.4410 c3        1 U1K     -0.164000
      5 C5          0.0790   -1.0200   -0.4970 c3        1 U1K     -0.078000
      6 C6          0.0030   -0.4290    0.8950 c2        1 U1K     -0.274000
      7 C7         -0.0230    0.9370    1.2070 c1        1 U1K     -0.307000
      8 S8         -0.1040    1.0710    2.7500 ss        1 U1K      0.296000
      9 N9         -0.1230   -0.3020    3.3200 n2        1 U1K     -0.468000
     10 C10        -0.0600   -1.2360    2.2310 c1        1 U1K      0.216000
     11 O11        -0.0500   -2.6360    2.3480 os        1 U1K     -0.551000
     12 C12         0.1220    2.0760    0.2230 c2        1 U1K      0.018000
     13 C13         0.1000    3.3920    0.9680 c3        1 U1K     -0.204000
     14 C14         1.4340    1.9380   -0.5190 c3        1 U1K     -0.204000
     15 C15        -1.0220    2.0380   -0.7660 c3        1 U1K     -0.204000
     16 N16         0.7990   -3.2540   -0.9820 n4        1 U1K     -0.063000
     17 H4         -0.4230   -2.7510    0.4870 hx        1 U1K      0.147000
     18 H51         0.9870   -0.9150   -0.8470 hc        1 U1K      0.102000
     19 H52        -0.5510   -0.5560   -1.0840 hc        1 U1K      0.102000
     20 H131        0.1800    4.1310    0.3290 hc        1 U1K      0.072778
     21 H132       -0.7430    3.4750    1.4600 hc        1 U1K      0.072778
     22 H133        0.8500    3.4230    1.5980 hc        1 U1K      0.072778
     23 H141        2.0890    1.4920    0.0580 hc        1 U1K      0.072778
     24 H142        1.2960    1.4060   -1.3300 hc        1 U1K      0.072778
     25 H143        1.7660    2.8270   -0.7640 hc        1 U1K      0.072778
     26 H151       -1.8060    1.6280   -0.3430 hc        1 U1K      0.072778
     27 H152       -0.7600    1.5090   -1.5490 hc        1 U1K      0.072778
     28 H153       -1.2420    2.9510   -1.0470 hc        1 U1K      0.072778
     29 H161        1.5900   -2.9880   -0.5990 hn        1 U1K      0.243000
     30 H162        0.6590   -4.1450   -0.8070 hn        1 U1K      0.243000
     31 H163        0.8400   -3.1240   -1.8900 hn        1 U1K      0.243000
@<TRIPOS>BOND
     1    1    2 1   
     2    2    3 1   
     3    2    4 1   
     4    4    5 1   
     5    4   16 1   
     6    4   17 1   
     7    5    6 1   
     8    5   18 1   
     9    5   19 1   
    10    6    7 1   
    11    6   10 1   
    12    7    8 1   
    13    8    9 1   
    14    9   10 1   
    15   12   13 1   
    16   12   14 1   
    17   12   15 1   
    18   13   20 1   
    19   13   21 1   
    20   13   22 1   
    21   14   23 1   
    22   14   24 1   
    23   14   25 1   
    24   15   26 1   
    25   15   27 1   
    26   15   28 1   
    27   16   29 1   
    28   16   30 1   
    29   16   31 1   
@<TRIPOS>SUBSTRUCTURE
     1 U1K         1 TEMP              0 ****  ****    0 ROOT
