@<TRIPOS>MOLECULE
U1K
   31    31     1     0     0
SMALL
bcc


@<TRIPOS>ATOM
      1 O1          0.1150    0.1780   -0.0320 o         1 U1K     -0.801800
      2 C2          1.3210   -0.1250   -0.1580 c         1 U1K      0.918600
      3 O3          1.9040   -0.5260   -1.2060 o         1 U1K     -0.801800
      4 C4          2.2010   -0.0450    1.1490 c3        1 U1K     -0.026500
      5 C5          2.1270    1.3460    1.7810 c3        1 U1K      0.003900
      6 C6          2.6540    1.3540    3.1560 cc        1 U1K     -0.342600
      7 C7          1.9640    1.3560    4.3380 cd        1 U1K     -0.026400
      8 S8          3.0960    1.4260    5.6170 ss        1 U1K     -0.023800
      9 N9          4.4710    1.4380    4.7040 nd        1 U1K     -0.679100
     10 C10         4.1420    1.3990    3.3950 cc        1 U1K      0.880300
     11 O11         4.9860    1.3770    2.4290 o         1 U1K     -0.896000
     12 C12         0.4980    1.3190    4.5910 c3        1 U1K      0.024300
     13 C13        -0.1570    0.1530    3.8570 c3        1 U1K     -0.087433
     14 C14        -0.1480    2.6270    4.1440 c3        1 U1K     -0.087433
     15 C15         0.2330    1.1450    6.0870 c3        1 U1K     -0.087433
     16 N16         3.6140   -0.4320    0.8550 n4        1 U1K     -0.854600
     17 H4          1.7770   -0.7970    1.8730 hx        1 U1K      0.076700
     18 H51         2.7070    2.0840    1.1590 hc        1 U1K      0.072700
     19 H52         1.0470    1.6550    1.7430 hc        1 U1K      0.072700
     20 H131       -1.2340    0.0840    4.1410 hc        1 U1K      0.034700
     21 H132       -0.0910    0.2870    2.7490 hc        1 U1K      0.034700
     22 H133        0.3470   -0.8050    4.1310 hc        1 U1K      0.034700
     23 H141       -1.2480    2.5920    4.3330 hc        1 U1K      0.034700
     24 H142        0.2880    3.4850    4.7090 hc        1 U1K      0.034700
     25 H143        0.0210    2.7970    3.0540 hc        1 U1K      0.034700
     26 H151       -0.8660    1.1540    6.2840 hc        1 U1K      0.034700
     27 H152        0.6530    0.1740    6.4440 hc        1 U1K      0.034700
     28 H153        0.7070    1.9750    6.6650 hc        1 U1K      0.034700
     29 H161        3.8820   -1.2440    1.3980 hn        1 U1K      0.450800
     30 H162        4.2540    0.3590    1.0990 hn        1 U1K      0.450800
     31 H163        3.6730   -0.6480   -0.1530 hn        1 U1K      0.450800
@<TRIPOS>BOND
     1    1    2 1   
     2    2    3 1   
     3    2    4 1   
     4    4    5 1   
     5    4   16 1   
     6    4   17 1   
     7    5    6 1   
     8    5   18 1   
     9    5   19 1   
    10    6    7 2   
    11    6   10 1   
    12    7    8 1   
    13    7   12 1   
    14    8    9 1   
    15    9   10 2   
    16   10   11 1   
    17   12   13 1   
    18   12   14 1   
    19   12   15 1   
    20   13   20 1   
    21   13   21 1   
    22   13   22 1   
    23   14   23 1   
    24   14   24 1   
    25   14   25 1   
    26   15   26 1   
    27   15   27 1   
    28   15   28 1   
    29   16   29 1   
    30   16   30 1   
    31   16   31 1   
@<TRIPOS>SUBSTRUCTURE
     1 U1K         1 TEMP              0 ****  ****    0 ROOT
