@<TRIPOS>MOLECULE
U1N
   47    48     1     0     0
SMALL
bcc


@<TRIPOS>ATOM
      1 C1         -0.5910   -0.0890    0.0780 ca        1 U1N     -0.199600
      2 C2          0.6660   -0.7010   -0.0490 ca        1 U1N     -0.053000
      3 C3          1.5680   -0.6580    1.0100 ca        1 U1N     -0.123000
      4 C4          1.2330   -0.0130    2.2100 ca        1 U1N     -0.009300
      5 C5         -0.0190    0.6000    2.3310 ca        1 U1N     -0.123000
      6 C6         -0.9270    0.5710    1.2750 ca        1 U1N     -0.053000
      7 C7          2.1860   -0.0190    3.3580 c3        1 U1N     -0.070100
      8 C8          2.6780    1.3760    3.6940 c3        1 U1N     -0.101400
      9 C9          3.3550    1.5050    5.0610 c3        1 U1N      0.131500
     10 C11         2.3930    1.2050    6.2040 c3        1 U1N     -0.140100
     11 N12         4.5930    0.6460    5.1800 n4        1 U1N     -0.763000
     12 C13         5.7760    1.1660    4.4360 c3        1 U1N     -0.017200
     13 C14         6.1830    0.2820    3.2500 c         1 U1N      0.599700
     14 O15         5.4370   -0.6530    2.9220 o         1 U1N     -0.560100
     15 C16         7.4410    0.6160    2.6020 ca        1 U1N     -0.239600
     16 C17         8.1560    1.7900    2.8940 ca        1 U1N     -0.036500
     17 C18         9.3560    2.0650    2.2580 ca        1 U1N     -0.176000
     18 C19         9.8670    1.1530    1.3060 ca        1 U1N      0.218900
     19 F20        11.0330    1.4160    0.6880 f         1 U1N     -0.092900
     20 C21         9.1570   -0.0270    1.0050 ca        1 U1N     -0.176000
     21 C22         7.9550   -0.2840    1.6490 ca        1 U1N     -0.036500
     22 C23        -1.5980   -0.0660   -0.9800 c         1 U1N      0.570700
     23 N24        -1.4560   -1.0850   -2.0990 n4        1 U1N     -0.760400
     24 O25        -2.5780    0.6540   -1.0910 o         1 U1N     -0.393100
     25 H2          0.9740   -1.2080   -0.9760 ha        1 U1N      0.159000
     26 H3          2.5540   -1.1420    0.9010 ha        1 U1N      0.168000
     27 H5         -0.3020    1.1060    3.2690 ha        1 U1N      0.168000
     28 H6         -1.9110    1.0630    1.3760 ha        1 U1N      0.159000
     29 H71         3.0610   -0.6840    3.1120 hc        1 U1N      0.078700
     30 H72         1.6570   -0.4660    4.2460 hc        1 U1N      0.078700
     31 H81         1.8120    2.0940    3.7020 hc        1 U1N      0.084700
     32 H82         3.3860    1.7200    2.8920 hc        1 U1N      0.084700
     33 H9          3.7040    2.5800    5.1710 hx        1 U1N      0.109700
     34 H111        1.4760    1.8330    6.0680 hc        1 U1N      0.083367
     35 H112        2.0830    0.1320    6.2270 hc        1 U1N      0.083367
     36 H113        2.8440    1.4700    7.1930 hc        1 U1N      0.083367
     37 HN12        4.3680   -0.2980    4.8220 hn        1 U1N      0.463800
     38 H131        6.6470    1.2280    5.1520 hx        1 U1N      0.130700
     39 H132        5.5540    2.2010    4.0460 hx        1 U1N      0.130700
     40 H17         7.7760    2.5160    3.6300 ha        1 U1N      0.147500
     41 H18         9.9200    2.9850    2.4830 ha        1 U1N      0.181000
     42 H21         9.5640   -0.7340    0.2640 ha        1 U1N      0.181000
     43 H22         7.3940   -1.2070    1.4190 ha        1 U1N      0.147500
     44 H241       -0.6280   -0.8730   -2.6640 hn        1 U1N      0.472800
     45 H242       -1.3610   -2.0260   -1.7070 hn        1 U1N      0.472800
     46 H122        4.8310    0.5630    6.1760 hn        1 U1N      0.463800
     47 H243       -2.2890   -1.0510   -2.7040 hn        1 U1N      0.472800
@<TRIPOS>BOND
     1    1    2 ar  
     2    1    6 ar  
     3    1   22 1   
     4    2    3 ar  
     5    2   25 1   
     6    3    4 ar  
     7    3   26 1   
     8    4    5 ar  
     9    4    7 1   
    10    5    6 ar  
    11    5   27 1   
    12    6   28 1   
    13    7    8 1   
    14    7   29 1   
    15    7   30 1   
    16    8    9 1   
    17    8   31 1   
    18    8   32 1   
    19    9   10 1   
    20    9   11 1   
    21    9   33 1   
    22   10   34 1   
    23   10   35 1   
    24   10   36 1   
    25   11   12 1   
    26   11   37 1   
    27   11   46 1   
    28   12   13 1   
    29   12   38 1   
    30   12   39 1   
    31   13   14 2   
    32   13   15 1   
    33   15   16 ar  
    34   15   21 ar  
    35   16   17 ar  
    36   16   40 1   
    37   17   18 ar  
    38   17   41 1   
    39   18   19 1   
    40   18   20 ar  
    41   20   21 ar  
    42   20   42 1   
    43   21   43 1   
    44   22   23 1   
    45   22   24 2   
    46   23   44 1   
    47   23   45 1   
    48   23   47 1   
@<TRIPOS>SUBSTRUCTURE
     1 U1N         1 TEMP              0 ****  ****    0 ROOT
