@<TRIPOS>MOLECULE
U1N
   47    48     1     0     0
SMALL
bcc


@<TRIPOS>ATOM
      1 C1         -0.5920   -0.0940    0.0850 ca        1 U1N     -0.199600
      2 C2          0.6620   -0.7130   -0.0350 ca        1 U1N     -0.053000
      3 C3          1.5630   -0.6650    1.0230 ca        1 U1N     -0.123000
      4 C4          1.2310   -0.0050    2.2170 ca        1 U1N     -0.009300
      5 C5         -0.0180    0.6150    2.3300 ca        1 U1N     -0.123000
      6 C6         -0.9250    0.5800    1.2740 ca        1 U1N     -0.053000
      7 C7          2.1830   -0.0050    3.3660 c3        1 U1N     -0.070100
      8 C8          2.6830    1.3910    3.6870 c3        1 U1N     -0.101400
      9 C9          3.3610    1.5300    5.0530 c3        1 U1N      0.131500
     10 C11         2.3970    1.2450    6.1990 c3        1 U1N     -0.140100
     11 N12         4.5950    0.6670    5.1800 n4        1 U1N     -0.763000
     12 C13         5.7790    1.1750    4.4300 c3        1 U1N     -0.017200
     13 C14         6.1810    0.2790    3.2500 c         1 U1N      0.599700
     14 O15         5.4310   -0.6550    2.9320 o         1 U1N     -0.560100
     15 C16         7.4390    0.6020    2.5980 ca        1 U1N     -0.239600
     16 C17         8.1610    1.7760    2.8800 ca        1 U1N     -0.036500
     17 C18         9.3600    2.0400    2.2400 ca        1 U1N     -0.176000
     18 C19         9.8670    1.1180    1.2950 ca        1 U1N      0.218900
     19 F20        11.0330    1.3700    0.6730 f         1 U1N     -0.092900
     20 C21         9.1500   -0.0610    1.0040 ca        1 U1N     -0.176000
     21 C22         7.9480   -0.3080    1.6520 ca        1 U1N     -0.036500
     22 C23        -1.5990   -0.0760   -0.9740 c         1 U1N      0.570700
     23 N24        -1.4610   -1.1070   -2.0830 n4        1 U1N     -0.760400
     24 O25        -2.5750    0.6470   -1.0940 o         1 U1N     -0.393100
     25 H2          0.9680   -1.2320   -0.9570 ha        1 U1N      0.159000
     26 H3          2.5470   -1.1550    0.9200 ha        1 U1N      0.168000
     27 H5         -0.2990    1.1330    3.2630 ha        1 U1N      0.168000
     28 H6         -1.9070    1.0780    1.3690 ha        1 U1N      0.159000
     29 H71         1.6510   -0.4400    4.2570 hc        1 U1N      0.078700
     30 H72         3.0550   -0.6770    3.1270 hc        1 U1N      0.078700
     31 H81         1.8200    2.1130    3.6890 hc        1 U1N      0.084700
     32 H82         3.3920    1.7240    2.8820 hc        1 U1N      0.084700
     33 H9          3.7140    2.6050    5.1520 hx        1 U1N      0.109700
     34 H111        1.4830    1.8750    6.0570 hc        1 U1N      0.083367
     35 H112        2.8500    1.5180    7.1850 hc        1 U1N      0.083367
     36 H113        2.0830    0.1730    6.2330 hc        1 U1N      0.083367
     37 HN12        4.8330    0.5930    6.1760 hn        1 U1N      0.463800
     38 H131        5.5630    2.2080    4.0310 hx        1 U1N      0.130700
     39 H132        6.6520    1.2390    5.1450 hx        1 U1N      0.130700
     40 H17         7.7840    2.5100    3.6100 ha        1 U1N      0.147500
     41 H18         9.9300    2.9590    2.4570 ha        1 U1N      0.181000
     42 H21         9.5540   -0.7770    0.2690 ha        1 U1N      0.181000
     43 H22         7.3830   -1.2300    1.4310 ha        1 U1N      0.147500
     44 H241       -0.6310   -0.9050   -2.6490 hn        1 U1N      0.472800
     45 H242       -2.2930   -1.0750   -2.6890 hn        1 U1N      0.472800
     46 H122        4.3660   -0.2800    4.8300 hn        1 U1N      0.463800
     47 H243       -1.3710   -2.0450   -1.6820 hn        1 U1N      0.472800
@<TRIPOS>BOND
     1    1    2 ar  
     2    1    6 ar  
     3    1   22 1   
     4    2    3 ar  
     5    2   25 1   
     6    3    4 ar  
     7    3   26 1   
     8    4    5 ar  
     9    4    7 1   
    10    5    6 ar  
    11    5   27 1   
    12    6   28 1   
    13    7    8 1   
    14    7   29 1   
    15    7   30 1   
    16    8    9 1   
    17    8   31 1   
    18    8   32 1   
    19    9   10 1   
    20    9   11 1   
    21    9   33 1   
    22   10   34 1   
    23   10   35 1   
    24   10   36 1   
    25   11   12 1   
    26   11   37 1   
    27   11   46 1   
    28   12   13 1   
    29   12   38 1   
    30   12   39 1   
    31   13   14 2   
    32   13   15 1   
    33   15   16 ar  
    34   15   21 ar  
    35   16   17 ar  
    36   16   40 1   
    37   17   18 ar  
    38   17   41 1   
    39   18   19 1   
    40   18   20 ar  
    41   20   21 ar  
    42   20   42 1   
    43   21   43 1   
    44   22   23 1   
    45   22   24 2   
    46   23   44 1   
    47   23   45 1   
    48   23   47 1   
@<TRIPOS>SUBSTRUCTURE
     1 U1N         1 TEMP              0 ****  ****    0 ROOT
