@<TRIPOS>MOLECULE
U1N
   47    48     1     0     0
SMALL
bcc


@<TRIPOS>ATOM
      1 C1         -0.5970   -0.1220    0.0970 ca        1 U1N     -0.199600
      2 C2          0.6630   -0.7280   -0.0310 ca        1 U1N     -0.053000
      3 C3          1.5690   -0.6750    1.0240 ca        1 U1N     -0.123000
      4 C4          1.2350   -0.0250    2.2220 ca        1 U1N     -0.009300
      5 C5         -0.0200    0.5830    2.3440 ca        1 U1N     -0.123000
      6 C6         -0.9310    0.5430    1.2920 ca        1 U1N     -0.053000
      7 C7          2.1910   -0.0210    3.3670 c3        1 U1N     -0.070100
      8 C8          2.6790    1.3790    3.6920 c3        1 U1N     -0.101400
      9 C9          3.3610    1.5190    5.0570 c3        1 U1N      0.131500
     10 C11         2.4040    1.2210    6.2050 c3        1 U1N     -0.140100
     11 N12         4.6030    0.6670    5.1750 ny        1 U1N     -0.763000
     12 C13         5.7800    1.1880    4.4230 c3        1 U1N     -0.017200
     13 C14         6.1870    0.2990    3.2400 c         1 U1N      0.599700
     14 O15         5.4440   -0.6410    2.9210 o         1 U1N     -0.560100
     15 C16         7.4400    0.6360    2.5860 ca        1 U1N     -0.239600
     16 C17         8.1520    1.8150    2.8690 ca        1 U1N     -0.036500
     17 C18         9.3470    2.0920    2.2270 ca        1 U1N     -0.176000
     18 C19         9.8600    1.1780    1.2780 ca        1 U1N      0.218900
     19 F20        11.0210    1.4420    0.6540 f         1 U1N     -0.092900
     20 C21         9.1530   -0.0070    0.9850 ca        1 U1N     -0.176000
     21 C22         7.9550   -0.2670    1.6350 ca        1 U1N     -0.036500
     22 C23        -1.6080   -0.1100   -0.9570 c         1 U1N      0.570700
     23 N24        -1.4640   -1.1330   -2.0720 nz        1 U1N     -0.760400
     24 O25        -2.5930    0.6040   -1.0680 o         1 U1N     -0.393100
     25 H2          0.9700   -1.2390   -0.9560 ha        1 U1N      0.159000
     26 H3          2.5570   -1.1550    0.9150 ha        1 U1N      0.168000
     27 H5         -0.3020    1.0930    3.2800 ha        1 U1N      0.168000
     28 H6         -1.9180    1.0310    1.3930 ha        1 U1N      0.159000
     29 H71         3.0690   -0.6830    3.1210 hc        1 U1N      0.078700
     30 H72         1.6680   -0.4650    4.2590 hc        1 U1N      0.078700
     31 H81         1.8090    2.0930    3.7000 hc        1 U1N      0.084700
     32 H82         3.3820    1.7220    2.8860 hc        1 U1N      0.084700
     33 H9          3.7050    2.5960    5.1590 hx        1 U1N      0.109700
     34 H111        2.8570    1.4940    7.1910 hc        1 U1N      0.083367
     35 H112        1.4840    1.8440    6.0690 hc        1 U1N      0.083367
     36 H113        2.0990    0.1460    6.2350 hc        1 U1N      0.083367
     37 HN12        4.8450    0.5900    6.1700 hn        1 U1N      0.463800
     38 H131        5.5520    2.2200    4.0290 hx        1 U1N      0.130700
     39 H132        6.6540    1.2580    5.1360 hx        1 U1N      0.130700
     40 H17         7.7700    2.5430    3.6020 ha        1 U1N      0.147500
     41 H18         9.9090    3.0150    2.4450 ha        1 U1N      0.181000
     42 H21         9.5610   -0.7170    0.2470 ha        1 U1N      0.181000
     43 H22         7.3970   -1.1930    1.4130 ha        1 U1N      0.147500
     44 H241       -1.3620   -2.0720   -1.6760 hn        1 U1N      0.472800
     45 H242       -0.6390   -0.9180   -2.6410 hn        1 U1N      0.472800
     46 H122        4.3810   -0.2810    4.8230 hn        1 U1N      0.463800
     47 H243       -2.2990   -1.1070   -2.6740 hn        1 U1N      0.472800
@<TRIPOS>BOND
     1    1    2 ar  
     2    1    6 ar  
     3    1   22 1   
     4    2    3 ar  
     5    2   25 1   
     6    3    4 ar  
     7    3   26 1   
     8    4    5 ar  
     9    4    7 1   
    10    5    6 ar  
    11    5   27 1   
    12    6   28 1   
    13    7    8 1   
    14    7   29 1   
    15    7   30 1   
    16    8    9 1   
    17    8   31 1   
    18    8   32 1   
    19    9   10 1   
    20    9   11 1   
    21    9   33 1   
    22   10   34 1   
    23   10   35 1   
    24   10   36 1   
    25   11   12 1   
    26   11   37 1   
    27   11   46 1   
    28   12   13 1   
    29   12   38 1   
    30   12   39 1   
    31   13   14 2   
    32   13   15 1   
    33   15   16 ar  
    34   15   21 ar  
    35   16   17 ar  
    36   16   40 1   
    37   17   18 ar  
    38   17   41 1   
    39   18   19 1   
    40   18   20 ar  
    41   20   21 ar  
    42   20   42 1   
    43   21   43 1   
    44   22   23 1   
    45   22   24 2   
    46   23   44 1   
    47   23   45 1   
    48   23   47 1   
@<TRIPOS>SUBSTRUCTURE
     1 U1N         1 TEMP              0 ****  ****    0 ROOT
