@<TRIPOS>MOLECULE
U1N
   45    46     1     0     0
SMALL
bcc


@<TRIPOS>ATOM
      1 C1         -8.1070    3.2750    4.9860 ca        1 U1N     -0.147600
      2 C2         -8.1120    3.1830    3.5910 ca        1 U1N     -0.088500
      3 C3         -7.1060    2.4770    2.9350 ca        1 U1N     -0.140000
      4 C4         -6.0840    1.8540    3.6620 ca        1 U1N     -0.053300
      5 C5         -6.0810    1.9550    5.0590 ca        1 U1N     -0.140000
      6 C6         -7.0800    2.6640    5.7180 ca        1 U1N     -0.088500
      7 C7         -5.0180    1.0860    2.9610 c3        1 U1N     -0.040100
      8 C8         -3.6840    1.8030    3.0300 c3        1 U1N     -0.066400
      9 C9         -2.5450    1.0530    2.3220 c3        1 U1N      0.169500
     10 C11        -2.2980   -0.2920    3.0040 c3        1 U1N     -0.102100
     11 N12        -2.7890    0.9050    0.8840 n3        1 U1N     -0.804200
     12 C13        -2.4180    2.0520    0.0950 c3        1 U1N      0.067800
     13 C14        -0.9360    2.2760   -0.1630 c         1 U1N      0.540700
     14 O15        -0.0850    1.4440    0.1810 o         1 U1N     -0.540100
     15 C16        -0.5600    3.5290   -0.8490 ca        1 U1N     -0.192600
     16 C17        -1.5140    4.3810   -1.4180 ca        1 U1N     -0.057500
     17 C18        -1.1270    5.5540   -2.0570 ca        1 U1N     -0.181500
     18 C19         0.2390    5.8880   -2.1290 ca        1 U1N      0.156900
     19 F20         0.6220    7.0280   -2.7470 f         1 U1N     -0.132900
     20 C21         1.2070    5.0370   -1.5620 ca        1 U1N     -0.181500
     21 C22         0.8000    3.8680   -0.9310 ca        1 U1N     -0.057500
     22 C23        -9.1490    4.0290    5.7360 c         1 U1N      0.670700
     23 N24       -10.4370    4.0170    5.2530 n         1 U1N     -0.675000
     24 O25        -8.8880    4.6560    6.7840 o         1 U1N     -0.611100
     25 H2         -8.8950    3.6790    2.9980 ha        1 U1N      0.143500
     26 H3         -7.1140    2.4100    1.8370 ha        1 U1N      0.137000
     27 H5         -5.2790    1.4720    5.6370 ha        1 U1N      0.137000
     28 H6         -7.0700    2.7620    6.8160 ha        1 U1N      0.143500
     29 H71        -4.9230    0.0730    3.4390 hc        1 U1N      0.059700
     30 H72        -5.3040    0.9210    1.8880 hc        1 U1N      0.059700
     31 H81        -3.3880    1.9350    4.1040 hc        1 U1N      0.043200
     32 H82        -3.7910    2.8260    2.5840 hc        1 U1N      0.043200
     33 H9         -1.6090    1.6770    2.4870 h1        1 U1N      0.031700
     34 H111       -3.1330   -1.0070    2.8110 hc        1 U1N      0.043700
     35 H112       -1.3470   -0.7480    2.6350 hc        1 U1N      0.043700
     36 H113       -2.2110   -0.1340    4.1060 hc        1 U1N      0.043700
     37 HN12       -2.3130    0.0870    0.5460 hn        1 U1N      0.374800
     38 H131       -2.9130    1.9300   -0.9140 h1        1 U1N      0.076700
     39 H132       -2.8320    2.9810    0.5810 h1        1 U1N      0.076700
     40 H17        -2.5860    4.1310   -1.3720 ha        1 U1N      0.151500
     41 H18        -1.8750    6.2240   -2.5060 ha        1 U1N      0.155000
     42 H21         2.2720    5.3030   -1.6250 ha        1 U1N      0.155000
     43 H22         1.5480    3.1880   -0.4880 ha        1 U1N      0.151500
     44 H241      -10.6840    3.4680    4.4720 hn        1 U1N      0.311500
     45 H242      -11.1480    4.4850    5.7570 hn        1 U1N      0.311500
@<TRIPOS>BOND
     1    1    2 ar  
     2    1    6 ar  
     3    1   22 1   
     4    2    3 ar  
     5    2   25 1   
     6    3    4 ar  
     7    3   26 1   
     8    4    5 ar  
     9    4    7 1   
    10    5    6 ar  
    11    5   27 1   
    12    6   28 1   
    13    7    8 1   
    14    7   29 1   
    15    7   30 1   
    16    8    9 1   
    17    8   31 1   
    18    8   32 1   
    19    9   10 1   
    20    9   11 1   
    21    9   33 1   
    22   10   34 1   
    23   10   35 1   
    24   10   36 1   
    25   11   12 1   
    26   11   37 1   
    27   12   13 1   
    28   12   38 1   
    29   12   39 1   
    30   13   14 2   
    31   13   15 1   
    32   15   16 ar  
    33   15   21 ar  
    34   16   17 ar  
    35   16   40 1   
    36   17   18 ar  
    37   17   41 1   
    38   18   19 1   
    39   18   20 ar  
    40   20   21 ar  
    41   20   42 1   
    42   21   43 1   
    43   22   23 1   
    44   22   24 2   
    45   23   44 1   
    46   23   45 1   
@<TRIPOS>SUBSTRUCTURE
     1 U1N         1 TEMP              0 ****  ****    0 ROOT
