@<TRIPOS>MOLECULE
U1P
   35    36     1     0     0
SMALL
bcc


@<TRIPOS>ATOM
      1 O1P         0.1120    0.7110   -0.0020 o         1 U1P     -0.929833
      2 P           1.4800    1.1160    0.4630 p5        1 U1P      1.336900
      3 O2P         1.5790    2.5530    0.9390 o         1 U1P     -0.929833
      4 O3P         2.3120    0.1100    1.1940 o         1 U1P     -0.929833
      5 N1          1.1830    5.5630   -4.2320 n         1 U1P     -0.346000
      6 C2         -0.2080    5.6060   -3.9330 c         1 U1P      0.811500
      7 O2         -0.6710    5.8860   -2.8100 o         1 U1P     -0.615500
      8 N3         -1.1430    5.4260   -4.9800 n         1 U1P     -0.590500
      9 C4         -0.7760    5.1780   -6.3040 c         1 U1P      0.722700
     10 O4         -1.6600    5.0470   -7.1760 o         1 U1P     -0.665500
     11 C6          1.5580    5.2440   -5.5370 cc        1 U1P      0.009000
     12 C5          0.6600    5.1100   -6.5590 cd        1 U1P     -0.351200
     13 O5'         2.3240    1.3150   -1.0530 os        1 U1P     -0.557200
     14 C5'         1.7630    2.2550   -1.8720 c3        1 U1P      0.235400
     15 C4'         2.5760    3.5710   -1.8080 c3        1 U1P      0.062100
     16 C3'         1.9590    4.6520   -0.9030 c3        1 U1P      0.140100
     17 O3'         2.7620    4.8810    0.2300 oh        1 U1P     -0.690800
     18 C2'         1.9350    5.9480   -1.7510 c3        1 U1P      0.109100
     19 O2'         2.9320    6.8940   -1.4150 oh        1 U1P     -0.626800
     20 O4'         2.7170    4.1340   -3.1390 os        1 U1P     -0.457600
     21 C1'         2.2460    5.4660   -3.2020 c3        1 U1P      0.271500
     22 C7          3.0110    5.0560   -5.8570 ce        1 U1P      0.483500
     23 N8          3.6800    5.6650   -6.7540 n2        1 U1P     -0.764100
     24 HN3        -2.1040    5.4000   -4.7150 hn        1 U1P      0.342500
     25 H5          0.9700    4.9070   -7.5900 ha        1 U1P      0.161000
     26 H5'         0.6910    2.4540   -1.5890 h1        1 U1P      0.001200
     27 H5'A        1.8010    1.9000   -2.9440 h1        1 U1P      0.001200
     28 H4'         3.6270    3.3400   -1.4790 h1        1 U1P      0.078700
     29 H3'         0.9190    4.3640   -0.5860 h1        1 U1P      0.115700
     30 HO3'        2.5940    4.1110    0.8310 ho        1 U1P      0.521000
     31 H2'         0.9640    6.4950   -1.6520 h1        1 U1P      0.101700
     32 HO2'        3.5880    6.4520   -0.8570 ho        1 U1P      0.433000
     33 H1'         3.0920    6.0960   -3.6230 h2        1 U1P      0.063700
     34 H7          3.5150    4.2710   -5.2440 h4        1 U1P      0.081800
     35 HN8         3.1950    6.3650   -7.2770 hn        1 U1P      0.374400
@<TRIPOS>BOND
     1    1    2 1   
     2    2    3 1   
     3    2    4 1   
     4    2   13 1   
     5    5    6 1   
     6    5   11 1   
     7    5   21 1   
     8    6    7 2   
     9    6    8 1   
    10    8    9 1   
    11    8   24 1   
    12    9   10 2   
    13    9   12 1   
    14   11   12 2   
    15   11   22 1   
    16   12   25 1   
    17   13   14 1   
    18   14   15 1   
    19   14   26 1   
    20   14   27 1   
    21   15   16 1   
    22   15   20 1   
    23   15   28 1   
    24   16   17 1   
    25   16   18 1   
    26   16   29 1   
    27   17   30 1   
    28   18   19 1   
    29   18   21 1   
    30   18   31 1   
    31   19   32 1   
    32   20   21 1   
    33   21   33 1   
    34   22   23 2   
    35   22   34 1   
    36   23   35 1   
@<TRIPOS>SUBSTRUCTURE
     1 U1P         1 TEMP              0 ****  ****    0 ROOT
