@<TRIPOS>MOLECULE
U1P
   35    36     1     0     0
SMALL
bcc


@<TRIPOS>ATOM
      1 O1P         0.1910    0.5740   -0.1380 o         1 U1P     -0.929833
      2 P           1.5490    0.9910    0.3430 p5        1 U1P      1.336900
      3 O2P         1.6150    2.4120    0.8710 o         1 U1P     -0.929833
      4 O3P         2.4040   -0.0210    1.0380 o         1 U1P     -0.929833
      5 N1          1.1580    5.6000   -4.1900 n         1 U1P     -0.346000
      6 C2         -0.2330    5.6020   -3.8930 c         1 U1P      0.811500
      7 O2         -0.7040    5.8290   -2.7610 o         1 U1P     -0.615500
      8 N3         -1.1630    5.4420   -4.9480 n         1 U1P     -0.590500
      9 C4         -0.7880    5.2510   -6.2790 c         1 U1P      0.722700
     10 O4         -1.6680    5.1350   -7.1580 o         1 U1P     -0.665500
     11 C6          1.5420    5.3380   -5.5040 cc        1 U1P      0.009000
     12 C5          0.6500    5.2230   -6.5330 cd        1 U1P     -0.351200
     13 O5'         2.3890    1.2640   -1.1640 os        1 U1P     -0.557200
     14 C5'         1.8080    2.2200   -1.9490 c3        1 U1P      0.235400
     15 C4'         2.5920    3.5510   -1.8360 c3        1 U1P      0.062100
     16 C3'         1.9500    4.5850   -0.8940 c3        1 U1P      0.140100
     17 O3'         2.7470    4.7900    0.2480 oh        1 U1P     -0.690800
     18 C2'         1.8990    5.9090   -1.6940 c3        1 U1P      0.109100
     19 O2'         2.8730    6.8650   -1.3220 oh        1 U1P     -0.626800
     20 O4'         2.7210    4.1650   -3.1460 os        1 U1P     -0.457600
     21 C1'         2.2220    5.4880   -3.1620 c3        1 U1P      0.271500
     22 C7          2.9990    5.1920   -5.8270 ce        1 U1P      0.483500
     23 N8          3.6580    5.8480   -6.6990 n2        1 U1P     -0.764100
     24 HN3        -2.1230    5.3860   -4.6870 hn        1 U1P      0.342500
     25 H5          0.9650    5.0650   -7.5700 ha        1 U1P      0.161000
     26 H5'         0.7310    2.3850   -1.6600 h1        1 U1P      0.001200
     27 H5'A        1.8540    1.9050   -3.0340 h1        1 U1P      0.001200
     28 H4'         3.6470    3.3310   -1.5140 h1        1 U1P      0.078700
     29 H3'         0.9160    4.2620   -0.5890 h1        1 U1P      0.115700
     30 HO3'        2.5960    3.9950    0.8210 ho        1 U1P      0.521000
     31 H2'         0.9150    6.4310   -1.5780 h1        1 U1P      0.101700
     32 HO2'        3.5380    6.4180   -0.7790 ho        1 U1P      0.433000
     33 H1'         3.0550    6.1510   -3.5570 h2        1 U1P      0.063700
     34 H7          3.5190    4.3960   -5.2420 h4        1 U1P      0.081800
     35 HN8         3.1580    6.5560   -7.1980 hn        1 U1P      0.374400
@<TRIPOS>BOND
     1    1    2 1   
     2    2    3 1   
     3    2    4 1   
     4    2   13 1   
     5    5    6 1   
     6    5   11 1   
     7    5   21 1   
     8    6    7 2   
     9    6    8 1   
    10    8    9 1   
    11    8   24 1   
    12    9   10 2   
    13    9   12 1   
    14   11   12 2   
    15   11   22 1   
    16   12   25 1   
    17   13   14 1   
    18   14   15 1   
    19   14   26 1   
    20   14   27 1   
    21   15   16 1   
    22   15   20 1   
    23   15   28 1   
    24   16   17 1   
    25   16   18 1   
    26   16   29 1   
    27   17   30 1   
    28   18   19 1   
    29   18   21 1   
    30   18   31 1   
    31   19   32 1   
    32   20   21 1   
    33   21   33 1   
    34   22   23 2   
    35   22   34 1   
    36   23   35 1   
@<TRIPOS>SUBSTRUCTURE
     1 U1P         1 TEMP              0 ****  ****    0 ROOT
