@<TRIPOS>MOLECULE
U1P
   35    34     1     0     0
SMALL
bcc


@<TRIPOS>ATOM
      1 O1P        -2.9670   -2.2450    3.5920 o         1 U1P     -1.259500
      2 P          -1.4530   -2.1990    3.6040 p3        1 U1P      2.529000
      3 O2P        -0.9610   -2.2170    5.0300 os        1 U1P     -1.229000
      4 O3P        -0.9040   -3.4070    2.8620 o         1 U1P     -1.259500
      5 N1          0.9150    0.4760   -0.9290 n         1 U1P     -0.239000
      6 C2          0.4570   -0.2910   -2.0700 c2        1 U1P      0.402000
      7 O2         -0.6200   -0.0300   -2.5880 o         1 U1P     -0.340000
      8 N3          1.2700   -1.4090   -2.5810 n         1 U1P     -0.370000
      9 C4          2.5990   -1.5930   -2.1110 c2        1 U1P      0.361000
     10 O4          3.3080   -2.4290   -2.6170 o         1 U1P     -0.390000
     11 C6          2.2600    0.3030   -0.4420 c2        1 U1P      0.093000
     12 C5          3.1110   -0.7560   -1.0100 c2        1 U1P     -0.332000
     13 O5'        -0.9600   -0.8750    2.8920 os        1 U1P     -0.719000
     14 C5'        -1.0150   -0.8050    1.4450 c3        1 U1P      0.085000
     15 C4'        -1.3360    0.4780    1.0590 c3        1 U1P     -0.049000
     16 C3'        -2.0180    0.4650   -0.3200 c3        1 U1P      0.029000
     17 O3'        -3.4480    0.8150   -0.1880 oh        1 U1P     -0.418000
     18 C2'        -1.3800    1.3930   -1.0280 c3        1 U1P     -0.002000
     19 O2'        -2.0570    2.6640   -0.9050 oh        1 U1P     -0.354000
     20 O4'        -0.0270    1.3420    0.8840 os        1 U1P     -0.314000
     21 C1'         0.1060    1.4920   -0.4040 c3        1 U1P      0.123000
     22 C7          2.8380    1.2840    0.5520 c2        1 U1P     -0.020000
     23 N8          3.6470    2.2220    0.1470 n1        1 U1P     -0.232000
     24 HN3         0.8950   -2.0280   -3.1410 hn        1 U1P      0.256000
     25 H5          4.0250   -0.8800   -0.6830 ha        1 U1P      0.161000
     26 H5'        -0.1480   -1.0480    1.0750 h1        1 U1P      0.040500
     27 H5'A       -1.6940   -1.4230    1.1140 h1        1 U1P      0.040500
     28 H4'        -1.9260    0.8920    1.7220 h1        1 U1P      0.118000
     29 H3'        -1.9180   -0.4130   -0.7410 h1        1 U1P      0.155000
     30 HO3'       -3.9240    0.2770   -0.6800 ho        1 U1P      0.320000
     31 H2'        -1.3330    1.1270   -1.9630 h1        1 U1P      0.141000
     32 HO2'       -2.3140    2.9380   -1.7030 ho        1 U1P      0.232000
     33 H1'         0.4970    2.3720   -0.6020 h2        1 U1P      0.103000
     34 H7          2.6090    1.2160    1.4830 h4        1 U1P      0.211000
     35 HN8         3.8680    2.2880   -0.7540 DU        1 U1P      0.130000
@<TRIPOS>BOND
     1    1    2 1   
     2    2    4 1   
     3    2   13 1   
     4    5    6 1   
     5    5   11 1   
     6    5   21 1   
     7    6    7 1   
     8    6    8 1   
     9    8    9 1   
    10    8   24 1   
    11    9   10 1   
    12    9   12 1   
    13   11   12 1   
    14   11   22 1   
    15   12   25 1   
    16   13   14 1   
    17   14   15 1   
    18   14   26 1   
    19   14   27 1   
    20   15   16 1   
    21   15   20 1   
    22   15   28 1   
    23   16   17 1   
    24   16   18 1   
    25   16   29 1   
    26   17   30 1   
    27   18   19 1   
    28   18   21 1   
    29   18   31 1   
    30   19   32 1   
    31   20   21 1   
    32   21   33 1   
    33   22   23 1   
    34   22   34 1   
@<TRIPOS>SUBSTRUCTURE
     1 U1P         1 TEMP              0 ****  ****    0 ROOT
