@<TRIPOS>MOLECULE
U1P
   35    36     1     0     0
SMALL
bcc


@<TRIPOS>ATOM
      1 O1P        -3.9730    1.2990    0.7950 o         1 U1P     -0.929833
      2 P          -4.0960   -0.0610    0.1780 p5        1 U1P      1.336900
      3 O2P        -3.5120   -1.1850    1.0140 o         1 U1P     -0.929833
      4 O3P        -5.3310   -0.3820   -0.6040 o         1 U1P     -0.929833
      5 N1          2.3950   -0.2550    0.3190 n         1 U1P     -0.351000
      6 C2          2.3870    0.4370    1.5590 c         1 U1P      0.815500
      7 O2          1.8150    0.0250    2.5880 o         1 U1P     -0.626500
      8 N3          3.1430    1.6260    1.6880 n         1 U1P     -0.592500
      9 C4          3.8900    2.1820    0.6460 c         1 U1P      0.721700
     10 O4          4.5450    3.2250    0.8490 o         1 U1P     -0.668500
     11 C6          3.0800    0.3310   -0.7480 cc        1 U1P      0.064000
     12 C5          3.8410    1.4580   -0.6210 cd        1 U1P     -0.336200
     13 O5'        -2.8490   -0.0100   -1.0450 os        1 U1P     -0.558200
     14 C5'        -1.5960    0.1890   -0.5350 c3        1 U1P      0.236400
     15 C4'        -0.8210   -1.1510   -0.4870 c3        1 U1P      0.062100
     16 C3'        -0.7410   -1.7900    0.9100 c3        1 U1P      0.140100
     17 O3'        -1.4840   -2.9840    0.9640 oh        1 U1P     -0.690800
     18 C2'         0.7520   -2.1410    1.1250 c3        1 U1P      0.108100
     19 O2'         1.0620   -3.5130    0.9740 oh        1 U1P     -0.625800
     20 O4'         0.5350   -0.9560   -0.9630 os        1 U1P     -0.463600
     21 C1'         1.5000   -1.3870   -0.0180 c3        1 U1P      0.274500
     22 C7          2.9480   -0.2850   -2.1060 ce        1 U1P      0.473500
     23 N8          3.9480   -0.8060   -2.7100 n2        1 U1P     -0.772100
     24 HN3         3.0710    2.1030    2.5600 hn        1 U1P      0.340500
     25 H5          4.4230    1.8680   -1.4530 ha        1 U1P      0.166000
     26 H5'        -1.0120    0.8790   -1.2140 h1        1 U1P     -0.000300
     27 H5'A       -1.6430    0.6400    0.4960 h1        1 U1P     -0.000300
     28 H4'        -1.2840   -1.8700   -1.2180 h1        1 U1P      0.077700
     29 H3'        -1.1040   -1.0750    1.6980 h1        1 U1P      0.110700
     30 HO3'       -2.4350   -2.7030    0.9900 ho        1 U1P      0.522000
     31 H2'         1.1000   -1.8730    2.1540 h1        1 U1P      0.105700
     32 HO2'        0.3130   -3.9430    0.5380 ho        1 U1P      0.431000
     33 H1'         2.1800   -2.1180   -0.5580 h2        1 U1P      0.064700
     34 H7          1.9030   -0.2110   -2.4970 h4        1 U1P      0.040800
     35 HN8         3.7400   -1.1630   -3.6210 hn        1 U1P      0.382400
@<TRIPOS>BOND
     1    1    2 1   
     2    2    3 1   
     3    2    4 1   
     4    2   13 1   
     5    5    6 1   
     6    5   11 1   
     7    5   21 1   
     8    6    7 2   
     9    6    8 1   
    10    8    9 1   
    11    8   24 1   
    12    9   10 2   
    13    9   12 1   
    14   11   12 2   
    15   11   22 1   
    16   12   25 1   
    17   13   14 1   
    18   14   15 1   
    19   14   26 1   
    20   14   27 1   
    21   15   16 1   
    22   15   20 1   
    23   15   28 1   
    24   16   17 1   
    25   16   18 1   
    26   16   29 1   
    27   17   30 1   
    28   18   19 1   
    29   18   21 1   
    30   18   31 1   
    31   19   32 1   
    32   20   21 1   
    33   21   33 1   
    34   22   23 2   
    35   22   34 1   
    36   23   35 1   
@<TRIPOS>SUBSTRUCTURE
     1 U1P         1 TEMP              0 ****  ****    0 ROOT
