@<TRIPOS>MOLECULE
U1S
   52    46     1     0     0
SMALL
bcc


@<TRIPOS>ATOM
      1 C4          0.1810   -1.7580    0.9150 c2        1 U1S      0.400000
      2 C5          0.2150   -2.6090    2.1110 c2        1 U1S     -0.567000
      3 C6          0.7130   -3.8160    2.2580 c1        1 U1S      0.291000
      4 N1          1.6970   -0.3670    3.2050 n         1 U1S     -0.179000
      5 N3          0.5500   -0.4100    0.9990 n         1 U1S     -0.376000
      6 CAV         0.5520   -5.9810    4.9200 c3        1 U1S     -0.236000
      7 CAK         3.7970   -3.0680    7.3300 c2        1 U1S     -0.312000
      8 CAM         2.4790   -3.1420    7.0260 c2        1 U1S      0.034000
      9 CAJ         0.3040   -3.7300    8.0150 c1        1 U1S     -0.159000
     10 CAL        -0.9790   -3.5600    8.1100 c2        1 U1S     -0.179000
     11 NBA         1.9290   -2.5850    5.8610 n3        1 U1S     -0.347000
     12 C4'        -1.9020   -1.3020    5.5480 c3        1 U1S     -0.085000
     13 O4'        -1.0500   -2.2740    4.9780 oh        1 U1S     -0.383000
     14 C3'         0.1080    1.5270    5.2530 c1        1 U1S      0.034000
     15 O3'        -0.2110    2.0370    6.3900 oh        1 U1S     -0.151000
     16 C2'         1.5720    1.4990    4.8630 c3        1 U1S     -0.136000
     17 O2'         2.3820    1.8720    5.9750 oh        1 U1S     -0.341000
     18 C1'         1.9340    0.1350    4.3880 c1        1 U1S     -0.093000
     19 O4         -0.1890   -2.1780   -0.1930 o         1 U1S     -0.306000
     20 C2          1.1230    0.3040    2.0590 c2        1 U1S      0.348000
     21 O2          1.1790    1.5460    1.9670 o         1 U1S     -0.327000
     22 H5         -0.3520   -2.2150    3.0010 ha        1 U1S      0.266000
     23 H6          1.9440   -1.3340    3.0770 hn        1 U1S      0.273000
     24 HN3         0.3410    0.1490    0.1900 hn        1 U1S      0.268000
     25 C15        -5.3910   -7.6650    5.6480 c1        1 U1S     -0.228500
     26 HAV         0.7410   -5.5130    3.9180 hc        1 U1S      0.131667
     27 HAK         4.2100   -3.5880    8.2000 ha        1 U1S      0.118500
     28 HAKA        4.5160   -2.5000    6.7310 ha        1 U1S      0.118500
     29 HAM         0.9450   -2.4150    5.9210 hn        1 U1S      0.194000
     30 HAMA        2.4300   -1.7840    5.5290 hn        1 U1S      0.194000
     31 HAJ         0.9580   -5.3040    5.7160 hc        1 U1S      0.131667
     32 HAJA        1.0680   -6.9700    4.9650 hc        1 U1S      0.131667
     33 HAL        -1.4310   -2.8610    8.8290 ha        1 U1S      0.141500
     34 HALA       -1.6880   -4.1090    7.4660 ha        1 U1S      0.141500
     35 H4'        -1.4140   -0.3130    5.3380 h1        1 U1S      0.079000
     36 H3'        -2.9150   -1.3440    5.0740 h1        1 U1S      0.079000
     37 HO3'        0.5340    2.3660    6.9480 ho        1 U1S      0.198000
     38 H2'         1.7320    2.3120    4.0880 h1        1 U1S      0.176000
     39 HO2'        2.8080    1.0750    6.3180 ho        1 U1S      0.227000
     40 H1'        -1.3950   -3.1460    5.2270 ho        1 U1S      0.230000
     41 C16        -4.6510   -6.7270    5.6170 c1        1 U1S     -0.228500
     42 H21        -6.0470   -8.4990    5.6760 ha        1 U1S      0.228500
     43 H22        -3.3770   -3.5750    6.1310 ha        1 U1S      0.003000
     44 H23        -3.5820   -3.6700    5.4920 ha        1 U1S      0.003000
     45 H24        -3.9990   -5.8830    5.5900 ha        1 U1S      0.228500
     46 H25        -2.3290   -7.4380    5.1730 ho        1 U1S      0.250000
     47 C5'         1.5930   -3.9150    7.9160 c2        1 U1S     -0.103000
     48 C17        -0.9110   -6.1360    5.1120 c2        1 U1S      0.327000
     49 H5'        -1.9980   -1.4650    6.6520 h1        1 U1S      0.079000
     50 H5'A        2.0990   -4.6750    8.5370 ha        1 U1S      0.150000
     51 O6         -1.3630   -7.4150    5.0460 oh        1 U1S     -0.308000
     52 O7         -1.7670   -5.2620    5.3230 o         1 U1S     -0.426000
@<TRIPOS>BOND
     1    1    2 1   
     2    1    5 1   
     3    1   19 1   
     4    2    3 1   
     5    2   22 1   
     6    4   18 1   
     7    4   20 1   
     8    4   23 1   
     9    5   20 1   
    10    5   24 1   
    11    6   26 1   
    12    6   31 1   
    13    6   32 1   
    14    6   48 1   
    15    7    8 1   
    16    7   27 1   
    17    7   28 1   
    18    8   11 1   
    19    8   47 1   
    20    9   10 1   
    21    9   47 1   
    22   10   33 1   
    23   10   34 1   
    24   11   29 1   
    25   11   30 1   
    26   12   13 1   
    27   12   35 1   
    28   12   36 1   
    29   12   49 1   
    30   13   40 1   
    31   14   15 1   
    32   14   16 1   
    33   15   37 1   
    34   16   17 1   
    35   16   18 1   
    36   16   38 1   
    37   17   39 1   
    38   20   21 1   
    39   25   41 1   
    40   25   42 1   
    41   41   45 1   
    42   43   44 1   
    43   46   51 1   
    44   47   50 1   
    45   48   51 1   
    46   48   52 1   
@<TRIPOS>SUBSTRUCTURE
     1 U1S         1 TEMP              0 ****  ****    0 ROOT
