@<TRIPOS>MOLECULE
U1S
   52    51     1     0     0
SMALL
bcc


@<TRIPOS>ATOM
      1 C4         -1.3670    1.0160    1.2810 c2        1 U1S      0.344000
      2 C5          0.0070    1.2700    0.8470 c2        1 U1S     -0.349000
      3 C6          1.0560    0.5560    1.2880 c1        1 U1S     -0.259000
      4 N1          0.9190   -0.5160    2.2370 nx        1 U1S      0.079000
      5 N3         -1.5530   -0.1070    2.1400 ns        1 U1S     -0.373000
      6 CAV        -0.5060   -5.2360    7.1810 c3        1 U1S     -0.094000
      7 CAK         0.4440   -5.3150    8.3740 c3        1 U1S     -0.252000
      8 CAM         0.7580   -4.0290    8.9400 c1        1 U1S     -0.085000
      9 CAJ         0.1190   -4.6590    5.9190 c3        1 U1S     -0.184000
     10 CAL         0.2380   -3.1700    5.8540 c2        1 U1S      0.071000
     11 NBA         0.4000   -2.3960    6.8840 n7        1 U1S     -0.165000
     12 C4'         0.3930   -0.3130    5.4420 c3        1 U1S     -0.130000
     13 O4'         1.3340   -0.9630    4.5610 os        1 U1S     -0.212000
     14 C3'         2.9310    1.1990    5.0280 c1        1 U1S      0.009000
     15 O3'         4.2140    1.2140    5.1440 oh        1 U1S     -0.165000
     16 C2'         2.3150    1.0940    3.6520 c3        1 U1S     -0.032000
     17 O2'         3.3370    1.3980    2.7120 oh        1 U1S     -0.382000
     18 C1'         1.7750   -0.3060    3.4570 c2        1 U1S     -0.310000
     19 O4         -2.3840    1.6610    0.9790 o         1 U1S     -0.357000
     20 C2         -0.5120   -0.9350    2.5260 c2        1 U1S      0.263000
     21 O2         -0.7660   -2.0220    3.0990 o         1 U1S     -0.425000
     22 H5          0.1380    2.0920    0.1320 ha        1 U1S      0.170000
     23 H6          1.3550   -1.3490    1.8190 hn        1 U1S      0.257000
     24 HN3        -2.4810   -0.3810    2.3800 hn        1 U1S      0.233000
     25 C15        -3.5450   -7.6880    4.4990 c3        1 U1S     -0.223000
     26 HAV        -0.5140   -4.9680    5.0350 hc        1 U1S      0.150000
     27 HAK         0.0210   -6.0410    9.1330 hc        1 U1S      0.168500
     28 HAKA        1.4280   -5.7840    8.0500 hc        1 U1S      0.168500
     29 HAM         1.2640   -3.9770    9.9100 ha        1 U1S      0.109000
     30 HAMA        0.5020   -2.8500    7.8750 hn        1 U1S      0.320000
     31 HAJ        -1.4000   -4.6090    7.4680 hc        1 U1S      0.136000
     32 HAJA        1.1470   -5.0880    5.7570 hc        1 U1S      0.150000
     33 HAL        -1.0630   -3.6710   10.1670 ha        1 U1S      0.016500
     34 HALA       -1.2430   -3.4090    9.5620 ha        1 U1S      0.016500
     35 H4'         1.6140   -0.7300    7.1790 h1        1 U1S      0.125500
     36 H3'         0.6210    0.7800    5.5340 h1        1 U1S      0.101500
     37 HO3'        4.7260    1.1360    4.3070 ho        1 U1S      0.198000
     38 H2'         1.5160    1.8920    3.5730 h1        1 U1S      0.083000
     39 HO2'        3.0490    1.0740    1.8410 ho        1 U1S      0.262000
     40 H1'         0.2050   -2.7400    4.8090 h4        1 U1S      0.263000
     41 C16        -2.5380   -7.9400    5.5930 c3        1 U1S     -0.010000
     42 H21        -4.3460   -6.9970    4.8520 hc        1 U1S      0.095000
     43 H22        -4.0050   -8.6620    4.2030 hc        1 U1S      0.095000
     44 H23        -3.0530   -7.2300    3.6080 hc        1 U1S      0.095000
     45 H24        -1.7040   -8.6100    5.2580 h1        1 U1S      0.097000
     46 H25        -3.0100   -8.3690    6.5150 h1        1 U1S      0.097000
     47 C5'         0.5670   -0.9540    6.8160 c3        1 U1S     -0.074000
     48 C17        -1.0240   -6.6280    6.8910 c2        1 U1S      0.295000
     49 H5'        -0.1780   -0.5050    7.5340 h1        1 U1S      0.125500
     50 H5'A       -0.6450   -0.4630    5.0480 h1        1 U1S      0.101500
     51 O6         -1.9810   -6.6480    5.9260 os        1 U1S     -0.271000
     52 O7         -0.6900   -7.6810    7.4370 o         1 U1S     -0.345000
@<TRIPOS>BOND
     1    1    2 1   
     2    1    5 1   
     3    1   19 1   
     4    2    3 1   
     5    2   22 1   
     6    3    4 1   
     7    4   18 1   
     8    4   20 1   
     9    4   23 1   
    10    5   20 1   
    11    5   24 1   
    12    6    7 1   
    13    6    9 1   
    14    6   31 1   
    15    6   48 1   
    16    7    8 1   
    17    7   27 1   
    18    7   28 1   
    19    8   29 1   
    20    9   10 1   
    21    9   26 1   
    22    9   32 1   
    23   10   11 1   
    24   10   40 1   
    25   11   30 1   
    26   11   47 1   
    27   12   13 1   
    28   12   36 1   
    29   12   47 1   
    30   12   50 1   
    31   13   18 1   
    32   14   15 1   
    33   14   16 1   
    34   15   37 1   
    35   16   17 1   
    36   16   18 1   
    37   16   38 1   
    38   17   39 1   
    39   20   21 1   
    40   25   41 1   
    41   25   42 1   
    42   25   43 1   
    43   25   44 1   
    44   33   34 1   
    45   35   47 1   
    46   41   45 1   
    47   41   46 1   
    48   41   51 1   
    49   47   49 1   
    50   48   51 1   
    51   48   52 1   
@<TRIPOS>SUBSTRUCTURE
     1 U1S         1 TEMP              0 ****  ****    0 ROOT
