@<TRIPOS>MOLECULE
U1S
   52    46     1     0     0
SMALL
bcc


@<TRIPOS>ATOM
      1 C4         -1.0770   -1.5770    1.8970 c2        1 U1S      0.396000
      2 C5         -0.6470   -2.2350    3.1420 c2        1 U1S     -0.543000
      3 C6          0.1280   -3.2850    3.2930 c1        1 U1S      0.274000
      4 N1          0.9650    0.1990    3.4440 n         1 U1S     -0.185000
      5 N3         -0.4450   -0.4060    1.4690 n         1 U1S     -0.376000
      6 CAV         1.1330   -5.6870    5.6490 c2        1 U1S     -0.373000
      7 CAK         1.4280   -5.4280    7.0860 c3        1 U1S      0.035000
      8 CAM         1.7300   -4.0150    7.3590 c2        1 U1S     -0.765000
      9 CAJ        -2.9270   -4.1650    6.9690 c1        1 U1S     -0.233750
     10 CAL        -1.7820   -3.9730    7.2600 c1        1 U1S     -0.233750
     11 NBA         2.8520   -3.4230    6.7060 n4        1 U1S      0.139000
     12 C4'         1.4030   -1.3410    6.5850 c3        1 U1S     -0.010000
     13 O4'         0.6260   -2.0150    5.6220 oh        1 U1S     -0.392000
     14 C3'         0.4320    3.2640    4.1820 c1        1 U1S     -0.017000
     15 O3'         0.5300    4.2160    5.0850 oh        1 U1S     -0.213000
     16 C2'         1.7310    2.5310    3.9660 c3        1 U1S     -0.092000
     17 O2'         2.8320    2.9970    4.7280 oh        1 U1S     -0.307000
     18 C1'         1.5040    1.0790    4.2460 c1        1 U1S     -0.095000
     19 O4         -1.9810   -2.0360    1.1830 o         1 U1S     -0.299000
     20 C2          0.5150    0.4110    2.0860 c2        1 U1S      0.344000
     21 O2          0.9770    1.3500    1.4080 o         1 U1S     -0.329000
     22 H5         -1.1080   -1.8150    4.0730 ha        1 U1S      0.250000
     23 H6          0.8550   -0.7290    3.8220 hn        1 U1S      0.282000
     24 HN3        -0.7430   -0.0660    0.5700 hn        1 U1S      0.266000
     25 C15        -3.5010   -8.5350    4.4420 c1        1 U1S     -0.233750
     26 HAV        -4.4350   -6.8610    6.2220 ho        1 U1S      0.198000
     27 HAK         0.5270   -5.7000    7.7040 hc        1 U1S      0.056000
     28 HAKA        2.2650   -6.1150    7.4110 hc        1 U1S      0.056000
     29 HAM         3.7600   -3.7210    7.0940 hn        1 U1S      0.169500
     30 HAMA        2.8290   -3.7290    5.7280 hn        1 U1S      0.169500
     31 HAJ         0.8870   -4.8240    5.0050 ha        1 U1S      0.182000
     32 HAJA       -3.9440   -4.3500    6.7070 ha        1 U1S      0.232250
     33 HAL        -0.7560   -3.8270    7.5130 ha        1 U1S      0.232250
     34 HALA        1.5030   -3.6070    8.3450 hx        1 U1S      0.131000
     35 H4'         3.4770   -1.5550    5.9200 hx        1 U1S      0.110500
     36 H3'         1.5010   -0.2840    6.2020 h1        1 U1S      0.115000
     37 HO3'       -0.3400    4.6560    5.1460 ho        1 U1S      0.259000
     38 H2'         2.0360    2.7430    2.8900 h1        1 U1S      0.183000
     39 HO2'        2.6590    2.7760    5.6510 ho        1 U1S      0.206000
     40 H1'         0.3960   -2.8880    5.9990 ho        1 U1S      0.256000
     41 C16        -2.3090   -8.6350    4.4220 c1        1 U1S     -0.233750
     42 H21        -4.5610   -8.4630    4.4490 ha        1 U1S      0.232250
     43 H22        -6.0500   -4.1310    5.5420 ha        1 U1S      0.002000
     44 H23        -5.6150   -3.9480    5.0560 ha        1 U1S      0.002000
     45 H24        -1.2480   -8.7170    4.4090 ha        1 U1S      0.232250
     46 H25        -4.4330   -6.1010    4.9150 ho        1 U1S      0.198000
     47 C5'         2.8100   -1.9360    6.7420 c3        1 U1S     -0.148000
     48 C17         1.0610   -6.8910    5.1350 c1        1 U1S      0.236000
     49 H5'         3.2240   -1.5970    7.7320 hx        1 U1S      0.110500
     50 H5'A        0.8810   -1.3560    7.5780 h1        1 U1S      0.115000
     51 O6         -4.9180   -6.1800    5.7430 oh        1 U1S     -0.399000
     52 O7          1.0050   -7.9810    4.6460 o         1 U1S     -0.190000
@<TRIPOS>BOND
     1    1    2 1   
     2    1    5 1   
     3    1   19 1   
     4    2    3 1   
     5    2   22 1   
     6    4   18 1   
     7    4   20 1   
     8    4   23 1   
     9    5   20 1   
    10    5   24 1   
    11    6    7 1   
    12    6   31 1   
    13    6   48 1   
    14    7    8 1   
    15    7   27 1   
    16    7   28 1   
    17    8   11 1   
    18    8   34 1   
    19    9   10 1   
    20    9   32 1   
    21   10   33 1   
    22   11   29 1   
    23   11   30 1   
    24   11   47 1   
    25   12   13 1   
    26   12   36 1   
    27   12   47 1   
    28   12   50 1   
    29   13   40 1   
    30   14   15 1   
    31   14   16 1   
    32   15   37 1   
    33   16   17 1   
    34   16   18 1   
    35   16   38 1   
    36   17   39 1   
    37   20   21 1   
    38   25   41 1   
    39   25   42 1   
    40   26   51 1   
    41   35   47 1   
    42   41   45 1   
    43   43   44 1   
    44   46   51 1   
    45   47   49 1   
    46   48   52 1   
@<TRIPOS>SUBSTRUCTURE
     1 U1S         1 TEMP              0 ****  ****    0 ROOT
