@<TRIPOS>MOLECULE
U1S
   52    54     1     0     0
SMALL
bcc


@<TRIPOS>ATOM
      1 C4         -4.6790   -3.0070   -0.8670 c         1 U1S      0.714700
      2 C5         -4.7410   -2.1050   -2.0230 cc        1 U1S     -0.313200
      3 C6         -4.2940   -0.8280   -1.9270 cd        1 U1S      0.054600
      4 N1         -3.8120   -0.2880   -0.7380 n         1 U1S     -0.383000
      5 N3         -4.1430   -2.4580    0.3110 n         1 U1S     -0.585500
      6 CAV         3.9750    0.1470    0.0870 c3        1 U1S     -0.108700
      7 CAK         3.3580    0.5540   -1.2430 c3        1 U1S     -0.074900
      8 CAM         2.2400    1.5720   -1.0280 c3        1 U1S      0.174800
      9 CAJ         2.8920   -0.3640    1.0260 c3        1 U1S     -0.074900
     10 CAL         1.7920    0.6810    1.1870 c3        1 U1S      0.174800
     11 NBA         1.2300    1.1240   -0.0810 n3        1 U1S     -0.732600
     12 C4'        -1.1900    1.4280    0.4300 c3        1 U1S      0.143100
     13 O4'        -1.7580    0.9250   -0.7940 os        1 U1S     -0.405600
     14 C3'        -2.2040    2.4600    0.9670 c3        1 U1S      0.082100
     15 O3'        -2.1300    2.4450    2.3770 oh        1 U1S     -0.570800
     16 C2'        -3.5640    1.9570    0.4310 c3        1 U1S      0.074100
     17 O2'        -4.3300    3.0100   -0.1240 oh        1 U1S     -0.592800
     18 C1'        -3.1850    1.0290   -0.7660 c3        1 U1S      0.311500
     19 O4         -5.0600   -4.1890   -0.8620 o         1 U1S     -0.606500
     20 C2         -3.6760   -1.1380    0.3980 c         1 U1S      0.808500
     21 O2         -3.1910   -0.7200    1.4710 o         1 U1S     -0.644500
     22 H5         -5.1550   -2.5180   -2.9510 ha        1 U1S      0.180000
     23 H6         -4.3140   -0.1380   -2.7930 h4        1 U1S      0.166000
     24 HN3        -4.0430   -3.0260    1.1250 hn        1 U1S      0.352500
     25 C15         8.5090   -0.9800    0.8450 c3        1 U1S     -0.100100
     26 HAV         4.4820    1.0390    0.5530 hc        1 U1S      0.079700
     27 HAK         4.1360    1.0160   -1.9030 hc        1 U1S      0.063700
     28 HAKA        2.9570   -0.3570   -1.7600 hc        1 U1S      0.063700
     29 HAM         2.7050    2.5510   -0.7050 h1        1 U1S      0.034950
     30 HAMA        1.7270    1.7450   -2.0170 h1        1 U1S      0.034950
     31 HAJ         2.4640   -1.3170    0.6170 hc        1 U1S      0.063700
     32 HAJA        3.3280   -0.5820    2.0340 hc        1 U1S      0.063700
     33 HAL         0.9550    0.2300    1.7920 h1        1 U1S      0.034950
     34 HALA        2.2100    1.5510    1.7790 h1        1 U1S      0.034950
     35 H4'        -1.0950    0.5730    1.1530 h1        1 U1S      0.103700
     36 H3'        -1.9940    3.4930    0.5770 h1        1 U1S      0.058700
     37 HO3'       -2.8260    3.0310    2.6980 ho        1 U1S      0.402000
     38 H2'        -4.1290    1.4180    1.2370 h1        1 U1S      0.093700
     39 HO2'       -4.7590    3.4610    0.6120 ho        1 U1S      0.411000
     40 H1'        -3.4740    1.5260   -1.7420 h2        1 U1S      0.103700
     41 C16         7.2770   -1.5730    0.2070 c3        1 U1S      0.137400
     42 H21         8.3300   -0.7730    1.9270 hc        1 U1S      0.047367
     43 H22         9.3530   -1.7030    0.7450 hc        1 U1S      0.047367
     44 H23         8.7870   -0.0210    0.3460 hc        1 U1S      0.047367
     45 H24         7.4210   -1.7660   -0.8880 h1        1 U1S      0.051200
     46 H25         6.9610   -2.5260    0.7070 h1        1 U1S      0.051200
     47 C5'         0.1530    2.0850    0.0860 c3        1 U1S      0.180800
     48 C17         5.0030   -0.9290   -0.1370 c         1 U1S      0.633100
     49 H5'         0.3750    2.8250    0.9120 h1        1 U1S      0.046700
     50 H5'A        0.0190    2.6610   -0.8730 h1        1 U1S      0.046700
     51 O6          6.2300   -0.5990    0.3680 os        1 U1S     -0.444900
     52 O7          4.8750   -2.0210   -0.6950 o         1 U1S     -0.539000
@<TRIPOS>BOND
     1    1    2 1   
     2    1    5 1   
     3    1   19 2   
     4    2    3 2   
     5    2   22 1   
     6    3    4 1   
     7    3   23 1   
     8    4   18 1   
     9    4   20 1   
    10    5   20 1   
    11    5   24 1   
    12    6    7 1   
    13    6    9 1   
    14    6   26 1   
    15    6   48 1   
    16    7    8 1   
    17    7   27 1   
    18    7   28 1   
    19    8   11 1   
    20    8   29 1   
    21    8   30 1   
    22    9   10 1   
    23    9   31 1   
    24    9   32 1   
    25   10   11 1   
    26   10   33 1   
    27   10   34 1   
    28   11   47 1   
    29   12   13 1   
    30   12   14 1   
    31   12   35 1   
    32   12   47 1   
    33   13   18 1   
    34   14   15 1   
    35   14   16 1   
    36   14   36 1   
    37   15   37 1   
    38   16   17 1   
    39   16   18 1   
    40   16   38 1   
    41   17   39 1   
    42   18   40 1   
    43   20   21 2   
    44   25   41 1   
    45   25   42 1   
    46   25   43 1   
    47   25   44 1   
    48   41   45 1   
    49   41   46 1   
    50   41   51 1   
    51   47   49 1   
    52   47   50 1   
    53   48   51 1   
    54   48   52 2   
@<TRIPOS>SUBSTRUCTURE
     1 U1S         1 TEMP              0 ****  ****    0 ROOT
