@<TRIPOS>MOLECULE
U1S
   52    52     1     0     0
SMALL
bcc


@<TRIPOS>ATOM
      1 C4         -2.0180    0.8590   -6.7670 c1        1 U1S      0.585500
      2 C5         -0.9250   -0.1240   -6.4790 c1        1 U1S     -0.066000
      3 C6         -0.2170   -0.0720   -5.1960 c1        1 U1S     -0.066000
      4 N1         -0.5850    0.9040   -4.2160 n2        1 U1S     -0.403200
      5 N3         -2.3730    1.8170   -5.8010 n         1 U1S     -0.519500
      6 CAV         0.1250   -0.9180    3.3230 c3        1 U1S     -0.105700
      7 CAK         1.3800   -0.3910    2.6430 c3        1 U1S     -0.109400
      8 CAM         1.2820    1.0930    2.2720 c3        1 U1S      0.157300
      9 CAJ        -1.0820   -0.5570    2.4700 c3        1 U1S     -0.109400
     10 CAL        -1.1330    0.9280    2.1060 c3        1 U1S      0.157300
     11 NBA         0.0990    1.4060    1.5020 n3        1 U1S     -0.716600
     12 C5'         0.2300    0.8610    0.1740 c3        1 U1S      0.157800
     13 C4'        -0.1130    1.9700   -0.8880 c3        1 U1S      0.140100
     14 O4'        -0.8680    1.4840   -1.8070 os        1 U1S     -0.421600
     15 C3'         1.1630    2.4220   -1.6150 c3        1 U1S      0.135100
     16 O3'         1.2050    3.7790   -1.6930 oh        1 U1S     -0.575800
     17 C2'         1.0730    1.8080   -3.0280 c3        1 U1S      0.073100
     18 O2'         2.3560    1.1100   -3.3730 oh        1 U1S     -0.589800
     19 C1'         0.1130    0.9610   -2.9600 c3        1 U1S      0.367300
     20 O4         -2.6370    0.7930   -7.8160 o         1 U1S     -0.562500
     21 C2         -1.6580    1.8650   -4.5020 c2        1 U1S      0.728300
     22 O2         -1.9890    2.6820   -3.6520 o         1 U1S     -0.623300
     23 H5         -0.6790   -0.7820   -7.1410 ha        1 U1S      0.114500
     24 H6          0.4880   -0.7050   -5.0080 ha        1 U1S      0.114500
     25 HN3        -3.0380    2.4140   -5.9760 hn        1 U1S      0.353500
     26 C15        -0.3650   -4.7260    6.5340 c3        1 U1S     -0.100100
     27 HAV         0.0350   -0.5430    4.2430 hc        1 U1S      0.082700
     28 HAK         2.1480   -0.5170    3.2540 hc        1 U1S      0.061200
     29 HAKA        1.5380   -0.9110    1.8250 hc        1 U1S      0.061200
     30 HAM         2.0840    1.3420    1.7420 h1        1 U1S      0.061200
     31 HAMA        1.2710    1.6240    3.0960 h1        1 U1S      0.061200
     32 HAJ        -1.8940   -0.7880    2.9610 hc        1 U1S      0.061200
     33 HAJA       -1.0520   -1.0810    1.6470 hc        1 U1S      0.061200
     34 HAL        -1.3070    1.4480    2.9260 h1        1 U1S      0.061200
     35 HALA       -1.8780    1.0750    1.4700 h1        1 U1S      0.061200
     36 H5'        -0.3870    0.1060    0.0690 h1        1 U1S      0.049700
     37 H5'A        1.1500    0.5530    0.0380 h1        1 U1S      0.049700
     38 H4'        -0.5480    2.7300   -0.4590 h1        1 U1S      0.093700
     39 H3'         1.9500    2.0860   -1.1530 h1        1 U1S      0.082700
     40 HO3'        1.9920    4.0670   -1.4040 ho        1 U1S      0.411000
     41 H2'         0.8720    2.5000   -3.6890 h1        1 U1S      0.097700
     42 HO2'        2.7980    1.5850   -3.9840 ho        1 U1S      0.410000
     43 H1'         0.4630    0.0710   -2.7260 h2        1 U1S      0.089700
     44 C16         0.3490   -4.1760    5.2860 c3        1 U1S      0.137400
     45 O6         -0.2700   -2.9720    4.8810 os        1 U1S     -0.442900
     46 C17         0.2090   -2.4650    3.6320 c         1 U1S      0.632100
     47 O7          0.6210   -3.2340    2.7800 o         1 U1S     -0.543000
     48 H21         0.2260   -5.3850    6.9900 hc        1 U1S      0.047700
     49 H22        -0.5680   -3.9860    7.1490 hc        1 U1S      0.047700
     50 H23        -1.2020   -5.1690    6.2640 hc        1 U1S      0.047700
     51 H24         1.2790   -4.0070    5.4950 h1        1 U1S      0.051200
     52 H25         0.2910   -4.8330    4.5600 h1        1 U1S      0.051200
@<TRIPOS>BOND
     1    1    5 2   
     2    1   20 2   
     3    2    3 3   
     4    2   23 1   
     5    3   24 1   
     6    4   19 1   
     7    4   21 2   
     8    5   21 1   
     9    5   25 1   
    10    6    7 1   
    11    6    9 1   
    12    6   27 1   
    13    6   46 1   
    14    7    8 1   
    15    7   28 1   
    16    7   29 1   
    17    8   11 1   
    18    8   30 1   
    19    8   31 1   
    20    9   10 1   
    21    9   32 1   
    22    9   33 1   
    23   10   11 1   
    24   10   34 1   
    25   10   35 1   
    26   11   12 1   
    27   12   13 1   
    28   12   36 1   
    29   12   37 1   
    30   13   14 1   
    31   13   15 1   
    32   13   38 1   
    33   14   19 1   
    34   15   16 1   
    35   15   17 1   
    36   15   39 1   
    37   16   40 1   
    38   17   18 1   
    39   17   19 1   
    40   17   41 1   
    41   18   42 1   
    42   19   43 1   
    43   21   22 1   
    44   26   44 1   
    45   26   48 1   
    46   26   49 1   
    47   26   50 1   
    48   44   45 1   
    49   44   51 1   
    50   44   52 1   
    51   45   46 1   
    52   46   47 2   
@<TRIPOS>SUBSTRUCTURE
     1 U1S         1 TEMP              0 ****  ****    0 ROOT
