@<TRIPOS>MOLECULE
U1T
   46    49     1     0     0
SMALL
bcc


@<TRIPOS>ATOM
      1 C13         0.0360    0.1800   -0.0580 c3        1 U1T      0.153800
      2 C14         1.4890   -0.3200   -0.1210 c3        1 U1T     -0.097900
      3 C15         1.9450   -0.4750    1.3230 c3        1 U1T     -0.097900
      4 C16         0.7580   -0.0280    2.1920 c3        1 U1T      0.153800
      5 N2         -0.4000    0.2570    1.3410 n3        1 U1T     -0.716600
      6 C12        -1.5630   -0.5760    1.6170 c3        1 U1T      0.205100
      7 C9         -2.1250   -0.3870    2.9960 ca        1 U1T     -0.070300
      8 C10        -2.5060    0.8850    3.4380 ca        1 U1T     -0.118500
      9 C11        -3.0710    1.0520    4.6990 ca        1 U1T     -0.112000
     10 C8         -2.3120   -1.4910    3.8340 ca        1 U1T     -0.118500
     11 C7         -2.8790   -1.3290    5.0960 ca        1 U1T     -0.112000
     12 C6         -3.2620   -0.0550    5.5370 ca        1 U1T     -0.079800
     13 C5         -3.8470    0.1030    6.8800 cc        1 U1T      0.113400
     14 C4         -3.2980   -0.5320    7.9650 cd        1 U1T     -0.206200
     15 C3         -3.8690   -0.3750    9.2750 ca        1 U1T      0.018200
     16 C17        -3.3280   -1.0130   10.4170 ca        1 U1T     -0.090300
     17 C21        -2.1320   -1.8790   10.2990 c3        1 U1T     -0.051800
     18 C18        -3.9300   -0.8170   11.6570 ca        1 U1T     -0.097000
     19 C19        -5.0600   -0.0020   11.7930 ca        1 U1T     -0.152000
     20 C20        -5.5990    0.6290   10.6820 ca        1 U1T     -0.068000
     21 C2         -5.0070    0.4450    9.4240 ca        1 U1T     -0.153600
     22 C1         -5.5900    1.1210    8.2500 c         1 U1T      0.706100
     23 O1         -6.5930    1.8620    8.2870 o         1 U1T     -0.641500
     24 N1         -4.9680    0.9130    7.0130 ns        1 U1T     -0.450100
     25 H131       -0.6300   -0.4800   -0.6770 h1        1 U1T      0.048200
     26 H132       -0.0320    1.2230   -0.4720 h1        1 U1T      0.048200
     27 H141        2.1280    0.4140   -0.6700 hc        1 U1T      0.047450
     28 H142        1.5440   -1.2940   -0.6670 hc        1 U1T      0.047450
     29 H151        2.8410    0.1580    1.5340 hc        1 U1T      0.047450
     30 H152        2.2180   -1.5350    1.5460 hc        1 U1T      0.047450
     31 H161        1.0110    0.9290    2.7250 h1        1 U1T      0.048200
     32 H162        0.5250   -0.8040    2.9710 h1        1 U1T      0.048200
     33 H121       -2.3650   -0.2820    0.8770 h1        1 U1T      0.040700
     34 H122       -1.3450   -1.6750    1.4580 h1        1 U1T      0.040700
     35 H10        -2.3490    1.7580    2.7840 ha        1 U1T      0.144000
     36 H8         -2.0140   -2.4950    3.4970 ha        1 U1T      0.144000
     37 H11        -3.3510    2.0610    5.0390 ha        1 U1T      0.140000
     38 H7         -3.0310   -2.2020    5.7480 ha        1 U1T      0.140000
     39 H4         -2.4070   -1.1620    7.8410 ha        1 U1T      0.151000
     40 H1         -5.3520    1.3500    6.2040 hn        1 U1T      0.334500
     41 H211       -2.3350   -2.7310    9.6030 hc        1 U1T      0.045033
     42 H212       -1.2660   -1.2960    9.8950 hc        1 U1T      0.045033
     43 H213       -1.8370   -2.3000   11.2910 hc        1 U1T      0.045033
     44 H18        -3.5120   -1.3110   12.5490 ha        1 U1T      0.133000
     45 H19        -5.5170    0.1360   12.7840 ha        1 U1T      0.137000
     46 H20        -6.4880    1.2760   10.7650 ha        1 U1T      0.158000
@<TRIPOS>BOND
     1    1    2 1   
     2    1    5 1   
     3    1   25 1   
     4    1   26 1   
     5    2    3 1   
     6    2   27 1   
     7    2   28 1   
     8    3    4 1   
     9    3   29 1   
    10    3   30 1   
    11    4    5 1   
    12    4   31 1   
    13    4   32 1   
    14    5    6 1   
    15    6    7 1   
    16    6   33 1   
    17    6   34 1   
    18    7    8 ar  
    19    7   10 ar  
    20    8    9 ar  
    21    8   35 1   
    22    9   12 ar  
    23    9   37 1   
    24   10   11 ar  
    25   10   36 1   
    26   11   12 ar  
    27   11   38 1   
    28   12   13 1   
    29   13   14 2   
    30   13   24 1   
    31   14   15 1   
    32   14   39 1   
    33   15   16 ar  
    34   15   21 ar  
    35   16   17 1   
    36   16   18 ar  
    37   17   41 1   
    38   17   42 1   
    39   17   43 1   
    40   18   19 ar  
    41   18   44 1   
    42   19   20 ar  
    43   19   45 1   
    44   20   21 ar  
    45   20   46 1   
    46   21   22 1   
    47   22   23 2   
    48   22   24 1   
    49   24   40 1   
@<TRIPOS>SUBSTRUCTURE
     1 U1T         1 TEMP              0 ****  ****    0 ROOT
