@<TRIPOS>MOLECULE
U1T
   46    49     1     0     0
SMALL
bcc


@<TRIPOS>ATOM
      1 C13         0.0310    0.1720   -0.0610 c3        1 U1T      0.153800
      2 C14         1.4820   -0.3310   -0.1260 c3        1 U1T     -0.097900
      3 C15         1.9410   -0.4840    1.3170 c3        1 U1T     -0.097900
      4 C16         0.7560   -0.0350    2.1880 c3        1 U1T      0.153800
      5 N2         -0.4040    0.2500    1.3380 n3        1 U1T     -0.716600
      6 C12        -1.5670   -0.5810    1.6170 c3        1 U1T      0.205100
      7 C9         -2.1270   -0.3890    2.9960 ca        1 U1T     -0.070300
      8 C10        -2.5040    0.8840    3.4380 ca        1 U1T     -0.118500
      9 C11        -3.0670    1.0530    4.7000 ca        1 U1T     -0.112000
     10 C8         -2.3170   -1.4920    3.8350 ca        1 U1T     -0.118500
     11 C7         -2.8820   -1.3270    5.0970 ca        1 U1T     -0.112000
     12 C6         -3.2610   -0.0530    5.5380 ca        1 U1T     -0.079800
     13 C5         -3.8440    0.1080    6.8820 cc        1 U1T      0.113400
     14 C4         -3.2960   -0.5290    7.9670 cd        1 U1T     -0.206200
     15 C3         -3.8650   -0.3700    9.2770 ca        1 U1T      0.018200
     16 C17        -3.3250   -1.0090   10.4190 ca        1 U1T     -0.090300
     17 C21        -2.1320   -1.8790   10.2990 c3        1 U1T     -0.051800
     18 C18        -3.9250   -0.8110   11.6590 ca        1 U1T     -0.097000
     19 C19        -5.0530    0.0080   11.7960 ca        1 U1T     -0.152000
     20 C20        -5.5910    0.6400   10.6860 ca        1 U1T     -0.068000
     21 C2         -5.0000    0.4540    9.4260 ca        1 U1T     -0.153600
     22 C1         -5.5820    1.1320    8.2530 c         1 U1T      0.706100
     23 O1         -6.5820    1.8760    8.2910 o         1 U1T     -0.641500
     24 N1         -4.9620    0.9210    7.0160 n         1 U1T     -0.450100
     25 H131       -0.6370   -0.4880   -0.6790 h1        1 U1T      0.048200
     26 H132       -0.0380    1.2140   -0.4770 h1        1 U1T      0.048200
     27 H141        2.1210    0.4020   -0.6770 hc        1 U1T      0.047450
     28 H142        1.5360   -1.3050   -0.6710 hc        1 U1T      0.047450
     29 H151        2.8370    0.1480    1.5260 hc        1 U1T      0.047450
     30 H152        2.2120   -1.5440    1.5410 hc        1 U1T      0.047450
     31 H161        1.0100    0.9230    2.7200 h1        1 U1T      0.048200
     32 H162        0.5230   -0.8100    2.9680 h1        1 U1T      0.048200
     33 H121       -1.3510   -1.6800    1.4580 h1        1 U1T      0.040700
     34 H122       -2.3690   -0.2860    0.8780 h1        1 U1T      0.040700
     35 H10        -2.3450    1.7560    2.7840 ha        1 U1T      0.144000
     36 H8         -2.0220   -2.4980    3.4980 ha        1 U1T      0.144000
     37 H11        -3.3440    2.0630    5.0390 ha        1 U1T      0.140000
     38 H7         -3.0350   -2.2000    5.7500 ha        1 U1T      0.140000
     39 H4         -2.4070   -1.1610    7.8420 ha        1 U1T      0.151000
     40 H1         -5.3460    1.3600    6.2070 hn        1 U1T      0.334500
     41 H211       -1.8390   -2.3010   11.2920 hc        1 U1T      0.045033
     42 H212       -2.3390   -2.7310    9.6040 hc        1 U1T      0.045033
     43 H213       -1.2650   -1.2990    9.8950 hc        1 U1T      0.045033
     44 H18        -3.5090   -1.3060   12.5510 ha        1 U1T      0.133000
     45 H19        -5.5080    0.1480   12.7870 ha        1 U1T      0.137000
     46 H20        -6.4780    1.2900   10.7690 ha        1 U1T      0.158000
@<TRIPOS>BOND
     1    1    2 1   
     2    1    5 1   
     3    1   25 1   
     4    1   26 1   
     5    2    3 1   
     6    2   27 1   
     7    2   28 1   
     8    3    4 1   
     9    3   29 1   
    10    3   30 1   
    11    4    5 1   
    12    4   31 1   
    13    4   32 1   
    14    5    6 1   
    15    6    7 1   
    16    6   33 1   
    17    6   34 1   
    18    7    8 ar  
    19    7   10 ar  
    20    8    9 ar  
    21    8   35 1   
    22    9   12 ar  
    23    9   37 1   
    24   10   11 ar  
    25   10   36 1   
    26   11   12 ar  
    27   11   38 1   
    28   12   13 1   
    29   13   14 2   
    30   13   24 1   
    31   14   15 1   
    32   14   39 1   
    33   15   16 ar  
    34   15   21 ar  
    35   16   17 1   
    36   16   18 ar  
    37   17   41 1   
    38   17   42 1   
    39   17   43 1   
    40   18   19 ar  
    41   18   44 1   
    42   19   20 ar  
    43   19   45 1   
    44   20   21 ar  
    45   20   46 1   
    46   21   22 1   
    47   22   23 2   
    48   22   24 1   
    49   24   40 1   
@<TRIPOS>SUBSTRUCTURE
     1 U1T         1 TEMP              0 ****  ****    0 ROOT
