@<TRIPOS>MOLECULE
U25
   32    33     1     0     0
SMALL
bcc


@<TRIPOS>ATOM
      1 OP3        -4.6910    2.4440    0.7150 o         1 U25     -0.921833
      2 P          -3.1550    2.3950    0.7090 p5        1 U25      1.325900
      3 OP1        -2.6520    2.2330    2.1210 o         1 U25     -0.921833
      4 OP2        -2.6190    3.6590    0.1350 o         1 U25     -0.921833
      5 O5'        -2.6710    1.1740   -0.1670 os        1 U25     -0.578200
      6 C5'        -1.3060    0.8460   -0.1600 c3        1 U25      0.203400
      7 C4'        -0.8920    0.3920   -1.5420 c3        1 U25      0.062100
      8 O4'         0.6900    0.5200   -1.7070 os        1 U25     -0.437600
      9 C3'        -1.1770   -0.8700   -1.7050 c3        1 U25      0.089100
     10 O3'        -1.4970   -1.1510   -3.1450 oh        1 U25     -0.670800
     11 C2'         0.0950   -1.6200   -1.2860 c3        1 U25      0.108100
     12 O2'         0.4350   -2.5330   -2.2310 oh        1 U25     -0.617800
     13 C1'         1.1950   -0.5390   -1.1650 c3        1 U25      0.271500
     14 N1          1.5020   -0.2910    0.2360 n         1 U25     -0.368000
     15 C2          2.1070    0.9600    0.6260 c         1 U25      0.799500
     16 O2          2.1270    1.8850   -0.1480 o         1 U25     -0.694500
     17 N3          2.7330    1.0940    1.9410 n         1 U25     -0.599500
     18 C4          2.6220    0.0520    2.8830 c         1 U25      0.718700
     19 O4          3.1510    0.1590    3.9770 o         1 U25     -0.685500
     20 C5          1.9080   -1.1690    2.5360 cc        1 U25     -0.370200
     21 C6          1.3520   -1.3280    1.1830 cd        1 U25      0.083600
     22 H5'        -0.7550    1.6750    0.1100 h1        1 U25      0.018200
     23 H5''       -1.1420    0.1060    0.4980 h1        1 U25      0.018200
     24 H4'        -1.3590    0.9440   -2.2420 h1        1 U25      0.041700
     25 H3'        -1.9110   -1.1230   -1.1440 h1        1 U25      0.165700
     26 HO'3       -2.3760   -1.3890   -3.2210 ho        1 U25      0.497000
     27 H2'        -0.0390   -2.0530   -0.4370 h1        1 U25      0.072700
     28 HO2'        0.2560   -3.3480   -1.9330 ho        1 U25      0.423000
     29 H1'         1.9830   -0.8120   -1.6360 h2        1 U25      0.101700
     30 H3          3.2480    1.8310    2.1300 hn        1 U25      0.323500
     31 H5          1.9070   -1.9340    3.1620 ha        1 U25      0.185000
     32 H6          0.9310   -2.2070    0.9080 h4        1 U25      0.276000
@<TRIPOS>BOND
     1    1    2 1   
     2    2    3 1   
     3    2    4 1   
     4    2    5 1   
     5    5    6 1   
     6    6    7 1   
     7    6   22 1   
     8    6   23 1   
     9    7    8 1   
    10    7    9 1   
    11    7   24 1   
    12    8   13 1   
    13    9   10 1   
    14    9   11 1   
    15    9   25 1   
    16   10   26 1   
    17   11   12 1   
    18   11   13 1   
    19   11   27 1   
    20   12   28 1   
    21   13   14 1   
    22   13   29 1   
    23   14   15 1   
    24   14   21 1   
    25   15   16 2   
    26   15   17 1   
    27   17   18 1   
    28   17   30 1   
    29   18   19 2   
    30   18   20 1   
    31   20   21 2   
    32   20   31 1   
    33   21   32 1   
@<TRIPOS>SUBSTRUCTURE
     1 U25         1 TEMP              0 ****  ****    0 ROOT
