@<TRIPOS>MOLECULE
U25
   32    33     1     0     0
SMALL
bcc


@<TRIPOS>ATOM
      1 OP3        -3.8110    0.6150   -1.5550 oh        1 U25     -0.809400
      2 P          -4.3350    0.3530   -0.0420 p5        1 U25      1.438800
      3 OP1        -4.7240    1.6530    0.5500 o         1 U25     -0.854500
      4 OP2        -5.2070   -0.8430   -0.0320 o         1 U25     -0.854500
      5 O5'        -2.8940   -0.0830    0.6490 os        1 U25     -0.592200
      6 C5'        -1.9190    0.9090    0.7520 c3        1 U25      0.194400
      7 C4'        -0.6440    0.4490    0.0360 c3        1 U25      0.029100
      8 O4'         0.4560    0.6650    0.9540 os        1 U25     -0.425600
      9 C3'        -0.3370    1.2010   -1.3040 c3        1 U25      0.366800
     10 O3'        -1.1090    2.2200   -1.5890 o         1 U25     -0.839500
     11 C2'         1.1760    1.6610   -1.1160 c3        1 U25      0.024100
     12 O2'         1.3020    3.0590   -1.1120 oh        1 U25     -0.639800
     13 C1'         1.6070    1.1250    0.2760 c3        1 U25      0.274500
     14 N1          2.5850    0.0080    0.1670 n         1 U25     -0.358000
     15 C2          3.7880    0.0380    0.9040 c         1 U25      0.802500
     16 O2          4.1330    1.0030    1.6250 o         1 U25     -0.666500
     17 N3          4.6650   -1.0650    0.8030 n         1 U25     -0.598500
     18 C4          4.3760   -2.2040    0.0330 c         1 U25      0.722700
     19 O4          5.2160   -3.1310    0.0070 o         1 U25     -0.688500
     20 C5          3.1030   -2.1910   -0.6740 cc        1 U25     -0.393200
     21 C6          2.2690   -1.1130   -0.5680 cd        1 U25      0.098600
     22 H5'        -1.6790    1.0660    1.8440 h1        1 U25      0.042200
     23 H5''       -2.2840    1.8780    0.3090 h1        1 U25      0.042200
     24 H4'        -0.6950   -0.6600   -0.1400 h1        1 U25      0.027700
     25 H3'        -0.3040    0.3980   -2.1110 h1        1 U25     -0.072300
     26 HO'3       -3.0750    1.2230   -1.6320 ho        1 U25      0.467000
     27 H2'         1.8300    1.2770   -1.9390 h1        1 U25      0.022700
     28 HO2'        0.3900    3.4190   -1.1670 ho        1 U25      0.446000
     29 H1'         2.0790    1.9160    0.9270 h2        1 U25      0.105700
     30 H3          5.5070   -1.0220    1.3290 hn        1 U25      0.327500
     31 H5          2.8490   -3.0710   -1.2720 ha        1 U25      0.162000
     32 H6          1.2800   -1.0660   -1.0760 h4        1 U25      0.200000
@<TRIPOS>BOND
     1    1    2 1   
     2    1   26 1   
     3    2    3 1   
     4    2    4 1   
     5    2    5 1   
     6    5    6 1   
     7    6    7 1   
     8    6   22 1   
     9    6   23 1   
    10    7    8 1   
    11    7    9 1   
    12    7   24 1   
    13    8   13 1   
    14    9   10 1   
    15    9   11 1   
    16    9   25 1   
    17   11   12 1   
    18   11   13 1   
    19   11   27 1   
    20   12   28 1   
    21   13   14 1   
    22   13   29 1   
    23   14   15 1   
    24   14   21 1   
    25   15   16 2   
    26   15   17 1   
    27   17   18 1   
    28   17   30 1   
    29   18   19 2   
    30   18   20 1   
    31   20   21 2   
    32   20   31 1   
    33   21   32 1   
@<TRIPOS>SUBSTRUCTURE
     1 U25         1 TEMP              0 ****  ****    0 ROOT
