@<TRIPOS>MOLECULE
U2L
   45    46     1     0     0
SMALL
bcc


@<TRIPOS>ATOM
      1 OP3         3.3190   -0.5310   -4.6600 oh        1 U2L     -0.782400
      2 P           4.4310   -0.6020   -3.4640 p5        1 U2L      1.436800
      3 OP1         5.7100   -0.7120   -4.1960 o         1 U2L     -0.849500
      4 OP2         3.9530   -1.5000   -2.3890 o         1 U2L     -0.849500
      5 O5'         4.2910    0.9440   -2.9150 os        1 U2L     -0.585200
      6 C5'         3.1030    1.2920   -2.2680 c3        1 U2L      0.186400
      7 C4'         3.3410    1.4690   -0.7580 c3        1 U2L      0.110100
      8 O4'         2.6880    2.6620   -0.3080 os        1 U2L     -0.431600
      9 C3'         2.8270    0.2840    0.0770 c3        1 U2L      0.078100
     10 O3'         3.8740   -0.1370    0.9580 os        1 U2L     -0.444600
     11 C2'         1.6620    0.8400    0.9230 c3        1 U2L      0.100100
     12 O2'         1.7670    0.5040    2.2900 oh        1 U2L     -0.607800
     13 C1'         1.7180    2.3860    0.7260 c3        1 U2L      0.304500
     14 N1          0.4350    2.9870    0.4160 n         1 U2L     -0.318400
     15 C2          0.2410    4.3410    0.8000 c         1 U2L      0.721100
     16 O2          1.0690    5.0090    1.4790 o         1 U2L     -0.711100
     17 N3         -0.9700    4.9500    0.4390 n         1 U2L     -0.595500
     18 C4         -1.9900    4.2690   -0.2740 c         1 U2L      0.676300
     19 O4         -3.0210    4.9440   -0.5330 o         1 U2L     -0.725100
     20 C5         -1.7210    2.8890   -0.6050 ce        1 U2L     -0.500500
     21 C6         -0.5200    2.2800   -0.2720 c1        1 U2L     -0.081900
     22 CA'         4.2230   -1.5120    0.8310 c3        1 U2L      0.077400
     23 CB'         3.2890   -2.3890    1.6570 c3        1 U2L      0.090400
     24 OC'         3.7900   -2.6340    2.9720 os        1 U2L     -0.446600
     25 CD'         3.7410   -1.4900    3.8060 c3        1 U2L      0.112700
     26 C7         -2.7670    2.1390   -1.3210 c3        1 U2L      0.045100
     27 H5'         2.7610    2.2800   -2.6860 h1        1 U2L      0.043200
     28 H5''        2.3170    0.5120   -2.4630 h1        1 U2L      0.043200
     29 H4'         4.4390    1.6350   -0.5720 h1        1 U2L      0.072700
     30 H3'         2.4900   -0.5620   -0.5800 h1        1 U2L      0.112700
     31 H2'         0.6730    0.4200    0.5860 h1        1 U2L      0.139700
     32 HO2'        2.6710    0.7060    2.5690 ho        1 U2L      0.400000
     33 H1'         2.1270    2.8900    1.6550 h2        1 U2L      0.068700
     34 H3         -1.0970    5.9000    0.6950 hn        1 U2L      0.299500
     35 H6          3.7090   -0.2770   -5.4870 ho        1 U2L      0.422000
     36 HA'1        4.2060   -1.8310   -0.2500 h1        1 U2L      0.090700
     37 HA'2        5.2700   -1.5640    1.2330 h1        1 U2L      0.090700
     38 HB'1        3.2210   -3.4160    1.2100 h1        1 U2L      0.057700
     39 HB'2        2.2720   -1.9160    1.7160 h1        1 U2L      0.057700
     40 HD'1        4.3340   -0.6530    3.3590 h1        1 U2L      0.030367
     41 HD'2        4.1910   -1.8220    4.7740 h1        1 U2L      0.030367
     42 HD'3        2.6810   -1.1590    3.9540 h1        1 U2L      0.030367
     43 H71        -2.3830    1.1380   -1.6370 hc        1 U2L      0.000367
     44 H72        -3.1060    2.6980   -2.2300 hc        1 U2L      0.000367
     45 H73        -3.6670    1.9840   -0.6710 hc        1 U2L      0.000367
@<TRIPOS>BOND
     1    1    2 1   
     2    1   35 1   
     3    2    3 1   
     4    2    4 1   
     5    2    5 1   
     6    5    6 1   
     7    6    7 1   
     8    6   27 1   
     9    6   28 1   
    10    7    8 1   
    11    7    9 1   
    12    7   29 1   
    13    8   13 1   
    14    9   10 1   
    15    9   11 1   
    16    9   30 1   
    17   10   22 1   
    18   11   12 1   
    19   11   13 1   
    20   11   31 1   
    21   12   32 1   
    22   13   14 1   
    23   13   33 1   
    24   14   15 1   
    25   14   21 2   
    26   15   16 2   
    27   15   17 1   
    28   17   18 1   
    29   17   34 1   
    30   18   19 2   
    31   18   20 1   
    32   20   21 2   
    33   20   26 1   
    34   22   23 1   
    35   22   36 1   
    36   22   37 1   
    37   23   24 1   
    38   23   38 1   
    39   23   39 1   
    40   24   25 1   
    41   25   40 1   
    42   25   41 1   
    43   25   42 1   
    44   26   43 1   
    45   26   44 1   
    46   26   45 1   
@<TRIPOS>SUBSTRUCTURE
     1 U2L         1 TEMP              0 ****  ****    0 ROOT
