@<TRIPOS>MOLECULE
U2N
   33    34     1     0     0
SMALL
bcc


@<TRIPOS>ATOM
      1 OP3         0.2130   -3.1310    4.1990 oh        1 U2N     -0.785400
      2 P          -1.1470   -2.5060    3.5380 p5        1 U2N      1.438800
      3 OP1        -2.2180   -3.2830    4.1960 o         1 U2N     -0.848500
      4 OP2        -0.9560   -2.3110    2.0840 o         1 U2N     -0.848500
      5 O5'        -1.0890   -1.0080    4.2230 os        1 U2N     -0.585200
      6 C5'         0.0040   -0.1980    3.9060 c3        1 U2N      0.194400
      7 C4'        -0.3460    0.8240    2.8130 c3        1 U2N      0.084100
      8 O4'         0.1370    2.1090    3.2250 os        1 U2N     -0.428600
      9 C1'         0.5940    2.8320    2.0550 c3        1 U2N      0.290500
     10 N1          1.6080    3.8030    2.4090 n         1 U2N     -0.317400
     11 C6          2.9220    3.4230    2.5590 c1        1 U2N     -0.082900
     12 C2          1.1680    5.1170    2.7290 c         1 U2N      0.716100
     13 O2         -0.0160    5.5240    2.5660 o         1 U2N     -0.713100
     14 N3          2.1240    6.0320    3.1960 n         1 U2N     -0.596500
     15 C4          3.4900    5.6890    3.3670 c         1 U2N      0.670300
     16 O4          4.2410    6.6000    3.8050 o         1 U2N     -0.735100
     17 C5          3.8490    4.3440    3.0070 ce        1 U2N     -0.553300
     18 C2'         1.0840    1.7400    1.0320 c3        1 U2N      0.129500
     19 N2'         1.0160    2.1340   -0.3540 n3        1 U2N     -0.890800
     20 C3'         0.2660    0.4850    1.4330 c3        1 U2N      0.136100
     21 O3'        -0.7680    0.2120    0.5050 oh        1 U2N     -0.641800
     22 H5'         0.2850    0.3640    4.8410 h1        1 U2N      0.037200
     23 H5''        0.8690   -0.8410    3.5850 h1        1 U2N      0.037200
     24 H4'        -1.4650    0.9060    2.7170 h1        1 U2N      0.059700
     25 H1'        -0.3080    3.3870    1.6540 h2        1 U2N      0.055700
     26 H6          0.0230   -3.6280    4.9860 ho        1 U2N      0.422000
     27 HN3         1.8080    6.9420    3.4310 hn        1 U2N      0.297500
     28 H5          4.9000    4.0640    3.1100 ha        1 U2N      0.128000
     29 H2'         2.1740    1.5260    1.2600 h1        1 U2N      0.118700
     30 H2'1        1.3150    3.0870   -0.4420 hn        1 U2N      0.341800
     31 H2''        0.0750    2.0570   -0.6930 hn        1 U2N      0.341800
     32 H3'         0.9500   -0.4030    1.5000 h1        1 U2N      0.065700
     33 HO3'       -1.0520   -0.6990    0.6920 ho        1 U2N      0.458000
@<TRIPOS>BOND
     1    1    2 1   
     2    1   26 1   
     3    2    3 1   
     4    2    4 1   
     5    2    5 1   
     6    5    6 1   
     7    6    7 1   
     8    6   22 1   
     9    6   23 1   
    10    7    8 1   
    11    7   20 1   
    12    7   24 1   
    13    8    9 1   
    14    9   10 1   
    15    9   18 1   
    16    9   25 1   
    17   10   11 2   
    18   10   12 1   
    19   11   17 2   
    20   12   13 2   
    21   12   14 1   
    22   14   15 1   
    23   14   27 1   
    24   15   16 2   
    25   15   17 1   
    26   17   28 1   
    27   18   19 1   
    28   18   20 1   
    29   18   29 1   
    30   19   30 1   
    31   19   31 1   
    32   20   21 1   
    33   20   32 1   
    34   21   33 1   
@<TRIPOS>SUBSTRUCTURE
     1 U2N         1 TEMP              0 ****  ****    0 ROOT
