@<TRIPOS>MOLECULE
U2P
   32    33     1     0     0
SMALL
bcc


@<TRIPOS>ATOM
      1 O5'         3.0760    3.4490   -0.4260 oh        1 U2P     -0.635800
      2 C5'         3.0630    2.0740   -0.7770 c3        1 U2P      0.104400
      3 C4'         2.8990    1.1930    0.4620 c3        1 U2P      0.097100
      4 O4'         1.7000    1.5880    1.1410 os        1 U2P     -0.466600
      5 C1'         0.6780    0.5770    0.9710 c3        1 U2P      0.252500
      6 N1         -0.5770    1.2060    0.5680 n         1 U2P     -0.342000
      7 C6         -1.5430    1.3700    1.5400 cc        1 U2P      0.085600
      8 C5         -2.8660    1.5380    1.2640 cd        1 U2P     -0.381200
      9 C4         -3.3590    1.3110   -0.0960 c         1 U2P      0.724700
     10 O4         -4.5780    1.2970   -0.3860 o         1 U2P     -0.703500
     11 N3         -2.4000    1.1770   -1.1110 n         1 U2P     -0.529500
     12 C2         -1.0050    1.1520   -0.8070 c         1 U2P      0.899500
     13 O2         -0.1840    1.3380   -1.7290 o         1 U2P     -0.663500
     14 C2'         1.2440   -0.5490    0.0190 c3        1 U2P      0.192100
     15 O2'         0.9000   -1.7710    0.4990 os        1 U2P     -0.542200
     16 P          -0.4070   -2.5050   -0.4570 p5        1 U2P      1.331900
     17 O1P        -1.1780   -1.2360   -0.7680 o         1 U2P     -0.915167
     18 O2P         0.3650   -3.0770   -1.6010 o         1 U2P     -0.915167
     19 O3P        -1.0170   -3.4330    0.5410 o         1 U2P     -0.915167
     20 C3'         2.7740   -0.2900    0.0740 c3        1 U2P      0.095100
     21 O3'         3.4470   -1.0830    1.0320 oh        1 U2P     -0.645800
     22 H5'         2.2720    3.5990    0.0890 ho        1 U2P      0.413000
     23 H5'1        2.2230    1.8720   -1.4970 h1        1 U2P      0.058200
     24 H5'2        4.0540    1.8870   -1.2650 h1        1 U2P      0.058200
     25 H4'         3.7280    1.3710    1.1960 h1        1 U2P      0.054700
     26 H1'         0.5340    0.1290    2.0010 h2        1 U2P      0.068700
     27 H6         -1.1690    1.3920    2.5820 h4        1 U2P      0.131000
     28 H5         -3.6060    1.7430    2.0410 ha        1 U2P      0.137000
     29 HN3        -2.6240    0.5480   -1.8610 hn        1 U2P      0.352500
     30 H2'         0.8990   -0.4070   -1.0460 h1        1 U2P      0.103700
     31 H3'         3.2460   -0.4890   -0.9240 h1        1 U2P      0.049700
     32 H1          2.8410   -1.8110    1.2580 ho        1 U2P      0.449000
@<TRIPOS>BOND
     1    1    2 1   
     2    1   22 1   
     3    2    3 1   
     4    2   23 1   
     5    2   24 1   
     6    3    4 1   
     7    3   20 1   
     8    3   25 1   
     9    4    5 1   
    10    5    6 1   
    11    5   14 1   
    12    5   26 1   
    13    6    7 1   
    14    6   12 1   
    15    7    8 2   
    16    7   27 1   
    17    8    9 1   
    18    8   28 1   
    19    9   10 2   
    20    9   11 1   
    21   11   12 1   
    22   11   29 1   
    23   12   13 2   
    24   14   15 1   
    25   14   20 1   
    26   14   30 1   
    27   15   16 1   
    28   16   17 1   
    29   16   18 1   
    30   16   19 1   
    31   20   21 1   
    32   20   31 1   
    33   21   32 1   
@<TRIPOS>SUBSTRUCTURE
     1 U2P         1 TEMP              0 ****  ****    0 ROOT
