@<TRIPOS>MOLECULE
U2S
   41    43     1     0     0
SMALL
bcc


@<TRIPOS>ATOM
      1 C4          0.1110   -0.1350   -0.1290 c         1 U2S      0.713700
      2 C5          1.5570   -0.3160    0.0490 cc        1 U2S     -0.309200
      3 C6          2.1340   -0.1150    1.2590 cd        1 U2S      0.046600
      4 N1          1.4210    0.3350    2.3690 n         1 U2S     -0.384000
      5 N3         -0.6030    0.2530    1.0190 n         1 U2S     -0.585500
      6 OAM        -0.5350   -5.2620    7.4920 os        1 U2S     -0.416600
      7 CAK        -1.3190   -4.2390    6.8900 c3        1 U2S      0.126400
      8 CAM        -0.6460   -2.8670    7.0110 c3        1 U2S      0.134800
      9 CAJ         0.7790   -5.3190    6.9480 c3        1 U2S      0.126400
     10 CAL         1.5020   -3.9720    7.0680 c3        1 U2S      0.134800
     11 NBA         0.7230   -2.8740    6.5110 n3        1 U2S     -0.725600
     12 C5'         1.3860   -1.5890    6.6610 c3        1 U2S      0.177800
     13 C4'         0.9910   -0.5800    5.5760 c3        1 U2S      0.141100
     14 O4'         1.7440   -0.8930    4.3880 os        1 U2S     -0.406600
     15 C3'         1.4010    0.8560    5.9640 c3        1 U2S      0.120100
     16 O3'         0.3020    1.4740    6.5960 oh        1 U2S     -0.575800
     17 C2'         1.7430    1.5150    4.6070 c3        1 U2S      0.074100
     18 O2'         2.8950    2.3110    4.7860 oh        1 U2S     -0.591800
     19 C1'         2.0720    0.3040    3.6760 c3        1 U2S      0.273500
     20 O4         -0.5030   -0.2990   -1.1960 o         1 U2S     -0.604500
     21 C2          0.0020    0.4440    2.2700 c         1 U2S      0.806500
     22 O2         -0.7000    0.7500    3.2570 o         1 U2S     -0.639500
     23 H5          2.1280   -0.6250   -0.8360 ha        1 U2S      0.180000
     24 H6          3.2180   -0.2730    1.4180 h4        1 U2S      0.164000
     25 HN3        -1.5950    0.3560    0.9760 hn        1 U2S      0.353500
     26 HAKA       -1.5090   -4.4940    5.8140 h1        1 U2S      0.054450
     27 HAM        -1.2330   -2.1240    6.4020 h1        1 U2S      0.041950
     28 HAMA       -0.6910   -2.5420    8.0920 h1        1 U2S      0.041950
     29 HAJ         1.3040   -6.0940    7.5650 h1        1 U2S      0.054450
     30 HAJA        0.7280   -5.6460    5.8770 h1        1 U2S      0.054450
     31 HAL         2.4680   -4.0360    6.4940 h1        1 U2S      0.041950
     32 HALA        1.7520   -3.7970    8.1550 h1        1 U2S      0.041950
     33 H5'         2.5000   -1.7440    6.5990 h1        1 U2S      0.049200
     34 H5'A        1.1510   -1.1060    7.6570 h1        1 U2S      0.049200
     35 H4'        -0.1030   -0.6100    5.3180 h1        1 U2S      0.101700
     36 H3'         2.3000    0.8690    6.6380 h1        1 U2S      0.065700
     37 HO3'        0.5710    2.3810    6.7910 ho        1 U2S      0.412000
     38 H2'         0.8750    2.1230    4.2370 h1        1 U2S      0.097700
     39 HO2'        2.9790    2.8670    4.0020 ho        1 U2S      0.412000
     40 H1'         3.1900    0.2550    3.4970 h2        1 U2S      0.090700
     41 HAK        -2.2810   -4.2480    7.4660 h1        1 U2S      0.054450
@<TRIPOS>BOND
     1    1    2 1   
     2    1    5 1   
     3    1   20 2   
     4    2    3 2   
     5    2   23 1   
     6    3    4 1   
     7    3   24 1   
     8    4   19 1   
     9    4   21 1   
    10    5   21 1   
    11    5   25 1   
    12    6    7 1   
    13    6    9 1   
    14    7    8 1   
    15    7   26 1   
    16    7   41 1   
    17    8   11 1   
    18    8   27 1   
    19    8   28 1   
    20    9   10 1   
    21    9   29 1   
    22    9   30 1   
    23   10   11 1   
    24   10   31 1   
    25   10   32 1   
    26   11   12 1   
    27   12   13 1   
    28   12   33 1   
    29   12   34 1   
    30   13   14 1   
    31   13   15 1   
    32   13   35 1   
    33   14   19 1   
    34   15   16 1   
    35   15   17 1   
    36   15   36 1   
    37   16   37 1   
    38   17   18 1   
    39   17   19 1   
    40   17   38 1   
    41   18   39 1   
    42   19   40 1   
    43   21   22 2   
@<TRIPOS>SUBSTRUCTURE
     1 U2S         1 TEMP              0 ****  ****    0 ROOT
