@<TRIPOS>MOLECULE
U2S
   41    43     1     0     0
SMALL
bcc


@<TRIPOS>ATOM
      1 C4         -4.0860    2.0090    0.0530 c         1 U2S      0.714700
      2 C5         -3.9510    1.3700    1.3670 cc        1 U2S     -0.314200
      3 C6         -3.0820    0.3450    1.5510 cd        1 U2S      0.055600
      4 N1         -2.3200   -0.1880    0.5160 n         1 U2S     -0.383000
      5 N3         -3.2730    1.4860   -0.9690 n         1 U2S     -0.585500
      6 OAM         5.1860    1.9530   -0.0590 os        1 U2S     -0.416600
      7 CAK         4.1430    1.9280   -1.0270 c3        1 U2S      0.126400
      8 CAM         3.4110    0.5820   -1.0340 c3        1 U2S      0.135300
      9 CAJ         4.7100    1.6560    1.2480 c3        1 U2S      0.126400
     10 CAL         3.9890    0.3040    1.2970 c3        1 U2S      0.135300
     11 NBA         2.9390    0.2000    0.2910 n3        1 U2S     -0.725600
     12 C5'         2.2820   -1.0970    0.3050 c3        1 U2S      0.177800
     13 C4'         0.8360   -1.0420   -0.2030 c3        1 U2S      0.144100
     14 O4'         0.0120   -0.5480    0.8700 os        1 U2S     -0.405600
     15 C3'         0.2970   -2.4510   -0.5300 c3        1 U2S      0.083100
     16 O3'         0.4970   -2.6820   -1.9080 oh        1 U2S     -0.570800
     17 C2'        -1.1990   -2.3730   -0.1470 c3        1 U2S      0.073100
     18 O2'        -1.6090   -3.5030    0.5980 oh        1 U2S     -0.593800
     19 C1'        -1.2800   -1.1610    0.8350 c3        1 U2S      0.311500
     20 O4         -4.8480    2.9540   -0.2070 o         1 U2S     -0.606500
     21 C2         -2.3720    0.4300   -0.7660 c         1 U2S      0.808500
     22 O2         -1.6630    0.0280   -1.7140 o         1 U2S     -0.643500
     23 H5         -4.5790    1.7660    2.1750 ha        1 U2S      0.180000
     24 H6         -2.9530   -0.1370    2.5400 h4        1 U2S      0.166000
     25 HN3        -3.2960    1.8920   -1.8800 hn        1 U2S      0.352500
     26 HAKA        4.6660    2.0880   -2.0060 h1        1 U2S      0.054700
     27 HAM         2.5150    0.6640   -1.7100 h1        1 U2S      0.041700
     28 HAMA        4.1040   -0.1980   -1.4680 h1        1 U2S      0.041700
     29 HAJ         5.6340    1.6230    1.8820 h1        1 U2S      0.054700
     30 HAJA        4.0310    2.4790    1.5960 h1        1 U2S      0.054700
     31 HAL         4.7580   -0.5140    1.1820 h1        1 U2S      0.041700
     32 HALA        3.5090    0.1940    2.3090 h1        1 U2S      0.041700
     33 H5'         2.8260   -1.8520   -0.3370 h1        1 U2S      0.048200
     34 H5'A        2.2620   -1.4830    1.3640 h1        1 U2S      0.048200
     35 H4'         0.7020   -0.3660   -1.0920 h1        1 U2S      0.103700
     36 H3'         0.8100   -3.2440    0.0790 h1        1 U2S      0.058700
     37 HO3'        0.1070   -3.5420   -2.1050 ho        1 U2S      0.402000
     38 H2'        -1.8310   -2.2320   -1.0640 h1        1 U2S      0.093700
     39 HO2'       -1.7870   -4.2070   -0.0370 ho        1 U2S      0.411000
     40 H1'        -1.4700   -1.5350    1.8880 h2        1 U2S      0.103700
     41 HAK         3.4270    2.7690   -0.8290 h1        1 U2S      0.054700
@<TRIPOS>BOND
     1    1    2 1   
     2    1    5 1   
     3    1   20 2   
     4    2    3 2   
     5    2   23 1   
     6    3    4 1   
     7    3   24 1   
     8    4   19 1   
     9    4   21 1   
    10    5   21 1   
    11    5   25 1   
    12    6    7 1   
    13    6    9 1   
    14    7    8 1   
    15    7   26 1   
    16    7   41 1   
    17    8   11 1   
    18    8   27 1   
    19    8   28 1   
    20    9   10 1   
    21    9   29 1   
    22    9   30 1   
    23   10   11 1   
    24   10   31 1   
    25   10   32 1   
    26   11   12 1   
    27   12   13 1   
    28   12   33 1   
    29   12   34 1   
    30   13   14 1   
    31   13   15 1   
    32   13   35 1   
    33   14   19 1   
    34   15   16 1   
    35   15   17 1   
    36   15   36 1   
    37   16   37 1   
    38   17   18 1   
    39   17   19 1   
    40   17   38 1   
    41   18   39 1   
    42   19   40 1   
    43   21   22 2   
@<TRIPOS>SUBSTRUCTURE
     1 U2S         1 TEMP              0 ****  ****    0 ROOT
