@<TRIPOS>MOLECULE
U2S
   41    43     1     0     0
SMALL
bcc


@<TRIPOS>ATOM
      1 C4          0.1140   -0.1110   -0.1230 c         1 U2S      0.713700
      2 C5          1.5610   -0.2820    0.0570 cc        1 U2S     -0.309200
      3 C6          2.1340   -0.0830    1.2700 cd        1 U2S      0.046600
      4 N1          1.4150    0.3540    2.3810 n         1 U2S     -0.384000
      5 N3         -0.6060    0.2650    1.0260 ns        1 U2S     -0.585500
      6 OAM        -0.5080   -5.2900    7.4650 os        1 U2S     -0.416600
      7 CAK        -1.2990   -4.2690    6.8670 c3        1 U2S      0.126400
      8 CAM        -0.6380   -2.8930    6.9980 c3        1 U2S      0.134800
      9 CAJ         0.8070   -5.3320    6.9250 c3        1 U2S      0.126400
     10 CAL         1.5190   -3.9800    7.0550 c3        1 U2S      0.134800
     11 NBA         0.7320   -2.8850    6.5030 n3        1 U2S     -0.725600
     12 C5'         1.3840   -1.5960    6.6620 c3        1 U2S      0.177800
     13 C4'         0.9830   -0.5830    5.5810 c3        1 U2S      0.141100
     14 O4'         1.7420   -0.8840    4.3940 os        1 U2S     -0.406600
     15 C3'         1.3810    0.8540    5.9800 c3        1 U2S      0.120100
     16 O3'         0.2760    1.4590    6.6120 oh        1 U2S     -0.575800
     17 C2'         1.7220    1.5230    4.6280 c3        1 U2S      0.074100
     18 O2'         2.8670    2.3270    4.8140 oh        1 U2S     -0.591800
     19 C1'         2.0630    0.3200    3.6890 c3        1 U2S      0.273500
     20 O4         -0.4950   -0.2730   -1.1920 o         1 U2S     -0.604500
     21 C2         -0.0050    0.4530    2.2790 c         1 U2S      0.806500
     22 O2         -0.7120    0.7480    3.2660 o         1 U2S     -0.639500
     23 H5          2.1360   -0.5810   -0.8280 ha        1 U2S      0.180000
     24 H6          3.2190   -0.2350    1.4310 h4        1 U2S      0.164000
     25 HN3        -1.5980    0.3600    0.9810 hn        1 U2S      0.353500
     26 HAKA       -2.2630   -4.2900    7.4390 h1        1 U2S      0.054450
     27 HAM        -0.6900   -2.5750    8.0810 h1        1 U2S      0.041950
     28 HAMA       -1.2300   -2.1510    6.3920 h1        1 U2S      0.041950
     29 HAJ         0.7620   -5.6540    5.8510 h1        1 U2S      0.054450
     30 HAJA        1.3370   -6.1060    7.5390 h1        1 U2S      0.054450
     31 HAL         2.4870   -4.0320    6.4830 h1        1 U2S      0.041950
     32 HALA        1.7640   -3.8090    8.1440 h1        1 U2S      0.041950
     33 H5'         1.1420   -1.1210    7.6600 h1        1 U2S      0.049200
     34 H5'A        2.5000   -1.7410    6.6030 h1        1 U2S      0.049200
     35 H4'        -0.1100   -0.6210    5.3210 h1        1 U2S      0.101700
     36 H3'         2.2790    0.8690    6.6560 h1        1 U2S      0.065700
     37 HO3'        0.5370    2.3670    6.8130 ho        1 U2S      0.412000
     38 H2'         0.8510    2.1270    4.2590 h1        1 U2S      0.097700
     39 HO2'        2.9490    2.8880    4.0330 ho        1 U2S      0.412000
     40 H1'         3.1810    0.2810    3.5130 h2        1 U2S      0.090700
     41 HAK        -1.4840   -4.5200    5.7890 h1        1 U2S      0.054450
@<TRIPOS>BOND
     1    1    2 1   
     2    1    5 1   
     3    1   20 2   
     4    2    3 2   
     5    2   23 1   
     6    3    4 1   
     7    3   24 1   
     8    4   19 1   
     9    4   21 1   
    10    5   21 1   
    11    5   25 1   
    12    6    7 1   
    13    6    9 1   
    14    7    8 1   
    15    7   26 1   
    16    7   41 1   
    17    8   11 1   
    18    8   27 1   
    19    8   28 1   
    20    9   10 1   
    21    9   29 1   
    22    9   30 1   
    23   10   11 1   
    24   10   31 1   
    25   10   32 1   
    26   11   12 1   
    27   12   13 1   
    28   12   33 1   
    29   12   34 1   
    30   13   14 1   
    31   13   15 1   
    32   13   35 1   
    33   14   19 1   
    34   15   16 1   
    35   15   17 1   
    36   15   36 1   
    37   16   37 1   
    38   17   18 1   
    39   17   19 1   
    40   17   38 1   
    41   18   39 1   
    42   19   40 1   
    43   21   22 2   
@<TRIPOS>SUBSTRUCTURE
     1 U2S         1 TEMP              0 ****  ****    0 ROOT
