@<TRIPOS>MOLECULE
U2S
   41    43     1     0     0
SMALL
bcc


@<TRIPOS>ATOM
      1 C4          0.1480   -0.1410   -0.1340 c         1 U2S      0.713700
      2 C5          1.5950   -0.3020    0.0590 cc        1 U2S     -0.309200
      3 C6          2.1560   -0.0930    1.2750 cd        1 U2S      0.046600
      4 N1          1.4260    0.3460    2.3770 n         1 U2S     -0.384000
      5 N3         -0.5830    0.2370    1.0070 n         1 U2S     -0.585500
      6 OAM        -0.5080   -5.2850    7.4690 os        1 U2S     -0.416600
      7 CAK        -1.2990   -4.2720    6.8570 c3        1 U2S      0.126400
      8 CAM        -0.6480   -2.8900    6.9890 c3        1 U2S      0.134800
      9 CAJ         0.8130   -5.3220    6.9430 c3        1 U2S      0.126400
     10 CAL         1.5150   -3.9650    7.0740 c3        1 U2S      0.134800
     11 NBA         0.7280   -2.8770    6.5080 n3        1 U2S     -0.725600
     12 C5'         1.3700   -1.5830    6.6680 c3        1 U2S      0.177800
     13 C4'         0.9740   -0.5780    5.5780 c3        1 U2S      0.141100
     14 O4'         1.7440   -0.8800    4.3990 os        1 U2S     -0.406600
     15 C3'         1.3600    0.8630    5.9730 c3        1 U2S      0.120100
     16 O3'         0.2470    1.4650    6.5940 oh        1 U2S     -0.575800
     17 C2'         1.7090    1.5270    4.6200 c3        1 U2S      0.074100
     18 O2'         2.8480    2.3390    4.8120 oh        1 U2S     -0.591800
     19 C1'         2.0630    0.3220    3.6910 c3        1 U2S      0.273500
     20 O4         -0.4530   -0.3130   -1.2070 o         1 U2S     -0.604500
     21 C2          0.0070    0.4350    2.2640 c         1 U2S      0.806500
     22 O2         -0.7100    0.7320    3.2440 o         1 U2S     -0.639500
     23 H5          2.1790   -0.6020   -0.8200 ha        1 U2S      0.180000
     24 H6          3.2410   -0.2380    1.4450 h4        1 U2S      0.164000
     25 HN3        -1.5760    0.3260    0.9540 hn        1 U2S      0.353500
     26 HAKA       -1.4700   -4.5290    5.7790 h1        1 U2S      0.054450
     27 HAM        -0.7130   -2.5680    8.0690 h1        1 U2S      0.041950
     28 HAMA       -1.2370   -2.1560    6.3730 h1        1 U2S      0.041950
     29 HAJ         1.3410   -6.0900    7.5670 h1        1 U2S      0.054450
     30 HAJA        0.7820   -5.6490    5.8700 h1        1 U2S      0.054450
     31 HAL         2.4900   -4.0140    6.5130 h1        1 U2S      0.041950
     32 HALA        1.7470   -3.7870    8.1640 h1        1 U2S      0.041950
     33 H5'         1.1160   -1.1050    7.6600 h1        1 U2S      0.049200
     34 H5'A        2.4870   -1.7220    6.6190 h1        1 U2S      0.049200
     35 H4'        -0.1170   -0.6230    5.3080 h1        1 U2S      0.100700
     36 H3'         2.2520    0.8860    6.6560 h1        1 U2S      0.065700
     37 HO3'        0.5020    2.3760    6.7920 ho        1 U2S      0.412000
     38 H2'         0.8370    2.1250    4.2420 h1        1 U2S      0.097700
     39 HO2'        2.9330    2.8970    4.0290 ho        1 U2S      0.412000
     40 H1'         3.1830    0.2880    3.5240 h2        1 U2S      0.090700
     41 HAK        -2.2690   -4.2960    7.4190 h1        1 U2S      0.054450
@<TRIPOS>BOND
     1    1    2 1   
     2    1    5 1   
     3    1   20 2   
     4    2    3 2   
     5    2   23 1   
     6    3    4 1   
     7    3   24 1   
     8    4   19 1   
     9    4   21 1   
    10    5   21 1   
    11    5   25 1   
    12    6    7 1   
    13    6    9 1   
    14    7    8 1   
    15    7   26 1   
    16    7   41 1   
    17    8   11 1   
    18    8   27 1   
    19    8   28 1   
    20    9   10 1   
    21    9   29 1   
    22    9   30 1   
    23   10   11 1   
    24   10   31 1   
    25   10   32 1   
    26   11   12 1   
    27   12   13 1   
    28   12   33 1   
    29   12   34 1   
    30   13   14 1   
    31   13   15 1   
    32   13   35 1   
    33   14   19 1   
    34   15   16 1   
    35   15   17 1   
    36   15   36 1   
    37   16   37 1   
    38   17   18 1   
    39   17   19 1   
    40   17   38 1   
    41   18   39 1   
    42   19   40 1   
    43   21   22 2   
@<TRIPOS>SUBSTRUCTURE
     1 U2S         1 TEMP              0 ****  ****    0 ROOT
