@<TRIPOS>MOLECULE
U2X
   42    43     1     0     0
SMALL
bcc


@<TRIPOS>ATOM
      1 N           4.4090    1.0770    1.4650 n3        1 U2X     -0.888800
      2 C           5.8590   -0.5850    0.2020 c         1 U2X      0.886600
      3 O           6.8450   -0.0420    0.7770 o         1 U2X     -0.841800
      4 CA          4.4250   -0.0570    0.5500 c3        1 U2X      0.021500
      5 CB          3.6900    0.2250   -0.7660 c3        1 U2X     -0.032100
      6 CG          2.2140    0.3030   -0.6040 ca        1 U2X     -0.062300
      7 CD1         1.6040    1.4780   -0.1410 ca        1 U2X     -0.099500
      8 CD2         1.4090   -0.7970   -0.9180 ca        1 U2X     -0.099500
      9 CE1         0.2240    1.5600    0.0020 ca        1 U2X     -0.183000
     10 CE2         0.0220   -0.7350   -0.7870 ca        1 U2X     -0.183000
     11 CZ         -0.5670    0.4470   -0.3280 ca        1 U2X      0.088100
     12 OH         -1.9370    0.6380   -0.1950 os        1 U2X     -0.343900
     13 C7         -2.7160   -0.5600   -0.1710 c3        1 U2X      0.134400
     14 C1         -6.2360    0.9920   -0.4250 c3        1 U2X     -0.075400
     15 C2         -4.8230    0.6300   -0.8310 c3        1 U2X     -0.073900
     16 C3         -4.1210   -0.1550    0.2670 c3        1 U2X     -0.068700
     17 C4         -4.9190   -1.3970    0.6340 c3        1 U2X     -0.073900
     18 C5         -6.3340   -1.0350    1.0360 c3        1 U2X     -0.075400
     19 C6         -7.0330   -0.2400   -0.0480 c3        1 U2X     -0.076400
     20 H1          5.0080    0.8410    2.2390 hn        1 U2X      0.330300
     21 H2          4.8440    1.8590    1.0050 hn        1 U2X      0.330300
     22 HA          3.8950   -0.9050    1.0730 h1        1 U2X      0.045700
     23 HB2         4.0670    1.1800   -1.2190 hc        1 U2X      0.058700
     24 HB3         3.9580   -0.6120   -1.4700 hc        1 U2X      0.058700
     25 HD11        2.2350    2.3380    0.1330 ha        1 U2X      0.141000
     26 HD21        1.8800   -1.7280   -1.2700 ha        1 U2X      0.141000
     27 HE11       -0.2570    2.4770    0.3680 ha        1 U2X      0.125500
     28 HE21       -0.5880   -1.6110   -1.0430 ha        1 U2X      0.125500
     29 H72        -2.7310   -1.0120   -1.1980 h1        1 U2X      0.036200
     30 H71        -2.2730   -1.2930    0.5540 h1        1 U2X      0.036200
     31 H11        -6.2050    1.6980    0.4460 hc        1 U2X      0.035950
     32 H12        -6.7440    1.5240   -1.2710 hc        1 U2X      0.035950
     33 H21        -4.8470    0.0190   -1.7710 hc        1 U2X      0.044450
     34 H22        -4.2330    1.5590   -1.0460 hc        1 U2X      0.044450
     35 H31        -4.0310    0.5040    1.1750 hc        1 U2X      0.065700
     36 H41        -4.9440   -2.0960   -0.2420 hc        1 U2X      0.044450
     37 H42        -4.4140   -1.9320    1.4800 hc        1 U2X      0.044450
     38 H51        -6.9130   -1.9710    1.2480 hc        1 U2X      0.035950
     39 H52        -6.3090   -0.4320    1.9820 hc        1 U2X      0.035950
     40 H61        -8.0520    0.0640    0.3070 hc        1 U2X      0.033700
     41 H62        -7.1700   -0.8870   -0.9540 hc        1 U2X      0.033700
     42 OXT         5.9450   -1.5380   -0.6200 o         1 U2X     -0.841800
@<TRIPOS>BOND
     1    1    4 1   
     2    1   20 1   
     3    1   21 1   
     4    2    3 1   
     5    2    4 1   
     6    2   42 1   
     7    4    5 1   
     8    4   22 1   
     9    5    6 1   
    10    5   23 1   
    11    5   24 1   
    12    6    7 ar  
    13    6    8 ar  
    14    7    9 ar  
    15    7   25 1   
    16    8   10 ar  
    17    8   26 1   
    18    9   11 ar  
    19    9   27 1   
    20   10   11 ar  
    21   10   28 1   
    22   11   12 1   
    23   12   13 1   
    24   13   16 1   
    25   13   29 1   
    26   13   30 1   
    27   14   15 1   
    28   14   19 1   
    29   14   31 1   
    30   14   32 1   
    31   15   16 1   
    32   15   33 1   
    33   15   34 1   
    34   16   17 1   
    35   16   35 1   
    36   17   18 1   
    37   17   36 1   
    38   17   37 1   
    39   18   19 1   
    40   18   38 1   
    41   18   39 1   
    42   19   40 1   
    43   19   41 1   
@<TRIPOS>SUBSTRUCTURE
     1 U2X         1 TEMP              0 ****  ****    0 ROOT
