@<TRIPOS>MOLECULE
U2X
   42    40     1     0     0
SMALL
bcc


@<TRIPOS>ATOM
      1 N          -1.3180   -0.6490    6.2190 n3        1 U2X     -0.321000
      2 C           0.9510   -1.3770    6.5670 c1        1 U2X      0.307000
      3 O           1.3580   -0.5410    7.4240 o         1 U2X     -0.576000
      4 CA         -0.1480   -0.9670    5.5440 c2        1 U2X     -0.126000
      5 CB          0.3160    0.2360    4.7540 c3        1 U2X     -0.121000
      6 CG          0.0770   -0.0110    3.2900 c2        1 U2X     -0.035000
      7 CD1        -0.9820    0.5850    2.6720 c1        1 U2X     -0.107000
      8 CD2         1.0070   -0.7420    2.5390 c2        1 U2X     -0.124000
      9 CE1        -1.1460    0.4710    1.2920 c1        1 U2X     -0.146000
     10 CE2         0.8470   -0.8570    1.1640 c1        1 U2X     -0.165000
     11 CZ         -0.2290   -0.2510    0.5420 c1        1 U2X      0.016000
     12 OH         -0.4510   -0.4540   -0.8100 os        1 U2X     -0.235000
     13 C7          0.3020    0.4420   -1.6840 c3        1 U2X     -0.015000
     14 C1         -1.1910    0.9670   -5.1550 c3        1 U2X     -0.152000
     15 C2         -0.8740    1.2810   -3.7090 c3        1 U2X     -0.151000
     16 C3          0.0110    0.1360   -2.9980 c3        1 U2X     -0.106000
     17 C4          1.2840    0.2740   -3.9420 c3        1 U2X     -0.151000
     18 C5          0.9790   -0.0350   -5.3980 c3        1 U2X     -0.152000
     19 C6         -0.3580    0.0470   -5.6560 c3        1 U2X     -0.153000
     20 H1         -1.1220   -0.3480    7.0190 hn        1 U2X      0.126000
     21 H2         -1.8020   -1.3410    6.2880 hn        1 U2X      0.126000
     22 HA         -0.3280   -1.7540    4.8960 h4        1 U2X      0.086000
     23 HB2         1.2640    0.3840    4.9110 hc        1 U2X      0.099000
     24 HB3        -0.2100    1.0610    5.0490 hc        1 U2X      0.099000
     25 HD11       -1.6050    1.0740    3.1790 ha        1 U2X      0.144000
     26 HD21        1.7420   -1.1570    2.9690 ha        1 U2X      0.140000
     27 HE11       -1.9670    0.9330    0.8200 ha        1 U2X      0.129000
     28 HE21        1.4830   -1.3580    0.6450 ha        1 U2X      0.123000
     29 H72         1.2120    0.3320   -1.5340 h1        1 U2X      0.070500
     30 H71         0.0590    1.3430   -1.5030 h1        1 U2X      0.070500
     31 H11        -1.1310    1.7490   -5.6620 hc        1 U2X      0.074000
     32 H12        -2.1080    0.6220   -5.2100 hc        1 U2X      0.074000
     33 H21        -1.6780    1.3770   -3.2400 hc        1 U2X      0.082250
     34 H22        -0.3680    2.1520   -3.6710 hc        1 U2X      0.082250
     35 H31        -0.4280   -0.7830   -3.0860 hc        1 U2X      0.104000
     36 H41         1.6390    1.2170   -3.8740 hc        1 U2X      0.082250
     37 H42         1.9970   -0.3660   -3.6200 hc        1 U2X      0.082250
     38 H51         1.4600    0.6160   -5.9760 hc        1 U2X      0.074000
     39 H52         1.2890   -0.9420   -5.6070 hc        1 U2X      0.074000
     40 H61        -0.7420   -0.8380   -5.3980 hc        1 U2X      0.074000
     41 H62        -0.4440    0.1230   -6.6840 hc        1 U2X      0.074000
     42 OXT         1.3550   -2.6530    6.6350 o         1 U2X     -0.576000
@<TRIPOS>BOND
     1    1    4 1   
     2    1   20 1   
     3    1   21 1   
     4    2    3 1   
     5    2   42 1   
     6    4    5 1   
     7    4   22 1   
     8    5    6 1   
     9    5   23 1   
    10    5   24 1   
    11    6    7 1   
    12    6    8 1   
    13    7   25 1   
    14    8   10 1   
    15    8   26 1   
    16    9   11 1   
    17    9   27 1   
    18   10   28 1   
    19   11   12 1   
    20   12   13 1   
    21   13   16 1   
    22   13   29 1   
    23   13   30 1   
    24   14   15 1   
    25   14   19 1   
    26   14   31 1   
    27   14   32 1   
    28   15   16 1   
    29   15   33 1   
    30   15   34 1   
    31   16   17 1   
    32   16   35 1   
    33   17   18 1   
    34   17   36 1   
    35   17   37 1   
    36   18   19 1   
    37   18   38 1   
    38   18   39 1   
    39   19   40 1   
    40   19   41 1   
@<TRIPOS>SUBSTRUCTURE
     1 U2X         1 TEMP              0 ****  ****    0 ROOT
