@<TRIPOS>MOLECULE
U2Z
   32    33     1     0     0
SMALL
bcc


@<TRIPOS>ATOM
      1 C12        -0.1340    0.3160    0.0380 ca        1 U2Z     -0.121000
      2 C11         1.2570    0.2410   -0.0200 ca        1 U2Z     -0.069000
      3 C13        -0.7740    0.2400    1.2700 ca        1 U2Z     -0.085000
      4 C10         2.0040    0.1310    1.1490 ca        1 U2Z     -0.142000
      5 C3          3.8880    0.3120    5.0380 cc        1 U2Z     -0.283300
      6 C14        -0.0470    0.1120    2.4630 ca        1 U2Z     -0.178300
      7 C9          1.3710    0.1070    2.4100 ca        1 U2Z      0.059800
      8 C4          2.8010   -0.4510    5.6100 cc        1 U2Z      0.312600
      9 C2          3.4680    0.6500    3.7430 cd        1 U2Z     -0.047600
     10 C1          4.1980    1.4730    2.7660 c3        1 U2Z     -0.053800
     11 C15        -0.8470   -0.1470    3.6980 c3        1 U2Z      0.183100
     12 C5          2.6980   -0.9710    7.0060 c3        1 U2Z      0.095100
     13 N7          1.8000   -0.5790    4.7010 nd        1 U2Z     -0.578800
     14 N8          2.1660    0.0990    3.5920 na        1 U2Z      0.117300
     15 N16        -0.6480    0.8660    4.7860 n4        1 U2Z     -0.834600
     16 O6          1.6570   -0.2850    7.6850 oh        1 U2Z     -0.612800
     17 H12        -0.7250    0.4170   -0.8870 ha        1 U2Z      0.166000
     18 H11         1.7720    0.2600   -0.9950 ha        1 U2Z      0.166000
     19 H13        -1.8760    0.2610    1.3030 ha        1 U2Z      0.148000
     20 H10         3.1000    0.0380    1.0720 ha        1 U2Z      0.166000
     21 H3          4.8290    0.5670    5.5160 ha        1 U2Z      0.188000
     22 H151       -1.9500   -0.1480    3.4490 hx        1 U2Z      0.117200
     23 H152       -0.5880   -1.1670    4.1140 hx        1 U2Z      0.117200
     24 H51C        3.6840   -0.8530    7.5260 h1        1 U2Z      0.080200
     25 H52C        2.3940   -2.0550    7.0100 h1        1 U2Z      0.080200
     26 H11C        3.5100    2.0630    2.1110 hc        1 U2Z      0.071700
     27 H12C        4.8650    2.1860    3.3150 hc        1 U2Z      0.071700
     28 H13C        4.8440    0.8240    2.1190 hc        1 U2Z      0.071700
     29 H161       -0.0020    1.5980    4.4760 hn        1 U2Z      0.461800
     30 H162       -0.2520    0.4140    5.6240 hn        1 U2Z      0.461800
     31 H6          2.0580    0.4520    8.1620 ho        1 U2Z      0.412000
     32 H163       -1.5390    1.3000    5.0370 hn        1 U2Z      0.461800
@<TRIPOS>BOND
     1    1    2 ar  
     2    1    3 ar  
     3    1   17 1   
     4    2    4 ar  
     5    2   18 1   
     6    3    6 ar  
     7    3   19 1   
     8    4    7 ar  
     9    4   20 1   
    10    5    8 1   
    11    5    9 2   
    12    5   21 1   
    13    6    7 ar  
    14    6   11 1   
    15    7   14 1   
    16    8   12 1   
    17    8   13 2   
    18    9   10 1   
    19    9   14 1   
    20   10   26 1   
    21   10   27 1   
    22   10   28 1   
    23   11   15 1   
    24   11   22 1   
    25   11   23 1   
    26   12   16 1   
    27   12   24 1   
    28   12   25 1   
    29   13   14 1   
    30   15   29 1   
    31   15   30 1   
    32   15   32 1   
    33   16   31 1   
@<TRIPOS>SUBSTRUCTURE
     1 U2Z         1 TEMP              0 ****  ****    0 ROOT
