@<TRIPOS>MOLECULE
U2Z
   32    33     1     0     0
SMALL
bcc


@<TRIPOS>ATOM
      1 C12        -0.1720    0.3190    0.0560 ca        1 U2Z     -0.121000
      2 C11         1.2160    0.2040   -0.0150 ca        1 U2Z     -0.069000
      3 C13        -0.8000    0.2770    1.2950 ca        1 U2Z     -0.085000
      4 C10         1.9720    0.0880    1.1470 ca        1 U2Z     -0.142000
      5 C3          3.9040    0.2640    5.0120 cc        1 U2Z     -0.283300
      6 C14        -0.0640    0.1450    2.4820 ca        1 U2Z     -0.178300
      7 C9          1.3520    0.0990    2.4150 ca        1 U2Z      0.059800
      8 C4          2.8020   -0.4620    5.6050 cc        1 U2Z      0.312600
      9 C2          3.4780    0.5990    3.7180 cd        1 U2Z     -0.047600
     10 C1          4.2190    1.3900    2.7240 c3        1 U2Z     -0.053800
     11 C15        -0.8580   -0.0750    3.7290 c3        1 U2Z      0.183100
     12 C5          2.7030   -0.9640    7.0080 c3        1 U2Z      0.095100
     13 N7          1.7880   -0.5710    4.7100 nd        1 U2Z     -0.578800
     14 N8          2.1590    0.0840    3.5880 na        1 U2Z      0.116300
     15 N16        -0.6180    0.9460    4.8010 n4        1 U2Z     -0.834600
     16 O6          1.6920   -0.2410    7.6930 oh        1 U2Z     -0.612800
     17 H12        -0.7700    0.4230   -0.8640 ha        1 U2Z      0.166000
     18 H11         1.7210    0.1960   -0.9950 ha        1 U2Z      0.166000
     19 H13        -1.9010    0.3290    1.3390 ha        1 U2Z      0.148000
     20 H10         3.0640   -0.0360    1.0600 ha        1 U2Z      0.166000
     21 H3          4.8570    0.4960    5.4760 ha        1 U2Z      0.188000
     22 H151       -1.9630   -0.0480    3.4920 hx        1 U2Z      0.117200
     23 H152       -0.6240   -1.0970    4.1560 hx        1 U2Z      0.117200
     24 H51C        2.3660   -2.0380    7.0270 h1        1 U2Z      0.080200
     25 H52C        3.6990   -0.8710    7.5140 h1        1 U2Z      0.080200
     26 H11C        4.9110    2.0910    3.2570 hc        1 U2Z      0.071700
     27 H12C        3.5410    1.9910    2.0680 hc        1 U2Z      0.071700
     28 H13C        4.8410    0.7160    2.0780 hc        1 U2Z      0.071700
     29 H161        0.0460    1.6540    4.4750 hn        1 U2Z      0.461800
     30 H162       -1.4930    1.4080    5.0560 hn        1 U2Z      0.461800
     31 H6          2.1200    0.4900    8.1550 ho        1 U2Z      0.412000
     32 H163       -0.2260    0.4940    5.6410 hn        1 U2Z      0.461800
@<TRIPOS>BOND
     1    1    2 ar  
     2    1    3 ar  
     3    1   17 1   
     4    2    4 ar  
     5    2   18 1   
     6    3    6 ar  
     7    3   19 1   
     8    4    7 ar  
     9    4   20 1   
    10    5    8 1   
    11    5    9 2   
    12    5   21 1   
    13    6    7 ar  
    14    6   11 1   
    15    7   14 1   
    16    8   12 1   
    17    8   13 2   
    18    9   10 1   
    19    9   14 1   
    20   10   26 1   
    21   10   27 1   
    22   10   28 1   
    23   11   15 1   
    24   11   22 1   
    25   11   23 1   
    26   12   16 1   
    27   12   24 1   
    28   12   25 1   
    29   13   14 1   
    30   15   29 1   
    31   15   30 1   
    32   15   32 1   
    33   16   31 1   
@<TRIPOS>SUBSTRUCTURE
     1 U2Z         1 TEMP              0 ****  ****    0 ROOT
