@<TRIPOS>MOLECULE
U2Z
   31    26     1     0     0
SMALL
bcc


@<TRIPOS>ATOM
      1 C12        -1.6930    0.6930   -3.1930 c1        1 U2Z     -0.123250
      2 C11        -0.3090    0.5910   -3.2290 c1        1 U2Z     -0.123250
      3 C13        -2.3580    0.7040   -1.9750 c1        1 U2Z     -0.123250
      4 C10         0.4090    0.5000   -2.0480 c1        1 U2Z     -0.123250
      5 C3          2.2460   -0.6120    1.5060 c1        1 U2Z     -0.226000
      6 C14        -1.6470    0.6140   -0.8010 c1        1 U2Z     -0.048000
      7 C9         -0.2540    0.5110   -0.8340 c1        1 U2Z      0.051000
      8 C4          1.5460   -1.6760    1.0000 c1        1 U2Z     -0.159000
      9 C2          1.7800    0.5300    0.8970 c1        1 U2Z     -0.050000
     10 C1          2.2610    1.9530    1.1690 c2        1 U2Z     -0.160000
     11 C15        -2.3550    0.6870    0.5110 c3        1 U2Z     -0.047000
     12 C5          1.7440   -3.1550    1.3900 c2        1 U2Z      0.056000
     13 N7          0.6670   -1.2040    0.0980 n2        1 U2Z     -0.069000
     14 N8          0.8150    0.1760    0.0350 n3        1 U2Z     -0.087000
     15 N16        -3.5490    1.5370    0.3900 n3        1 U2Z     -0.353000
     16 O6          1.1560   -3.3960    2.6820 oh        1 U2Z     -0.321000
     17 H12        -2.1930    0.7560   -4.0140 ha        1 U2Z      0.144250
     18 H11         0.1550    0.5840   -4.0810 ha        1 U2Z      0.144250
     19 H13        -3.2870    0.7720   -1.9530 ha        1 U2Z      0.144250
     20 H10         1.3990    0.4270   -2.0720 ha        1 U2Z      0.144250
     21 H3          3.0460   -0.6680    2.1590 DU        1 U2Z      0.166000
     22 H151       -2.6240   -0.2110    0.7830 h1        1 U2Z      0.092000
     23 H152       -1.7560    1.0630    1.1790 h1        1 U2Z      0.092000
     24 H51C        1.3090   -3.7360    0.7170 h4        1 U2Z      0.094000
     25 H52C        2.7050   -3.3560    1.4250 h4        1 U2Z      0.094000
     26 H11C        1.6290    2.4050    1.7830 ha        1 U2Z      0.095000
     27 H12C        3.1630    1.9230    1.5860 ha        1 U2Z      0.095000
     28 H13C        2.3080    2.4480    0.3260 ha        1 U2Z      0.095000
     29 H161       -3.4470    2.2750    0.9030 hn        1 U2Z      0.148500
     30 H162       -4.2850    1.0690    0.6750 hn        1 U2Z      0.148500
     31 H6          1.4200   -4.2040    2.9860 ho        1 U2Z      0.210000
@<TRIPOS>BOND
     1    1    3 1   
     2    1   17 1   
     3    2    4 1   
     4    2   18 1   
     5    3   19 1   
     6    4   20 1   
     7    5    8 1   
     8    5    9 1   
     9    6    7 1   
    10    6   11 1   
    11    7   14 1   
    12    8   13 1   
    13    9   14 1   
    14   10   26 1   
    15   10   27 1   
    16   10   28 1   
    17   11   15 1   
    18   11   22 1   
    19   11   23 1   
    20   12   16 1   
    21   12   24 1   
    22   12   25 1   
    23   13   14 1   
    24   15   29 1   
    25   15   30 1   
    26   16   31 1   
@<TRIPOS>SUBSTRUCTURE
     1 U2Z         1 TEMP              0 ****  ****    0 ROOT
