@<TRIPOS>MOLECULE
U2Z
   31    32     1     0     0
SMALL
bcc


@<TRIPOS>ATOM
      1 C12        -3.9470   -0.2260    0.6240 ca        1 U2Z     -0.131000
      2 C11        -3.2480   -1.4230    0.7710 ca        1 U2Z     -0.123000
      3 C13        -3.2610    0.9380    0.2900 ca        1 U2Z     -0.125000
      4 C10        -1.8690   -1.4540    0.6000 ca        1 U2Z     -0.138000
      5 C3          2.2870   -0.9930   -0.5990 cc        1 U2Z     -0.262300
      6 C14        -1.8740    0.9340    0.1040 ca        1 U2Z     -0.067300
      7 C9         -1.1640   -0.2760    0.2680 ca        1 U2Z      0.045800
      8 C4          2.3620    0.1040    0.3390 cc        1 U2Z      0.295600
      9 C2          0.9190   -1.2710   -0.7300 cd        1 U2Z     -0.089600
     10 C1          0.2670   -2.2970   -1.5580 c3        1 U2Z     -0.031800
     11 C15        -1.1950    2.2280   -0.2510 c3        1 U2Z      0.207100
     12 C5          3.6040    0.7680    0.8130 c3        1 U2Z      0.112100
     13 N7          1.1100    0.4670    0.7440 nd        1 U2Z     -0.494800
     14 N8          0.2510   -0.3530    0.1170 na        1 U2Z      0.168300
     15 N16        -0.4150    2.1410   -1.4620 n3        1 U2Z     -0.910800
     16 O6          4.7130    0.0270    0.3190 oh        1 U2Z     -0.596800
     17 H12        -5.0370   -0.2010    0.7670 ha        1 U2Z      0.136000
     18 H11        -3.7850   -2.3480    1.0310 ha        1 U2Z      0.137000
     19 H13        -3.8180    1.8800    0.1690 ha        1 U2Z      0.135000
     20 H10        -1.3260   -2.4050    0.7260 ha        1 U2Z      0.145000
     21 H3          3.1280   -1.4790   -1.0790 ha        1 U2Z      0.175000
     22 H151       -1.9890    3.0360   -0.3130 h1        1 U2Z      0.040200
     23 H152       -0.5080    2.5200    0.5960 h1        1 U2Z      0.040200
     24 H51C        3.6510    1.8220    0.4210 h1        1 U2Z      0.036200
     25 H52C        3.6360    0.7930    1.9370 h1        1 U2Z      0.036200
     26 H11C        0.1900   -3.2590   -0.9900 hc        1 U2Z      0.052033
     27 H12C       -0.7620   -1.9880   -1.8690 hc        1 U2Z      0.052033
     28 H13C        0.8820   -2.4760   -2.4750 hc        1 U2Z      0.052033
     29 H161       -0.9960    1.9740   -2.2580 hn        1 U2Z      0.352800
     30 H162        0.1130    2.9790   -1.5990 hn        1 U2Z      0.352800
     31 H6          5.4990    0.4750    0.6520 ho        1 U2Z      0.400000
@<TRIPOS>BOND
     1    1    2 ar  
     2    1    3 ar  
     3    1   17 1   
     4    2    4 ar  
     5    2   18 1   
     6    3    6 ar  
     7    3   19 1   
     8    4    7 ar  
     9    4   20 1   
    10    5    8 1   
    11    5    9 2   
    12    5   21 1   
    13    6    7 ar  
    14    6   11 1   
    15    7   14 1   
    16    8   12 1   
    17    8   13 2   
    18    9   10 1   
    19    9   14 1   
    20   10   26 1   
    21   10   27 1   
    22   10   28 1   
    23   11   15 1   
    24   11   22 1   
    25   11   23 1   
    26   12   16 1   
    27   12   24 1   
    28   12   25 1   
    29   13   14 1   
    30   15   29 1   
    31   15   30 1   
    32   16   31 1   
@<TRIPOS>SUBSTRUCTURE
     1 U2Z         1 TEMP              0 ****  ****    0 ROOT
