@<TRIPOS>MOLECULE
U2Z
   32    33     1     0     0
SMALL
bcc


@<TRIPOS>ATOM
      1 C12        -0.1590    0.3090    0.0490 ca        1 U2Z     -0.121000
      2 C11         1.2300    0.2110   -0.0170 ca        1 U2Z     -0.069000
      3 C13        -0.7910    0.2550    1.2870 ca        1 U2Z     -0.085000
      4 C10         1.9840    0.1000    1.1470 ca        1 U2Z     -0.142000
      5 C3          3.9000    0.2870    5.0200 cc        1 U2Z     -0.283300
      6 C14        -0.0580    0.1280    2.4760 ca        1 U2Z     -0.178300
      7 C9          1.3600    0.0990    2.4130 ca        1 U2Z      0.059800
      8 C4          2.8040   -0.4530    5.6070 cc        1 U2Z      0.312600
      9 C2          3.4750    0.6210    3.7260 cd        1 U2Z     -0.047600
     10 C1          4.2100    1.4220    2.7360 c3        1 U2Z     -0.053800
     11 C15        -0.8530   -0.1060    3.7190 c3        1 U2Z      0.183100
     12 C5          2.7040   -0.9590    7.0090 c3        1 U2Z      0.095100
     13 N7          1.7940   -0.5720    4.7070 nd        1 U2Z     -0.578800
     14 N8          2.1620    0.0900    3.5900 na        1 U2Z      0.116300
     15 N16        -0.6300    0.9140    4.7950 nz        1 U2Z     -0.834600
     16 O6          1.6810   -0.2490    7.6900 oh        1 U2Z     -0.612800
     17 H12        -0.7540    0.4090   -0.8720 ha        1 U2Z      0.166000
     18 H11         1.7390    0.2120   -0.9960 ha        1 U2Z      0.166000
     19 H13        -1.8920    0.2940    1.3270 ha        1 U2Z      0.148000
     20 H10         3.0780   -0.0110    1.0640 ha        1 U2Z      0.166000
     21 H3          4.8480    0.5300    5.4890 ha        1 U2Z      0.188000
     22 H151       -1.9580   -0.0920    3.4780 hx        1 U2Z      0.117200
     23 H152       -0.6080   -1.1270    4.1430 hx        1 U2Z      0.117200
     24 H51C        3.6970   -0.8540    7.5200 h1        1 U2Z      0.080200
     25 H52C        2.3820   -2.0370    7.0240 h1        1 U2Z      0.080200
     26 H11C        3.5270    2.0180    2.0800 hc        1 U2Z      0.071700
     27 H12C        4.8920    2.1300    3.2740 hc        1 U2Z      0.071700
     28 H13C        4.8420    0.7580    2.0910 hc        1 U2Z      0.071700
     29 H161        0.0270    1.6320    4.4740 hn        1 U2Z      0.461800
     30 H162       -0.2360    0.4640    5.6350 hn        1 U2Z      0.461800
     31 H6          2.0990    0.4850    8.1560 ho        1 U2Z      0.412000
     32 H163       -1.5110    1.3650    5.0480 hn        1 U2Z      0.461800
@<TRIPOS>BOND
     1    1    2 ar  
     2    1    3 ar  
     3    1   17 1   
     4    2    4 ar  
     5    2   18 1   
     6    3    6 ar  
     7    3   19 1   
     8    4    7 ar  
     9    4   20 1   
    10    5    8 1   
    11    5    9 2   
    12    5   21 1   
    13    6    7 ar  
    14    6   11 1   
    15    7   14 1   
    16    8   12 1   
    17    8   13 2   
    18    9   10 1   
    19    9   14 1   
    20   10   26 1   
    21   10   27 1   
    22   10   28 1   
    23   11   15 1   
    24   11   22 1   
    25   11   23 1   
    26   12   16 1   
    27   12   24 1   
    28   12   25 1   
    29   13   14 1   
    30   15   29 1   
    31   15   30 1   
    32   15   32 1   
    33   16   31 1   
@<TRIPOS>SUBSTRUCTURE
     1 U2Z         1 TEMP              0 ****  ****    0 ROOT
