@<TRIPOS>MOLECULE
U31
   43    43     1     0     0
SMALL
bcc


@<TRIPOS>ATOM
      1 P           2.5400    4.5240    1.5710 p4        1 U31      1.711200
      2 O1P         2.8140    4.5400    3.0610 os        1 U31     -1.265000
      3 O2P         1.2450    5.2520    1.2880 o         1 U31     -0.912000
      4 O3P         3.6660    5.2070    0.8460 o         1 U31     -0.960800
      5 O5'         2.4210    3.0190    1.0700 os        1 U31     -0.569200
      6 C5'         1.2530    2.3250    1.3420 c3        1 U31      0.224400
      7 C4'         0.7630    1.7620    0.1700 c3        1 U31      0.067100
      8 O4'         1.7220    0.7230   -0.3520 os        1 U31     -0.431600
      9 C3'        -0.6100    0.9830    0.4560 c3        1 U31      0.082100
     10 O3'        -1.7610    1.7210   -0.1550 oh        1 U31     -0.660800
     11 C2'        -0.4710   -0.1220   -0.0890 c3        1 U31      0.107100
     12 O2'        -1.0000   -0.0750   -1.4820 os        1 U31     -0.429600
     13 C1'         1.1430   -0.4180   -0.1090 c3        1 U31      0.301500
     14 N1          1.5570   -0.9130    1.1380 n         1 U31     -0.372000
     15 C2          2.9480   -0.7430    1.5620 c         1 U31      0.797500
     16 O2          3.7330   -0.1610    0.8430 o         1 U31     -0.700500
     17 N3          3.4000   -1.3010    2.8360 n         1 U31     -0.599500
     18 C4          2.5050   -2.1010    3.6280 c         1 U31      0.716700
     19 O4          2.8920   -2.6040    4.6490 o         1 U31     -0.691500
     20 C5          1.1560   -2.3590    3.1570 cc        1 U31     -0.370200
     21 C6          0.6810   -1.7310    1.8960 cd        1 U31      0.072600
     22 CA'        -2.0070   -1.1040   -1.7700 c3        1 U31      0.155400
     23 CB'        -2.4580   -0.9910   -3.2620 c3        1 U31     -0.141400
     24 CC         -3.6010   -2.0290   -3.5440 c3        1 U31      0.145800
     25 ND'        -3.9800   -1.9750   -4.9880 n3        1 U31     -0.908800
     26 H5'1        1.4390    1.6160    1.9900 h1        1 U31     -0.001300
     27 H5'2        0.5800    2.9470    1.7170 h1        1 U31     -0.001300
     28 H4'         0.6190    2.4650   -0.5120 h1        1 U31      0.049700
     29 H3'        -0.7430    0.8740    1.4100 h1        1 U31      0.155700
     30 HA         -2.2270    2.1150    0.4800 ho        1 U31      0.492000
     31 H2'        -0.9350   -0.8130    0.4250 h1        1 U31      0.052700
     32 H1'         1.3580   -1.0610   -0.8140 h2        1 U31      0.109700
     33 H3          4.2560   -1.1690    3.1110 hn        1 U31      0.321500
     34 H5          0.5380   -2.9090    3.7010 ha        1 U31      0.188000
     35 H6         -0.2240   -1.9020    1.5760 h4        1 U31      0.307000
     36 HA'1       -2.7800   -0.9750   -1.1850 h1        1 U31      0.036200
     37 HA'2       -1.6180   -1.9980   -1.6100 h1        1 U31      0.036200
     38 HB'1       -2.7860   -0.0950   -3.4340 hc        1 U31      0.063200
     39 HB'2       -1.6980   -1.1780   -3.8460 hc        1 U31      0.063200
     40 HCC1       -4.3830   -1.8120   -2.9930 h1        1 U31      0.042700
     41 HCC2       -3.2810   -2.9430   -3.3200 h1        1 U31      0.042700
     42 HD'1       -3.7870   -2.7910   -5.3910 hn        1 U31      0.336300
     43 HD'2       -4.8810   -1.8010   -5.0630 hn        1 U31      0.336300
@<TRIPOS>BOND
     1    1    3 1   
     2    1    4 2   
     3    1    5 1   
     4    5    6 1   
     5    6    7 1   
     6    6   26 1   
     7    6   27 1   
     8    7    8 1   
     9    7    9 1   
    10    7   28 1   
    11    8   13 1   
    12    9   10 1   
    13    9   11 1   
    14    9   29 1   
    15   10   30 1   
    16   11   12 1   
    17   11   13 1   
    18   11   31 1   
    19   12   22 1   
    20   13   14 1   
    21   13   32 1   
    22   14   15 1   
    23   14   21 1   
    24   15   16 2   
    25   15   17 1   
    26   17   18 1   
    27   17   33 1   
    28   18   19 2   
    29   18   20 1   
    30   20   21 2   
    31   20   34 1   
    32   21   35 1   
    33   22   23 1   
    34   22   36 1   
    35   22   37 1   
    36   23   24 1   
    37   23   38 1   
    38   23   39 1   
    39   24   25 1   
    40   24   40 1   
    41   24   41 1   
    42   25   42 1   
    43   25   43 1   
@<TRIPOS>SUBSTRUCTURE
     1 U31         1 TEMP              0 ****  ****    0 ROOT
