@<TRIPOS>MOLECULE
U31
   43    44     1     0     0
SMALL
bcc


@<TRIPOS>ATOM
      1 P          -0.8040    0.0450   -2.9360 p5        1 U31      1.342900
      2 O1P        -0.7790   -0.1700   -4.4110 o         1 U31     -0.923167
      3 O2P         0.4730    0.5060   -2.2570 o         1 U31     -0.923167
      4 O3P        -2.0100    0.6770   -2.2810 o         1 U31     -0.923167
      5 O5'        -0.9900   -1.5330   -2.2400 os        1 U31     -0.569200
      6 C5'        -0.1160   -1.9170   -1.2630 c3        1 U31      0.224400
      7 C4'        -0.6450   -1.6340    0.1660 c3        1 U31      0.067100
      8 O4'         0.4180   -1.9160    1.1090 os        1 U31     -0.431600
      9 C3'        -1.0870   -0.1740    0.3890 c3        1 U31      0.082100
     10 O3'        -2.4860   -0.0520    0.4340 oh        1 U31     -0.660800
     11 C2'        -0.4030    0.2760    1.6880 c3        1 U31      0.107100
     12 O2'        -1.1670    0.1590    2.8880 os        1 U31     -0.429600
     13 C1'         0.7550   -0.7610    1.8650 c3        1 U31      0.301500
     14 N1          2.0620   -0.2180    1.4620 n         1 U31     -0.372000
     15 C2          3.1380   -0.3550    2.3690 c         1 U31      0.797500
     16 O2          3.0040   -0.8290    3.5260 o         1 U31     -0.700500
     17 N3          4.4130    0.0900    1.9790 n         1 U31     -0.599500
     18 C4          4.6770    0.6310    0.7040 c         1 U31      0.716700
     19 O4          5.8500    0.9910    0.4630 o         1 U31     -0.691500
     20 C5          3.5380    0.7140   -0.1940 cc        1 U31     -0.370200
     21 C6          2.2980    0.2830    0.1880 cd        1 U31      0.072600
     22 CA'        -2.2640    1.0630    2.9710 c3        1 U31      0.155400
     23 CB'        -3.5210    0.2550    3.2450 c3        1 U31     -0.141400
     24 CC         -4.6820    1.1800    3.5960 c3        1 U31      0.145800
     25 ND'        -5.9720    0.5470    3.7510 n3        1 U31     -0.908800
     26 H5'1        0.8860   -1.4170   -1.3830 h1        1 U31     -0.001300
     27 H5'2        0.0350   -3.0360   -1.3260 h1        1 U31     -0.001300
     28 H4'        -1.4750   -2.3420    0.4280 h1        1 U31      0.049700
     29 H3'        -0.6870    0.4570   -0.4780 h1        1 U31      0.155700
     30 HA         -2.7470    0.1550   -0.4960 ho        1 U31      0.492000
     31 H2'        -0.0360    1.3310    1.5960 h1        1 U31      0.052700
     32 H1'         0.8380   -1.1040    2.9400 h2        1 U31      0.109700
     33 H3          5.1490   -0.0190    2.6370 hn        1 U31      0.321500
     34 H5          3.7030    1.1190   -1.2000 ha        1 U31      0.188000
     35 H6          1.4250    0.3350   -0.5450 h4        1 U31      0.307000
     36 HA'1       -2.3850    1.6600    2.0300 h1        1 U31      0.036200
     37 HA'2       -2.0370    1.7510    3.8320 h1        1 U31      0.036200
     38 HB'1       -3.3290   -0.4640    4.0830 hc        1 U31      0.063200
     39 HB'2       -3.7510   -0.3460    2.3240 hc        1 U31      0.063200
     40 HCC1       -4.7750    1.9670    2.7950 h1        1 U31      0.042700
     41 HCC2       -4.4490    1.7080    4.5650 h1        1 U31      0.042700
     42 HD'1       -6.2920    0.2020    2.8640 hn        1 U31      0.336300
     43 HD'2       -5.8970   -0.2360    4.3720 hn        1 U31      0.336300
@<TRIPOS>BOND
     1    1    2 1   
     2    1    3 1   
     3    1    4 1   
     4    1    5 1   
     5    5    6 1   
     6    6    7 1   
     7    6   26 1   
     8    6   27 1   
     9    7    8 1   
    10    7    9 1   
    11    7   28 1   
    12    8   13 1   
    13    9   10 1   
    14    9   11 1   
    15    9   29 1   
    16   10   30 1   
    17   11   12 1   
    18   11   13 1   
    19   11   31 1   
    20   12   22 1   
    21   13   14 1   
    22   13   32 1   
    23   14   15 1   
    24   14   21 1   
    25   15   16 2   
    26   15   17 1   
    27   17   18 1   
    28   17   33 1   
    29   18   19 2   
    30   18   20 1   
    31   20   21 2   
    32   20   34 1   
    33   21   35 1   
    34   22   23 1   
    35   22   36 1   
    36   22   37 1   
    37   23   24 1   
    38   23   38 1   
    39   23   39 1   
    40   24   25 1   
    41   24   40 1   
    42   24   41 1   
    43   25   42 1   
    44   25   43 1   
@<TRIPOS>SUBSTRUCTURE
     1 U31         1 TEMP              0 ****  ****    0 ROOT
