@<TRIPOS>MOLECULE
U32
   36    35     1     0     0
SMALL
bcc


@<TRIPOS>ATOM
      1 O1        252.3860-1093.3380  427.1990 o         1 U32     -0.836500
      2 O2        251.8940-1091.8060  428.9900 o         1 U32     -0.836500
      3 C2       -199.7560  879.8420 -347.7250 c1        1 U32      0.035000
      4 C3       -200.2880  881.0700 -347.0740 c2        1 U32     -0.347000
      5 C4       -201.0430  882.0400 -347.8840 c3        1 U32     -0.076000
      6 C5       -201.5150  883.2240 -347.0670 c3        1 U32     -0.225500
      7 C6       -200.2240  882.4930 -349.0860 c3        1 U32     -0.225500
      8 S7       -199.9520  881.1590 -345.5050 ss        1 U32      0.921000
      9 C8       -199.1050  879.6550 -345.5020 c2        1 U32     -0.499000
     10 N9       -199.1170  879.0990 -346.8300 n3        1 U32     -0.109000
     11 N11       254.3230-1092.1060  428.2730 n4        1 U32     -0.511000
     12 C13       253.3230-1091.0640  425.5440 c2        1 U32     -0.209000
     13 C14       252.5460-1090.8330  426.7650 c2        1 U32     -0.941000
     14 C16       251.8820-1089.6700  426.9420 c2        1 U32      0.087000
     15 C17      -197.2380  876.8200 -344.3920 c1        1 U32      0.432000
     16 C18      -197.8810  877.9420 -344.4360 c1        1 U32     -0.557000
     17 C19       254.0270-1090.1250  424.9110 c2        1 U32     -0.123000
     18 S16       252.4870-1092.0950  427.7800 s6        1 U32      2.810000
     19 H2       -198.6740  878.2240 -347.0320 hn        1 U32      0.307000
     20 H4       -201.9500  881.4830 -348.2880 hc        1 U32      0.168000
     21 H5C1     -202.1500  883.8890 -347.7050 hc        1 U32      0.103667
     22 H5C2     -202.1290  882.8920 -346.1940 hc        1 U32      0.103667
     23 H5C3     -200.6510  883.8280 -346.6980 hc        1 U32      0.103667
     24 H6C1     -200.8710  883.1120 -349.7530 hc        1 U32      0.103667
     25 H6C2     -199.3540  883.1110 -348.7590 hc        1 U32      0.103667
     26 H6C3     -199.8520  881.6090 -349.6600 hc        1 U32      0.103667
     27 H111      254.8760-1091.4690  427.7050 hn        1 U32      0.258000
     28 H112      254.4400-1091.8420  429.2500 hn        1 U32      0.258000
     29 H13       253.2410-1092.0870  425.1270 ha        1 U32      0.165000
     30 H90       254.5790-1090.3450  423.9830 ha        1 U32      0.143000
     31 H16       251.9000-1088.8660  426.1850 ha        1 U32      0.168000
     32 H17       251.2800-1089.4640  427.8480 ha        1 U32      0.168000
     33 H19       254.1030-1089.0850  425.2610 ha        1 U32      0.143000
     34 N90      -198.5140  879.0700 -344.4280 n3        1 U32      0.271000
     35 H113      254.7150-1093.0410  428.1560 hn        1 U32      0.258000
     36 H902     -198.5830  879.5740 -343.5460 hn        1 U32      0.281000
@<TRIPOS>BOND
     1    1   18 1   
     2    2   18 1   
     3    3    4 1   
     4    3   10 1   
     5    4    5 1   
     6    4    8 1   
     7    5    6 1   
     8    5    7 1   
     9    5   20 1   
    10    6   21 1   
    11    6   22 1   
    12    6   23 1   
    13    7   24 1   
    14    7   25 1   
    15    7   26 1   
    16    8    9 1   
    17    9   10 1   
    18    9   34 1   
    19   10   19 1   
    20   11   18 1   
    21   11   27 1   
    22   11   28 1   
    23   11   35 1   
    24   12   13 1   
    25   12   17 1   
    26   12   29 1   
    27   13   14 1   
    28   13   18 1   
    29   14   31 1   
    30   14   32 1   
    31   15   16 1   
    32   16   34 1   
    33   17   30 1   
    34   17   33 1   
    35   34   36 1   
@<TRIPOS>SUBSTRUCTURE
     1 U32         1 TEMP              0 ****  ****    0 ROOT
