@<TRIPOS>MOLECULE
U32
   35    35     1     0     0
SMALL
bcc


@<TRIPOS>ATOM
      1 O1          0.3550   -0.0720   -0.0650 o         1 U32     -0.592800
      2 O2          2.5740   -0.2250    0.8150 o         1 U32     -0.592800
      3 C2          0.3330    7.6140   -3.1410 c1        1 U32     -0.004900
      4 C3          0.6560    7.5860   -4.5390 c2        1 U32     -0.281700
      5 C4          0.0540    8.5350   -5.4990 c3        1 U32      0.001500
      6 C5          0.3550    9.9700   -5.1000 c3        1 U32     -0.101600
      7 C6          0.5170    8.2640   -6.9170 c3        1 U32     -0.101600
      8 S7          1.7330    6.4110   -4.9200 ss        1 U32      0.418200
      9 C8          1.8450    5.8760   -3.3340 ce        1 U32      0.063200
     10 N9          1.0100    6.6540   -2.4850 nh        1 U32     -0.209400
     11 N11         2.1370   -1.1470   -1.5500 n4        1 U32     -0.774500
     12 C13         1.3180    1.9300   -2.0770 ce        1 U32     -0.152000
     13 C14         2.1450    1.4600   -0.9680 ce        1 U32     -0.691100
     14 C16         3.2970    2.1800   -0.6460 cf        1 U32      0.199000
     15 C17         3.7290    3.3950   -1.1490 cf        1 U32     -0.343100
     16 C18         3.0570    4.1830   -2.0340 c1        1 U32      0.498500
     17 C19         0.0120    2.1910   -2.0020 c2        1 U32     -0.171000
     18 S16         1.7060    0.1880   -0.1820 sy        1 U32      1.506800
     19 H2          0.9380    6.5040   -1.5060 hn        1 U32      0.321700
     20 H4         -1.0690    8.3910   -5.4510 hc        1 U32      0.091700
     21 H5C1       -0.2070   10.6680   -5.7660 hc        1 U32      0.049700
     22 H5C2        0.0430   10.1460   -4.0420 hc        1 U32      0.049700
     23 H5C3        1.4460   10.1870   -5.1960 hc        1 U32      0.049700
     24 H6C1        1.6190    8.4180   -7.0140 hc        1 U32      0.049700
     25 H6C2        0.2680    7.2200   -7.2250 hc        1 U32      0.049700
     26 H6C3        0.0060    8.9670   -7.6200 hc        1 U32      0.049700
     27 H111        2.4450   -0.7060   -2.4080 hn        1 U32      0.443800
     28 H112        2.8720   -1.7650   -1.2220 hn        1 U32      0.443800
     29 H13         1.8700    2.0690   -3.0240 ha        1 U32      0.125000
     30 H90        -0.5620    2.5230   -2.8790 ha        1 U32      0.141000
     31 H16         4.6980    3.8010   -0.7950 ha        1 U32      0.194000
     32 H17         3.9590    1.7380    0.1370 ha        1 U32      0.162000
     33 H19        -0.5780    2.0700   -1.0810 ha        1 U32      0.141000
     34 N90         2.6420    4.8390   -2.9470 ne        1 U32     -0.474700
     35 H113        1.3180   -1.7100   -1.7570 hn        1 U32      0.443800
@<TRIPOS>BOND
     1    1   18 2   
     2    2   18 2   
     3    3    4 2   
     4    3   10 2   
     5    4    5 1   
     6    4    8 1   
     7    5    6 1   
     8    5    7 1   
     9    5   20 1   
    10    6   21 1   
    11    6   22 1   
    12    6   23 1   
    13    7   24 1   
    14    7   25 1   
    15    7   26 1   
    16    8    9 1   
    17    9   10 2   
    18    9   34 1   
    19   10   19 1   
    20   11   18 1   
    21   11   27 1   
    22   11   28 1   
    23   11   35 1   
    24   12   13 1   
    25   12   17 2   
    26   12   29 1   
    27   13   14 2   
    28   13   18 1   
    29   14   15 1   
    30   14   32 1   
    31   15   16 2   
    32   15   31 1   
    33   16   34 2   
    34   17   30 1   
    35   17   33 1   
@<TRIPOS>SUBSTRUCTURE
     1 U32         1 TEMP              0 ****  ****    0 ROOT
