@<TRIPOS>MOLECULE
U32
   34    35     1     0     0
SMALL
bcc


@<TRIPOS>ATOM
      1 O1         -1.9270    0.6940   -4.4850 o         1 U32     -0.661800
      2 O2          0.0860   -0.2140   -5.4690 o         1 U32     -0.661800
      3 C2         -0.8700   -1.6160    3.3830 cc        1 U32      0.328200
      4 C3         -0.4390   -0.4920    4.0900 cd        1 U32     -0.191700
      5 C4         -0.9730   -0.0810    5.4070 c3        1 U32      0.006600
      6 C5          0.1090   -0.0980    6.4720 c3        1 U32     -0.093100
      7 C6         -1.6250    1.2890    5.3370 c3        1 U32     -0.093100
      8 S7          0.7570    0.3060    3.2300 ss        1 U32     -0.029300
      9 C8          0.6630   -0.8680    1.9580 cd        1 U32      0.540300
     10 N9         -0.2510   -1.8380    2.1760 nc        1 U32     -0.636000
     11 N11         0.0500    2.1300   -4.7370 n3        1 U32     -1.026700
     12 C13        -0.7200    0.4830   -1.8490 ca        1 U32      0.014000
     13 C14         0.0470    0.2310   -2.9930 ca        1 U32     -0.427500
     14 C16         1.2810   -0.4110   -2.8280 ca        1 U32      0.014000
     15 C17         1.7510   -0.7730   -1.5760 ca        1 U32     -0.198500
     16 C18         0.9820   -0.4900   -0.4190 ca        1 U32      0.201600
     17 C19        -0.2760    0.1350   -0.5820 ca        1 U32     -0.198500
     18 S16        -0.5160    0.6440   -4.5220 sy        1 U32      1.533200
     19 H2         -1.6450   -2.3190    3.7120 h4        1 U32      0.049100
     20 H4         -1.7670   -0.8280    5.7080 hc        1 U32      0.063700
     21 H5C1       -0.3300    0.1730    7.4620 hc        1 U32      0.041033
     22 H5C2        0.5650   -1.1130    6.5500 hc        1 U32      0.041033
     23 H5C3        0.9140    0.6370    6.2290 hc        1 U32      0.041033
     24 H6C1       -0.8760    2.0680    5.0550 hc        1 U32      0.041033
     25 H6C2       -2.4460    1.2930    4.5810 hc        1 U32      0.041033
     26 H6C3       -2.0550    1.5540    6.3330 hc        1 U32      0.041033
     27 H111       -0.4470    2.9460   -4.4850 hn        1 U32      0.444800
     28 H112        0.9230    2.3280   -5.1560 hn        1 U32      0.444800
     29 H13        -1.7140    0.9530   -1.9620 ha        1 U32      0.153000
     30 H90         2.2280   -1.4730    0.8390 hn        1 U32      0.420800
     31 H16         1.8830   -0.6530   -3.7230 ha        1 U32      0.153000
     32 H17         2.7230   -1.2810   -1.4880 ha        1 U32      0.144500
     33 H19        -0.9130    0.3380    0.2920 ha        1 U32      0.144500
     34 N90         1.5330   -0.7480    0.8520 nh        1 U32     -0.685300
@<TRIPOS>BOND
     1    1   18 2   
     2    2   18 2   
     3    3    4 2   
     4    3   10 1   
     5    3   19 1   
     6    4    5 1   
     7    4    8 1   
     8    5    6 1   
     9    5    7 1   
    10    5   20 1   
    11    6   21 1   
    12    6   22 1   
    13    6   23 1   
    14    7   24 1   
    15    7   25 1   
    16    7   26 1   
    17    8    9 1   
    18    9   10 2   
    19    9   34 1   
    20   11   18 1   
    21   11   27 1   
    22   11   28 1   
    23   12   13 ar  
    24   12   17 ar  
    25   12   29 1   
    26   13   14 ar  
    27   13   18 1   
    28   14   15 ar  
    29   14   31 1   
    30   15   16 ar  
    31   15   32 1   
    32   16   17 ar  
    33   16   34 1   
    34   17   33 1   
    35   30   34 1   
@<TRIPOS>SUBSTRUCTURE
     1 U32         1 TEMP              0 ****  ****    0 ROOT
