@<TRIPOS>MOLECULE
U32
   35    35     1     0     0
SMALL
bcc


@<TRIPOS>ATOM
      1 O1          0.2960   -0.0380   -0.1440 o         1 U32     -0.592800
      2 O2          2.4900   -0.1880    0.7980 o         1 U32     -0.592800
      3 C2          0.3390    7.6690   -3.1710 c1        1 U32     -0.004900
      4 C3          0.6990    7.6480   -4.5600 c2        1 U32     -0.281700
      5 C4          0.1200    8.6020   -5.5300 c3        1 U32      0.001500
      6 C5          0.4130   10.0350   -5.1200 c3        1 U32     -0.101600
      7 C6          0.6150    8.3350   -6.9390 c3        1 U32     -0.101600
      8 S7          1.7880    6.4780   -4.9180 ss        1 U32      0.418200
      9 C8          1.8600    5.9350   -3.3320 ce        1 U32      0.063200
     10 N9          1.0000    6.7070   -2.5020 nu        1 U32     -0.209400
     11 N11         2.1240   -1.0980   -1.5830 nz        1 U32     -0.774500
     12 C13         1.3100    1.9790   -2.1160 ce        1 U32     -0.152000
     13 C14         2.1070    1.5050   -0.9860 ce        1 U32     -0.691100
     14 C16         3.2470    2.2270   -0.6270 cf        1 U32      0.199000
     15 C17         3.6880    3.4460   -1.1110 cf        1 U32     -0.343100
     16 C18         3.0390    4.2370   -2.0100 c1        1 U32      0.498500
     17 C19         0.0020    2.2350   -2.0760 c2        1 U32     -0.171000
     18 S16         1.6490    0.2280   -0.2200 sy        1 U32      1.506800
     19 H2          0.9030    6.5510   -1.5260 hn        1 U32      0.321700
     20 H4         -1.0040    8.4590   -5.5090 hc        1 U32      0.091700
     21 H5C1        0.0770   10.2080   -4.0690 hc        1 U32      0.049700
     22 H5C2        1.5060   10.2510   -5.1890 hc        1 U32      0.049700
     23 H5C3       -0.1320   10.7360   -5.7960 hc        1 U32      0.049700
     24 H6C1        1.7200    8.4850   -7.0090 hc        1 U32      0.049700
     25 H6C2        0.1240    9.0430   -7.6500 hc        1 U32      0.049700
     26 H6C3        0.3700    7.2920   -7.2570 hc        1 U32      0.049700
     27 H111        2.4550   -0.6510   -2.4290 hn        1 U32      0.443800
     28 H112        1.3130   -1.6630   -1.8160 hn        1 U32      0.443800
     29 H13         1.8890    2.1260   -3.0460 ha        1 U32      0.125000
     30 H90        -0.5480    2.5710   -2.9680 ha        1 U32      0.141000
     31 H16         4.6470    3.8530   -0.7280 ha        1 U32      0.194000
     32 H17         3.8880    1.7820    0.1720 ha        1 U32      0.162000
     33 H19        -0.6140    2.1070   -1.1730 ha        1 U32      0.141000
     34 N90         2.6480    4.8970   -2.9300 ne        1 U32     -0.474700
     35 H113        2.8520   -1.7160   -1.2380 hn        1 U32      0.443800
@<TRIPOS>BOND
     1    1   18 2   
     2    2   18 2   
     3    3    4 2   
     4    3   10 2   
     5    4    5 1   
     6    4    8 1   
     7    5    6 1   
     8    5    7 1   
     9    5   20 1   
    10    6   21 1   
    11    6   22 1   
    12    6   23 1   
    13    7   24 1   
    14    7   25 1   
    15    7   26 1   
    16    8    9 1   
    17    9   10 2   
    18    9   34 1   
    19   10   19 1   
    20   11   18 1   
    21   11   27 1   
    22   11   28 1   
    23   11   35 1   
    24   12   13 1   
    25   12   17 2   
    26   12   29 1   
    27   13   14 2   
    28   13   18 1   
    29   14   15 1   
    30   14   32 1   
    31   15   16 2   
    32   15   31 1   
    33   16   34 2   
    34   17   30 1   
    35   17   33 1   
@<TRIPOS>SUBSTRUCTURE
     1 U32         1 TEMP              0 ****  ****    0 ROOT
