@<TRIPOS>MOLECULE
U33
   28    29     1     0     0
SMALL
bcc


@<TRIPOS>ATOM
      1 N1         -0.0910   -0.3770    0.3860 n         1 U33     -0.383000
      2 C2          1.3210   -0.2920    0.5540 c         1 U33      0.811500
      3 N3          2.0890    0.1860   -0.5140 n         1 U33     -0.584500
      4 C4          1.5450    0.6560   -1.7240 c         1 U33      0.727700
      5 C5          0.0740    0.6230   -1.8130 cc        1 U33     -0.240500
      6 C6         -0.6600    0.1400   -0.7680 cd        1 U33      0.080600
      7 O2          1.8860   -0.6530    1.6100 o         1 U33     -0.649500
      8 O4          2.3280    1.0540   -2.5980 o         1 U33     -0.579500
      9 C1'        -0.9790   -0.7750    1.4830 c3        1 U33      0.316500
     10 C2'        -0.4790   -1.9370    2.3610 c3        1 U33     -0.137400
     11 C3'        -0.1290   -1.3030    3.7130 c3        1 U33      0.124100
     12 C4'        -0.6800    0.1340    3.6530 c3        1 U33      0.097100
     13 O3'        -0.7840   -1.9610    4.7820 oh        1 U33     -0.590800
     14 O4'        -1.2450    0.3370    2.3460 os        1 U33     -0.431600
     15 C5'         0.4080    1.1790    3.8920 c3        1 U33      0.116400
     16 O5'        -0.1240    2.4860    3.8610 oh        1 U33     -0.592800
     17 BR         -0.7720    1.2430   -3.3450 br        1 U33     -0.002700
     18 H3          3.0800    0.2100   -0.3830 hn        1 U33      0.357500
     19 H6         -1.7690    0.1210   -0.7990 h4        1 U33      0.178000
     20 H1'        -1.9780   -1.0240    1.0110 h2        1 U33      0.088700
     21 H2'1       -1.3120   -2.6760    2.4840 hc        1 U33      0.082700
     22 H2'2        0.4030   -2.4630    1.9230 hc        1 U33      0.082700
     23 H3'         0.9850   -1.3000    3.8710 h1        1 U33      0.078700
     24 H4'        -1.5330    0.2780    4.3720 h1        1 U33      0.103700
     25 HA         -0.3280   -2.8010    4.9130 ho        1 U33      0.409000
     26 H5'1        1.2240    1.0690    3.1270 h1        1 U33      0.062700
     27 H5'2        0.8300    1.0600    4.9250 h1        1 U33      0.062700
     28 H5'        -0.5690    2.5920    3.0100 ho        1 U33      0.409000
@<TRIPOS>BOND
     1    1    2 1   
     2    1    6 1   
     3    1    9 1   
     4    2    3 1   
     5    2    7 2   
     6    3    4 1   
     7    3   18 1   
     8    4    5 1   
     9    4    8 2   
    10    5    6 2   
    11    5   17 1   
    12    6   19 1   
    13    9   10 1   
    14    9   14 1   
    15    9   20 1   
    16   10   11 1   
    17   10   21 1   
    18   10   22 1   
    19   11   12 1   
    20   11   13 1   
    21   11   23 1   
    22   12   14 1   
    23   12   15 1   
    24   12   24 1   
    25   13   25 1   
    26   15   16 1   
    27   15   26 1   
    28   15   27 1   
    29   16   28 1   
@<TRIPOS>SUBSTRUCTURE
     1 U33         1 TEMP              0 ****  ****    0 ROOT
