@<TRIPOS>MOLECULE
U34
   35    36     1     0     0
SMALL
bcc


@<TRIPOS>ATOM
      1 OXT         2.9060    1.8660   -3.1990 oh        1 U34     -0.692800
      2 O3P         3.7060   -1.7650   -3.5270 o         1 U34     -0.928833
      3 P           4.0770   -0.3740   -3.9920 p5        1 U34      1.191700
      4 O1P         5.5550   -0.1080   -4.0870 o         1 U34     -0.928833
      5 O2P         3.2280    0.1540   -5.1310 o         1 U34     -0.928833
      6 C5'         2.6190    0.0030   -1.7040 c3        1 U34     -0.120400
      7 C4'         2.9200    0.2240   -0.2340 c3        1 U34      0.108100
      8 O4'         2.6400    1.5870    0.1920 os        1 U34     -0.406600
      9 C3'         2.0550   -0.6820    0.6730 c3        1 U34      0.115100
     10 O3'         2.7560   -1.1540    1.8030 oh        1 U34     -0.584800
     11 C2'         0.8600    0.2170    1.0650 c3        1 U34      0.072100
     12 O2'         0.5810    0.0640    2.4410 oh        1 U34     -0.601800
     13 C1'         1.3630    1.6740    0.7900 c3        1 U34      0.275500
     14 N1          0.4290    2.4780   -0.0120 n         1 U34     -0.378000
     15 C2         -0.7380    2.9260    0.6440 c         1 U34      0.797500
     16 O2         -1.0140    2.5700    1.8210 o         1 U34     -0.717500
     17 N3         -1.6070    3.7870   -0.0380 n         1 U34     -0.591500
     18 C4         -1.3680    4.2150   -1.3630 c         1 U34      0.718700
     19 O4         -2.1970    4.9960   -1.8720 o         1 U34     -0.669500
     20 C5         -0.1640    3.6940   -1.9920 cc        1 U34     -0.366200
     21 C           3.5420    0.7400   -2.6350 c3        1 U34     -0.042100
     22 C6          0.6830    2.8610   -1.3190 cd        1 U34      0.087600
     23 HXT         2.6910    1.6320   -4.1280 ho        1 U34      0.445000
     24 H5'1        2.7450   -1.1050   -1.9280 hc        1 U34      0.073700
     25 H5'2        1.5460    0.2810   -1.8890 hc        1 U34      0.073700
     26 H4'         4.0160    0.1010   -0.0210 h1        1 U34      0.096700
     27 H3'         1.7260   -1.6070    0.1310 h1        1 U34      0.112700
     28 HA          2.9830   -0.3810    2.3350 ho        1 U34      0.395000
     29 H2'        -0.0430   -0.0410    0.4530 h1        1 U34      0.061700
     30 HB         -0.1330    0.6880    2.6400 ho        1 U34      0.420000
     31 H1'         1.5020    2.2290    1.7690 h2        1 U34      0.071700
     32 H3         -2.4240    4.0860    0.4440 hn        1 U34      0.328500
     33 H5          0.0320    3.9830   -3.0320 ha        1 U34      0.187000
     34 H           4.4480    1.1170   -2.1030 h1        1 U34      0.038700
     35 H6          1.6210    2.4390   -1.7890 h4        1 U34      0.285000
@<TRIPOS>BOND
     1    1   21 1   
     2    1   23 1   
     3    2    3 1   
     4    3    4 1   
     5    3    5 1   
     6    3   21 1   
     7    6    7 1   
     8    6   21 1   
     9    6   24 1   
    10    6   25 1   
    11    7    8 1   
    12    7    9 1   
    13    7   26 1   
    14    8   13 1   
    15    9   10 1   
    16    9   11 1   
    17    9   27 1   
    18   10   28 1   
    19   11   12 1   
    20   11   13 1   
    21   11   29 1   
    22   12   30 1   
    23   13   14 1   
    24   13   31 1   
    25   14   15 1   
    26   14   22 1   
    27   15   16 2   
    28   15   17 1   
    29   17   18 1   
    30   17   32 1   
    31   18   19 2   
    32   18   20 1   
    33   20   22 2   
    34   20   33 1   
    35   21   34 1   
    36   22   35 1   
@<TRIPOS>SUBSTRUCTURE
     1 U34         1 TEMP              0 ****  ****    0 ROOT
