@<TRIPOS>MOLECULE
U34
   35    36     1     0     0
SMALL
bcc


@<TRIPOS>ATOM
      1 OXT        -2.1580    1.3750    2.5200 oh        1 U34     -0.618800
      2 O3P         0.4900    1.4710    4.0120 o         1 U34     -0.746167
      3 P           0.2050    2.4880    2.9360 p5        1 U34      1.243700
      4 O1P         1.4780    2.7740    2.1580 o         1 U34     -0.746167
      5 O2P        -0.2970    3.7720    3.5750 o         1 U34     -0.746167
      6 C5'        -0.5050    0.6690    0.9680 c3        1 U34     -0.086400
      7 C4'        -1.6560   -0.1380    0.3300 c3        1 U34      0.118100
      8 O4'        -1.5300   -0.1160   -1.2670 os        1 U34     -0.417600
      9 C3'        -1.5770   -1.3710    0.6820 c3        1 U34      0.120100
     10 O3'        -2.9520   -1.9840    0.7560 oh        1 U34     -0.591800
     11 C2'        -0.7440   -2.0520   -0.4320 c3        1 U34      0.069100
     12 O2'        -1.3580   -3.1800   -0.8560 oh        1 U34     -0.619800
     13 C1'        -0.6670   -1.0250   -1.5730 c3        1 U34      0.298500
     14 N1          0.6720   -0.4510   -1.6460 n         1 U34     -0.327000
     15 C2          1.8350   -1.3070   -1.4430 c         1 U34      0.759500
     16 O2          1.6940   -2.4290   -0.9560 o         1 U34     -0.736500
     17 N3          3.1720   -0.8370   -1.8250 n         1 U34     -0.596500
     18 C4          3.3500    0.4820   -2.2950 c         1 U34      0.708700
     19 O4          4.4910    0.8890   -2.5930 o         1 U34     -0.761500
     20 C5          2.1860    1.3780   -2.4330 cc        1 U34     -0.481200
     21 C          -1.0860    1.8270    1.7880 c3        1 U34     -0.105100
     22 C6          0.8440    0.8850   -2.1170 cd        1 U34     -0.167400
     23 HXT        -2.5360    2.0480    2.9260 ho        1 U34      0.418000
     24 H5'1        0.0260    0.0750    1.5630 hc        1 U34      0.067200
     25 H5'2        0.0720    1.0250    0.2650 hc        1 U34      0.067200
     26 H4'        -2.5260    0.2370    0.6050 h1        1 U34      0.059700
     27 H3'        -1.1150   -1.4510    1.5540 h1        1 U34      0.087700
     28 HA         -3.0600   -2.3850    1.5610 ho        1 U34      0.403000
     29 H2'         0.1470   -2.2570   -0.1050 h1        1 U34      0.114700
     30 HB         -0.8510   -3.8850   -0.6570 ho        1 U34      0.405000
     31 H1'        -0.9050   -1.4480   -2.4270 h2        1 U34      0.059700
     32 H3          3.9050   -1.3800   -1.6950 hn        1 U34      0.301500
     33 H5          2.3090    2.2980   -2.7590 ha        1 U34      0.130000
     34 H          -1.3790    2.5340    1.1880 h1        1 U34      0.093700
     35 H6          0.0270    1.4700   -2.3070 h4        1 U34      0.223000
@<TRIPOS>BOND
     1    1   21 1   
     2    1   23 1   
     3    2    3 1   
     4    3    4 1   
     5    3    5 1   
     6    3   21 1   
     7    6    7 1   
     8    6   21 1   
     9    6   24 1   
    10    6   25 1   
    11    7    8 1   
    12    7    9 1   
    13    7   26 1   
    14    8   13 1   
    15    9   10 1   
    16    9   11 1   
    17    9   27 1   
    18   10   28 1   
    19   11   12 1   
    20   11   13 1   
    21   11   29 1   
    22   12   30 1   
    23   13   14 1   
    24   13   31 1   
    25   14   15 1   
    26   14   22 1   
    27   15   16 2   
    28   15   17 1   
    29   17   18 1   
    30   17   32 1   
    31   18   19 2   
    32   18   20 1   
    33   20   22 2   
    34   20   33 1   
    35   21   34 1   
    36   22   35 1   
@<TRIPOS>SUBSTRUCTURE
     1 U34         1 TEMP              0 ****  ****    0 ROOT
