@<TRIPOS>MOLECULE
U36
   42    42     1     0     0
SMALL
bcc


@<TRIPOS>ATOM
      1 P           1.8520   -3.3510    3.5530 p4        1 U36      1.695200
      2 OP1         3.2230   -3.7080    3.0410 o         1 U36     -0.931000
      3 OP2         1.8680   -3.3370    5.0330 os        1 U36     -1.222000
      4 OP3         0.8720   -4.3500    3.0810 o         1 U36     -0.979800
      5 O5'         1.4480   -1.9300    3.0190 os        1 U36     -0.579200
      6 C5'         1.2710   -1.7620    1.6280 c3        1 U36      0.203400
      7 C4'         1.8030   -0.3720    1.2020 c3        1 U36      0.066100
      8 O4'         2.1240   -0.3610   -0.3770 os        1 U36     -0.431600
      9 C3'         0.9190    0.5150    1.3920 c3        1 U36      0.093100
     10 O3'         1.5660    1.8300    1.7220 oh        1 U36     -0.664800
     11 C2'         0.1500    0.6170    0.0340 c3        1 U36      0.103100
     12 O2'         0.0410    1.9150   -0.3470 os        1 U36     -0.426600
     13 C1'         0.9960   -0.1560   -0.9720 c3        1 U36      0.303500
     14 N1          0.3550   -1.4370   -1.3030 n         1 U36     -0.373000
     15 C2          1.1780   -2.5500   -1.8170 c         1 U36      0.799500
     16 O2          2.3480   -2.4890   -1.7570 o         1 U36     -0.692500
     17 N3          0.5280   -3.7750   -2.3390 n         1 U36     -0.599500
     18 C4         -0.8840   -3.8550   -2.4070 c         1 U36      0.718700
     19 O4         -1.4060   -4.8580   -2.7880 o         1 U36     -0.684500
     20 C5         -1.7170   -2.7150   -1.9470 cc        1 U36     -0.368200
     21 C6         -1.0750   -1.5190   -1.3680 cd        1 U36      0.082600
     22 CA'        -1.2810    2.4200   -0.3010 c3        1 U36      0.152400
     23 CB'        -1.2670    3.9000   -0.6080 c3        1 U36      0.112400
     24 CD'        -2.7180    5.7410   -1.1070 c3        1 U36      0.127700
     25 OC'        -2.5710    4.3160   -0.9820 os        1 U36     -0.445600
     26 H5'1        0.3230   -1.8280    1.4110 h1        1 U36      0.017700
     27 H5'2        1.7590   -2.4510    1.1570 h1        1 U36      0.017700
     28 H4'         2.6370   -0.1450    1.7260 h1        1 U36      0.042700
     29 H3'         0.3130    0.2440    2.1080 h1        1 U36      0.159700
     30 HA          1.5560    1.9560    2.6240 ho        1 U36      0.490000
     31 H2'        -0.7160    0.2210    0.1120 h1        1 U36      0.049700
     32 H1'         1.1300    0.3690   -1.7720 h2        1 U36      0.108700
     33 H3          1.0340   -4.4540   -2.6530 hn        1 U36      0.323500
     34 H5         -2.6820   -2.7710   -1.9930 ha        1 U36      0.187000
     35 H6         -1.6140   -0.7770   -1.0760 h4        1 U36      0.278000
     36 HA'1       -1.6610    2.2740    0.6060 h1        1 U36      0.048700
     37 HA'2       -1.8200    1.9640   -0.9500 h1        1 U36      0.048700
     38 HB'1       -0.6370    4.0780   -1.3530 h1        1 U36      0.056200
     39 HB'2       -0.9830    4.3900    0.1800 h1        1 U36      0.056200
     40 HD'1       -2.8880    6.1350   -0.2190 h1        1 U36      0.017700
     41 HD'2       -3.4830    5.9430   -1.7120 h1        1 U36      0.017700
     42 HD'3       -1.8920    6.1240   -1.4820 h1        1 U36      0.017700
@<TRIPOS>BOND
     1    1    2 1   
     2    1    4 2   
     3    1    5 1   
     4    5    6 1   
     5    6    7 1   
     6    6   26 1   
     7    6   27 1   
     8    7    8 1   
     9    7    9 1   
    10    7   28 1   
    11    8   13 1   
    12    9   10 1   
    13    9   11 1   
    14    9   29 1   
    15   10   30 1   
    16   11   12 1   
    17   11   13 1   
    18   11   31 1   
    19   12   22 1   
    20   13   14 1   
    21   13   32 1   
    22   14   15 1   
    23   14   21 1   
    24   15   16 2   
    25   15   17 1   
    26   17   18 1   
    27   17   33 1   
    28   18   19 2   
    29   18   20 1   
    30   20   21 2   
    31   20   34 1   
    32   21   35 1   
    33   22   23 1   
    34   22   36 1   
    35   22   37 1   
    36   23   25 1   
    37   23   38 1   
    38   23   39 1   
    39   24   25 1   
    40   24   40 1   
    41   24   41 1   
    42   24   42 1   
@<TRIPOS>SUBSTRUCTURE
     1 U36         1 TEMP              0 ****  ****    0 ROOT
