@<TRIPOS>MOLECULE
U36
   42    43     1     0     0
SMALL
bcc


@<TRIPOS>ATOM
      1 P           3.3090   -0.6560   -0.9530 p5        1 U36      1.341900
      2 OP1         2.7720   -2.0020   -1.3810 o         1 U36     -0.923500
      3 OP2         4.7740   -0.3780   -1.0130 o         1 U36     -0.923500
      4 OP3         2.3530    0.4510   -1.3590 o         1 U36     -0.923500
      5 O5'         2.9340   -0.8070    0.7340 os        1 U36     -0.568200
      6 C5'         1.8920   -0.0780    1.2330 c3        1 U36      0.224400
      7 C4'         0.5540   -0.8600    1.2440 c3        1 U36      0.067100
      8 O4'        -0.5030    0.0570    1.6230 os        1 U36     -0.431600
      9 C3'         0.1730   -1.4670   -0.1200 c3        1 U36      0.084100
     10 O3'         0.3350   -2.8640   -0.1340 oh        1 U36     -0.653800
     11 C2'        -1.2770   -1.0320   -0.3830 c3        1 U36      0.106100
     12 O2'        -2.2850   -1.9740   -0.0160 os        1 U36     -0.431600
     13 C1'        -1.4820    0.1660    0.6000 c3        1 U36      0.301500
     14 N1         -1.4090    1.4690   -0.0780 n         1 U36     -0.373000
     15 C2         -2.4560    2.3910    0.1550 c         1 U36      0.797500
     16 O2         -3.4820    2.1070    0.8240 o         1 U36     -0.703500
     17 N3         -2.3700    3.6720   -0.4170 n         1 U36     -0.598500
     18 C4         -1.2650    4.0940   -1.1840 c         1 U36      0.716700
     19 O4         -1.2920    5.2580   -1.6400 o         1 U36     -0.691500
     20 C5         -0.2100    3.1110   -1.3630 cc        1 U36     -0.370200
     21 C6         -0.2950    1.8660   -0.8080 cd        1 U36      0.072600
     22 CA'        -2.4310   -3.0300   -0.9620 c3        1 U36      0.099400
     23 CB'        -3.1820   -4.1570   -0.2610 c3        1 U36      0.125400
     24 CD'        -5.1190   -2.9670    0.4300 c3        1 U36      0.115700
     25 OC'        -4.5970   -4.0200   -0.3630 os        1 U36     -0.448600
     26 H5'1        2.1110    0.1820    2.3110 h1        1 U36     -0.001300
     27 H5'2        1.7470    0.8810    0.6600 h1        1 U36     -0.001300
     28 H4'         0.5650   -1.6510    2.0380 h1        1 U36      0.051700
     29 H3'         0.8490   -1.0060   -0.9210 h1        1 U36      0.157700
     30 HA          1.2450   -3.0030   -0.4870 ho        1 U36      0.488000
     31 H2'        -1.4150   -0.7440   -1.4580 h1        1 U36      0.055700
     32 H1'        -2.4850    0.1010    1.1200 h2        1 U36      0.106700
     33 H3         -3.1200    4.2980   -0.2350 hn        1 U36      0.321500
     34 H5          0.6730    3.4020   -1.9470 ha        1 U36      0.189000
     35 H6          0.5590    1.1190   -0.9420 h4        1 U36      0.308000
     36 HA'1       -3.0190   -2.6480   -1.8390 h1        1 U36      0.055200
     37 HA'2       -1.4240   -3.3950   -1.3010 h1        1 U36      0.055200
     38 HB'1       -2.9740   -5.1290   -0.7810 h1        1 U36      0.052700
     39 HB'2       -2.8740   -4.2160    0.8150 h1        1 U36      0.052700
     40 HD'1       -6.1960   -2.8980    0.1380 h1        1 U36      0.032367
     41 HD'2       -5.0250   -3.2230    1.5150 h1        1 U36      0.032367
     42 HD'3       -4.5860   -2.0060    0.2220 h1        1 U36      0.032367
@<TRIPOS>BOND
     1    1    2 1   
     2    1    3 1   
     3    1    4 1   
     4    1    5 1   
     5    5    6 1   
     6    6    7 1   
     7    6   26 1   
     8    6   27 1   
     9    7    8 1   
    10    7    9 1   
    11    7   28 1   
    12    8   13 1   
    13    9   10 1   
    14    9   11 1   
    15    9   29 1   
    16   10   30 1   
    17   11   12 1   
    18   11   13 1   
    19   11   31 1   
    20   12   22 1   
    21   13   14 1   
    22   13   32 1   
    23   14   15 1   
    24   14   21 1   
    25   15   16 2   
    26   15   17 1   
    27   17   18 1   
    28   17   33 1   
    29   18   19 2   
    30   18   20 1   
    31   20   21 2   
    32   20   34 1   
    33   21   35 1   
    34   22   23 1   
    35   22   36 1   
    36   22   37 1   
    37   23   25 1   
    38   23   38 1   
    39   23   39 1   
    40   24   25 1   
    41   24   40 1   
    42   24   41 1   
    43   24   42 1   
@<TRIPOS>SUBSTRUCTURE
     1 U36         1 TEMP              0 ****  ****    0 ROOT
