@<TRIPOS>MOLECULE
U37
   33    33     1     0     0
SMALL
bcc


@<TRIPOS>ATOM
      1 O3P        -1.7580   -2.0480    2.9830 o         1 U37     -1.072500
      2 P          -0.2620   -2.2500    3.0130 p3        1 U37      2.520000
      3 S           0.3720   -2.4160    4.9760 s         1 U37     -0.932000
      4 O1P         0.0900   -3.5110    2.2620 o         1 U37     -1.072500
      5 O5'         0.4500   -1.0140    2.3320 os        1 U37     -0.715000
      6 C5'         0.2480   -0.7990    0.9550 c3        1 U37      0.012000
      7 C4'         1.5830   -0.5370    0.2830 c3        1 U37     -0.042000
      8 O4'         1.4170   -0.5940   -1.3110 os        1 U37     -0.273000
      9 C3'         1.9940    0.6550    0.5640 c3        1 U37     -0.014000
     10 O3'         3.4840    0.6930    0.5940 oh        1 U37     -0.362000
     11 C2'         1.4580    1.5450   -0.5840 c3        1 U37      0.006000
     12 O2'         2.4450    2.3210   -1.0740 oh        1 U37     -0.312000
     13 C1'         0.9600    0.5660   -1.6670 c3        1 U37      0.108000
     14 N1         -0.4850    0.5470   -1.6990 n         1 U37     -0.270000
     15 C2         -1.1940   -0.7160   -1.9020 c2        1 U37      0.402000
     16 O2         -0.5730   -1.7580   -1.9640 o         1 U37     -0.375000
     17 N3         -2.6510   -0.7230   -2.0500 n         1 U37     -0.371000
     18 C4         -3.3850    0.4830   -1.9090 c2        1 U37      0.356000
     19 O4         -4.5900    0.4820   -2.0590 o         1 U37     -0.360000
     20 C5         -2.6790    1.7440   -1.6430 c2        1 U37     -0.313000
     21 C6         -1.2130    1.7530   -1.5370 c2        1 U37      0.061000
     22 HS         -0.1290   -3.3600    5.4720 hs        1 U37      0.156000
     23 H5'1       -0.3390   -0.0250    0.8280 h1        1 U37      0.091500
     24 H5'2       -0.1670   -1.5920    0.5580 h1        1 U37      0.091500
     25 H4'         2.2420   -1.1970    0.5760 h1        1 U37      0.140000
     26 H3'         1.6280    0.9490    1.4220 h1        1 U37      0.126000
     27 HA          3.7560    1.0600    1.3570 ho        1 U37      0.273000
     28 H2'         0.7200    2.0990   -0.2650 h1        1 U37      0.125000
     29 HB          2.2720    3.1730   -0.8890 ho        1 U37      0.229000
     30 H1'         1.3170    0.8170   -2.5420 h2        1 U37      0.169000
     31 H3         -3.0910   -1.5120   -2.1760 hn        1 U37      0.256000
     32 H5         -3.1810    2.5750   -1.5460 ha        1 U37      0.181000
     33 H6         -0.7420    2.5890   -1.3610 h4        1 U37      0.183000
@<TRIPOS>BOND
     1    1    2 1   
     2    2    4 1   
     3    2    5 1   
     4    3   22 1   
     5    5    6 1   
     6    6    7 1   
     7    6   23 1   
     8    6   24 1   
     9    7    8 1   
    10    7    9 1   
    11    7   25 1   
    12    8   13 1   
    13    9   10 1   
    14    9   11 1   
    15    9   26 1   
    16   10   27 1   
    17   11   12 1   
    18   11   13 1   
    19   11   28 1   
    20   12   29 1   
    21   13   14 1   
    22   13   30 1   
    23   14   15 1   
    24   14   21 1   
    25   15   16 1   
    26   15   17 1   
    27   17   18 1   
    28   17   31 1   
    29   18   19 1   
    30   18   20 1   
    31   20   21 1   
    32   20   32 1   
    33   21   33 1   
@<TRIPOS>SUBSTRUCTURE
     1 U37         1 TEMP              0 ****  ****    0 ROOT
