@<TRIPOS>MOLECULE
U37
   33    34     1     0     0
SMALL
bcc


@<TRIPOS>ATOM
      1 O3P        -1.4410   -1.3550   -2.9990 o         1 U37     -0.751500
      2 P          -0.7130   -0.2180   -3.5640 p5        1 U37      1.281800
      3 S           1.4490   -0.8390   -3.7940 sh        1 U37     -0.736200
      4 O1P        -0.9870    0.5310   -4.7920 o         1 U37     -0.751500
      5 O5'        -0.5360    0.8790   -2.3600 os        1 U37     -0.558200
      6 C5'        -0.4350    0.4150   -1.0470 c3        1 U37      0.166400
      7 C4'         0.9500    0.7760   -0.4880 c3        1 U37      0.075100
      8 O4'         0.7840    1.4470    0.7760 os        1 U37     -0.429600
      9 C3'         1.8870   -0.4310   -0.2710 c3        1 U37      0.106100
     10 O3'         3.0530   -0.3140   -1.0540 oh        1 U37     -0.645800
     11 C2'         2.3070   -0.3830    1.2150 c3        1 U37      0.132100
     12 O2'         3.6500   -0.0200    1.4420 oh        1 U37     -0.600800
     13 C1'         1.3990    0.7230    1.8390 c3        1 U37      0.266500
     14 N1          0.3900    0.2760    2.8050 n         1 U37     -0.371000
     15 C2         -0.3160   -0.9520    2.6630 c         1 U37      0.806500
     16 O2          0.0130   -1.8260    1.8350 o         1 U37     -0.628500
     17 N3         -1.3940   -1.2150    3.5300 n         1 U37     -0.588500
     18 C4         -1.8590   -0.2930    4.4800 c         1 U37      0.718700
     19 O4         -2.8220   -0.6020    5.2060 o         1 U37     -0.634500
     20 C5         -1.1460    0.9860    4.5310 cc        1 U37     -0.338200
     21 C6         -0.1030    1.2240    3.6940 cd        1 U37      0.065600
     22 HS          1.7720   -0.0250   -4.7890 hs        1 U37      0.322800
     23 H5'1       -0.6260   -0.6940   -1.0020 h1        1 U37      0.059200
     24 H5'2       -1.2140    0.9520   -0.4340 h1        1 U37      0.059200
     25 H4'         1.4380    1.5370   -1.1610 h1        1 U37      0.096700
     26 H3'         1.3560   -1.3990   -0.4830 h1        1 U37      0.092700
     27 HA          2.7860   -0.4920   -1.9840 ho        1 U37      0.480000
     28 H2'         2.1820   -1.3830    1.7100 h1        1 U37      0.110700
     29 HB          3.9700    0.4750    0.6750 ho        1 U37      0.430000
     30 H1'         2.0470    1.4750    2.3880 h2        1 U37      0.083700
     31 H3         -1.8680   -2.0830    3.4040 hn        1 U37      0.349500
     32 H5         -1.5020    1.7240    5.2580 ha        1 U37      0.170000
     33 H6          0.4270    2.1960    3.6920 h4        1 U37      0.163000
@<TRIPOS>BOND
     1    1    2 1   
     2    2    3 1   
     3    2    4 1   
     4    2    5 1   
     5    3   22 1   
     6    5    6 1   
     7    6    7 1   
     8    6   23 1   
     9    6   24 1   
    10    7    8 1   
    11    7    9 1   
    12    7   25 1   
    13    8   13 1   
    14    9   10 1   
    15    9   11 1   
    16    9   26 1   
    17   10   27 1   
    18   11   12 1   
    19   11   13 1   
    20   11   28 1   
    21   12   29 1   
    22   13   14 1   
    23   13   30 1   
    24   14   15 1   
    25   14   21 1   
    26   15   16 2   
    27   15   17 1   
    28   17   18 1   
    29   17   31 1   
    30   18   19 2   
    31   18   20 1   
    32   20   21 2   
    33   20   32 1   
    34   21   33 1   
@<TRIPOS>SUBSTRUCTURE
     1 U37         1 TEMP              0 ****  ****    0 ROOT
