@<TRIPOS>MOLECULE
U3H
   41    42     1     0     0
SMALL
bcc


@<TRIPOS>ATOM
      1 N1         -5.2020    1.2340   -0.2600 n3        1 U3H     -0.219400
      2 C6         -6.3650    1.9310   -0.2300 c1        1 U3H     -0.084900
      3 C2         -5.0570   -0.0780    0.3920 c3        1 U3H      0.334200
      4 O2         -4.9160   -1.1510   -0.5860 oh        1 U3H     -0.687800
      5 N3         -6.1310   -0.4220    1.3200 n         1 U3H     -0.579900
      6 C4         -7.4070    0.1830    1.1800 c         1 U3H      0.653300
      7 O4         -8.3740   -0.4120    1.7470 o         1 U3H     -0.786100
      8 C5         -7.4660    1.4070    0.4450 ce        1 U3H     -0.598300
      9 C1'        -4.0420    1.6630   -1.0100 c3        1 U3H      0.242800
     10 C2'        -4.1960    3.0230   -1.7720 c3        1 U3H      0.115100
     11 O2'        -4.1100    2.7920   -3.1700 oh        1 U3H     -0.626800
     12 C3'        -3.0410    3.8810   -1.2550 c3        1 U3H     -0.144400
     13 C4'        -2.0660    2.8760   -0.6460 c3        1 U3H      0.104100
     14 O4'        -2.8780    1.7840   -0.1550 os        1 U3H     -0.454600
     15 C5'        -1.1800    3.4340    0.4820 c3        1 U3H      0.222400
     16 O5'         0.1100    3.6280    0.0250 os        1 U3H     -0.581200
     17 PA          0.5910    5.2340   -0.1980 p5        1 U3H      1.609800
     18 O1A         0.1540    5.9020    1.0480 o         1 U3H     -0.900000
     19 O2A        -0.0260    5.6070   -1.4920 o         1 U3H     -0.900000
     20 O3A         2.1840    5.0710   -0.3020 os        1 U3H     -0.821800
     21 PB          3.8110    4.7620   -0.4080 p5        1 U3H      1.737800
     22 O1B         4.0000    3.8040   -1.5150 o         1 U3H     -0.913500
     23 O2B         4.3280    4.4800    0.9460 o         1 U3H     -0.913500
     24 O3B         4.4530    6.2050   -0.8990 os        1 U3H     -0.840800
     25 PG          5.3260    7.4960   -1.3480 p5        1 U3H      1.598800
     26 O1G         5.1750    8.6540   -0.4350 o         1 U3H     -0.909000
     27 O2G         6.6890    7.1280   -1.8050 o         1 U3H     -0.909000
     28 O3G         4.4410    7.8340   -2.6950 oh        1 U3H     -0.818400
     29 H6          3.6460    7.3190   -2.7540 ho        1 U3H      0.428000
     30 H2'        -4.0640   -0.1370    0.9440 h3        1 U3H      0.088700
     31 H3         -6.1250   -1.3800    1.5840 hn        1 U3H      0.261500
     32 H5         -8.4110    1.9520    0.4420 ha        1 U3H      0.109000
     33 H1'        -3.7920    0.8410   -1.7530 h2        1 U3H      0.020700
     34 H2''       -5.2110    3.4760   -1.6120 h1        1 U3H      0.124700
     35 HA         -3.1840    2.5990   -3.3650 ho        1 U3H      0.394000
     36 H3'        -2.5380    4.4780   -2.0560 hc        1 U3H      0.081700
     37 H3'2       -3.4140    4.5890   -0.4750 hc        1 U3H      0.081700
     38 H4'        -1.4000    2.4520   -1.4500 h1        1 U3H      0.050700
     39 H5'1       -1.1610    2.6720    1.3130 h1        1 U3H      0.022700
     40 H5'2       -1.6130    4.3960    0.8760 h1        1 U3H      0.022700
     41 HO5        -5.5740   -1.0370   -1.2770 ho        1 U3H      0.386000
@<TRIPOS>BOND
     1    1    2 2   
     2    1    3 1   
     3    1    9 1   
     4    2    8 2   
     5    3    4 1   
     6    3    5 1   
     7    3   30 1   
     8    4   41 1   
     9    5    6 1   
    10    5   31 1   
    11    6    7 2   
    12    6    8 1   
    13    8   32 1   
    14    9   10 1   
    15    9   14 1   
    16    9   33 1   
    17   10   11 1   
    18   10   12 1   
    19   10   34 1   
    20   11   35 1   
    21   12   13 1   
    22   12   36 1   
    23   12   37 1   
    24   13   14 1   
    25   13   15 1   
    26   13   38 1   
    27   15   16 1   
    28   15   39 1   
    29   15   40 1   
    30   16   17 1   
    31   17   18 1   
    32   17   19 1   
    33   17   20 1   
    34   20   21 1   
    35   21   22 1   
    36   21   23 1   
    37   21   24 1   
    38   24   25 1   
    39   25   26 1   
    40   25   27 1   
    41   25   28 1   
    42   28   29 1   
@<TRIPOS>SUBSTRUCTURE
     1 U3H         1 TEMP              0 ****  ****    0 ROOT
