@<TRIPOS>MOLECULE
U3H
   41    42     1     0     0
SMALL
bcc


@<TRIPOS>ATOM
      1 N1         -0.6950   -0.8070    1.4530 n3        1 U3H     -0.219400
      2 C6         -0.0520   -1.3730    2.5040 c1        1 U3H     -0.084900
      3 C2         -2.1060   -1.0920    1.1500 c3        1 U3H      0.334200
      4 O2         -2.9540    0.0680    1.3990 oh        1 U3H     -0.687800
      5 N3         -2.6630   -2.2430    1.8550 n         1 U3H     -0.579900
      6 C4         -2.0790   -2.6750    3.0760 c         1 U3H      0.653300
      7 O4         -2.8050   -3.4080    3.8150 o         1 U3H     -0.786100
      8 C5         -0.7330   -2.2660    3.3290 ce        1 U3H     -0.598300
      9 C1'        -0.0890    0.1940    0.6020 c3        1 U3H      0.242800
     10 C2'         1.3920    0.5690    0.9490 c3        1 U3H      0.115100
     11 O2'         1.4520    1.9270    1.3570 oh        1 U3H     -0.626800
     12 C3'         2.1610    0.3180   -0.3490 c3        1 U3H     -0.144400
     13 C4'         1.0820    0.2970   -1.4290 c3        1 U3H      0.104100
     14 O4'        -0.1100   -0.2140   -0.7880 os        1 U3H     -0.454600
     15 C5'         1.4260   -0.5470   -2.6710 c3        1 U3H      0.222400
     16 O5'         1.7450    0.2770   -3.7340 os        1 U3H     -0.581200
     17 PA          3.3760    0.3260   -4.1780 p5        1 U3H      1.609800
     18 O1A         3.7650   -1.1020   -4.2230 o         1 U3H     -0.900000
     19 O2A         3.9860    1.2260   -3.1720 o         1 U3H     -0.900000
     20 O3A         3.2840    1.0010   -5.6320 os        1 U3H     -0.821800
     21 PB          3.0510    1.7190   -7.1090 p5        1 U3H      1.737800
     22 O1B         2.3430    2.9920   -6.8670 o         1 U3H     -0.913500
     23 O2B         2.5150    0.7110   -8.0450 o         1 U3H     -0.913500
     24 O3B         4.5810    2.1010   -7.6050 os        1 U3H     -0.840800
     25 PG          5.9620    2.5550   -8.3270 p5        1 U3H      1.598800
     26 O1G         6.9060    1.4330   -8.5470 o         1 U3H     -0.909000
     27 O2G         5.7330    3.5160   -9.4350 o         1 U3H     -0.909000
     28 O3G         6.5400    3.4180   -7.0500 oh        1 U3H     -0.818400
     29 H6          6.0240    3.3030   -6.2610 ho        1 U3H      0.428000
     30 H2'        -2.2470   -1.2460    0.0320 h3        1 U3H      0.088700
     31 H3         -3.6540   -2.2920    1.8020 hn        1 U3H      0.261500
     32 H5         -0.2270   -2.6970    4.1940 ha        1 U3H      0.109000
     33 H1'        -0.7350    1.1260    0.6570 h2        1 U3H      0.020700
     34 H2''        1.7740   -0.0180    1.8270 h1        1 U3H      0.124700
     35 HA          1.3300    2.4630    0.5630 ho        1 U3H      0.394000
     36 H3'         2.6850   -0.6670   -0.2960 hc        1 U3H      0.081700
     37 H3'2        2.9220    1.1070   -0.5730 hc        1 U3H      0.081700
     38 H4'         0.8500    1.3480   -1.7620 h1        1 U3H      0.050700
     39 H5'1        2.2740   -1.2490   -2.4410 h1        1 U3H      0.022700
     40 H5'2        0.5110   -1.1490   -2.9410 h1        1 U3H      0.022700
     41 HO5        -2.7210    0.4540    2.2480 ho        1 U3H      0.386000
@<TRIPOS>BOND
     1    1    2 2   
     2    1    3 1   
     3    1    9 1   
     4    2    8 2   
     5    3    4 1   
     6    3    5 1   
     7    3   30 1   
     8    4   41 1   
     9    5    6 1   
    10    5   31 1   
    11    6    7 2   
    12    6    8 1   
    13    8   32 1   
    14    9   10 1   
    15    9   14 1   
    16    9   33 1   
    17   10   11 1   
    18   10   12 1   
    19   10   34 1   
    20   11   35 1   
    21   12   13 1   
    22   12   36 1   
    23   12   37 1   
    24   13   14 1   
    25   13   15 1   
    26   13   38 1   
    27   15   16 1   
    28   15   39 1   
    29   15   40 1   
    30   16   17 1   
    31   17   18 1   
    32   17   19 1   
    33   17   20 1   
    34   20   21 1   
    35   21   22 1   
    36   21   23 1   
    37   21   24 1   
    38   24   25 1   
    39   25   26 1   
    40   25   27 1   
    41   25   28 1   
    42   28   29 1   
@<TRIPOS>SUBSTRUCTURE
     1 U3H         1 TEMP              0 ****  ****    0 ROOT
