@<TRIPOS>MOLECULE
U3H
   41    42     1     0     0
SMALL
bcc


@<TRIPOS>ATOM
      1 N1         -0.0950   -0.2370    1.0140 n3        1 U3H     -0.211400
      2 C6          0.7050   -0.6220    2.0320 c1        1 U3H     -0.071900
      3 C2         -1.5500   -0.4710    1.0370 c3        1 U3H      0.325200
      4 O2         -2.2990    0.7770    1.1240 oh        1 U3H     -0.690800
      5 N3         -2.0220   -1.3680    2.0910 ns        1 U3H     -0.574900
      6 C4         -1.2330   -1.5600    3.2570 c         1 U3H      0.647300
      7 O4         -1.8400   -2.0300    4.2720 o         1 U3H     -0.805100
      8 C5          0.1520   -1.2380    3.1590 ce        1 U3H     -0.606300
      9 C1'         0.3720    0.4350   -0.1880 c3        1 U3H      0.237800
     10 C2'         1.8750    0.8790   -0.1860 c3        1 U3H      0.141100
     11 O2'         1.9350    2.2910   -0.2320 oh        1 U3H     -0.661800
     12 C3'         2.4740    0.2040   -1.4200 c3        1 U3H     -0.148400
     13 C4'         1.2740   -0.2170   -2.2660 c3        1 U3H      0.115100
     14 O4'         0.1700   -0.4040   -1.3480 os        1 U3H     -0.463600
     15 C5'         1.4940   -1.5060   -3.0680 c3        1 U3H      0.195400
     16 O5'         1.1740   -1.3130   -4.4060 os        1 U3H     -0.593200
     17 PA          2.3410   -1.5670   -5.5660 p5        1 U3H      1.608800
     18 O1A         1.6510   -2.3280   -6.6360 o         1 U3H     -0.903000
     19 O2A         3.5000   -2.1820   -4.8740 o         1 U3H     -0.903000
     20 O3A         2.6670   -0.0620   -6.0490 os        1 U3H     -0.827800
     21 PB          2.9980    1.3970   -6.7370 p5        1 U3H      1.739800
     22 O1B         1.7610    1.9610   -7.3130 o         1 U3H     -0.922500
     23 O2B         4.2100    1.2260   -7.5700 o         1 U3H     -0.922500
     24 O3B         3.4400    2.3300   -5.4480 os        1 U3H     -0.841800
     25 PG          3.8290    3.3620   -4.2640 p5        1 U3H      1.612800
     26 O1G         3.8480    4.7750   -4.7120 o         1 U3H     -0.909500
     27 O2G         3.1740    2.9880   -2.9850 o         1 U3H     -0.909500
     28 O3G         5.4030    2.8920   -4.1400 oh        1 U3H     -0.818400
     29 H6          5.5750    2.0620   -4.5640 ho        1 U3H      0.425000
     30 H2'        -1.8980   -0.8840    0.0360 h3        1 U3H      0.083700
     31 H3         -3.0020   -1.2980    2.2420 hn        1 U3H      0.253500
     32 H5          0.7970   -1.5030    3.9980 ha        1 U3H      0.103000
     33 H1'        -0.2880    1.3440   -0.3420 h2        1 U3H      0.037700
     34 H2''        2.3820    0.5740    0.7680 h1        1 U3H      0.088700
     35 HA          2.1510    2.5630   -1.1460 ho        1 U3H      0.475000
     36 H3'         3.1240    0.9130   -1.9980 hc        1 U3H      0.083200
     37 H3'2        3.0800   -0.6830   -1.1150 hc        1 U3H      0.083200
     38 H4'         0.9810    0.6160   -2.9640 h1        1 U3H      0.083700
     39 H5'1        2.5630   -1.8440   -2.9660 h1        1 U3H      0.027700
     40 H5'2        0.8100   -2.3020   -2.6500 h1        1 U3H      0.027700
     41 HO5        -1.8360    1.3830    1.7090 ho        1 U3H      0.391000
@<TRIPOS>BOND
     1    1    2 2   
     2    1    3 1   
     3    1    9 1   
     4    2    8 2   
     5    3    4 1   
     6    3    5 1   
     7    3   30 1   
     8    4   41 1   
     9    5    6 1   
    10    5   31 1   
    11    6    7 2   
    12    6    8 1   
    13    8   32 1   
    14    9   10 1   
    15    9   14 1   
    16    9   33 1   
    17   10   11 1   
    18   10   12 1   
    19   10   34 1   
    20   11   35 1   
    21   12   13 1   
    22   12   36 1   
    23   12   37 1   
    24   13   14 1   
    25   13   15 1   
    26   13   38 1   
    27   15   16 1   
    28   15   39 1   
    29   15   40 1   
    30   16   17 1   
    31   17   18 1   
    32   17   19 1   
    33   17   20 1   
    34   20   21 1   
    35   21   22 1   
    36   21   23 1   
    37   21   24 1   
    38   24   25 1   
    39   25   26 1   
    40   25   27 1   
    41   25   28 1   
    42   28   29 1   
@<TRIPOS>SUBSTRUCTURE
     1 U3H         1 TEMP              0 ****  ****    0 ROOT
