@<TRIPOS>MOLECULE
U3H
   41    42     1     0     0
SMALL
bcc


@<TRIPOS>ATOM
      1 N1         -0.8340   -0.0420    0.9090 n3        1 U3H     -0.214400
      2 C6         -0.2420    0.2700    2.0850 c1        1 U3H     -0.074900
      3 C2         -2.0470   -0.8750    0.8420 c3        1 U3H      0.328200
      4 O2         -3.2040   -0.1080    0.3930 oh        1 U3H     -0.689800
      5 N3         -2.3960   -1.5640    2.0820 n         1 U3H     -0.576900
      6 C4         -1.9270   -1.0590    3.3250 c         1 U3H      0.649300
      7 O4         -2.5500   -1.4530    4.3600 o         1 U3H     -0.797100
      8 C5         -0.7940   -0.1930    3.2830 ce        1 U3H     -0.603300
      9 C1'        -0.3650    0.4220   -0.3830 c3        1 U3H      0.239800
     10 C2'         0.8400    1.4230   -0.3570 c3        1 U3H      0.127100
     11 O2'         0.3950    2.6880   -0.8200 oh        1 U3H     -0.638800
     12 C3'         1.8900    0.7910   -1.2700 c3        1 U3H     -0.162400
     13 C4'         1.1370   -0.2850   -2.0490 c3        1 U3H      0.114100
     14 O4'         0.0210   -0.6920   -1.2200 os        1 U3H     -0.462600
     15 C5'         1.9840   -1.5130   -2.4110 c3        1 U3H      0.203400
     16 O5'         1.9190   -1.7620   -3.7750 os        1 U3H     -0.594200
     17 PA          3.3310   -1.6910   -4.6680 p5        1 U3H      1.602800
     18 O1A         3.0720   -2.5880   -5.8160 o         1 U3H     -0.897000
     19 O2A         4.4180   -2.0010   -3.7080 o         1 U3H     -0.897000
     20 O3A         3.3440   -0.1330   -5.0830 os        1 U3H     -0.829800
     21 PB          3.2120    1.4830   -5.3960 p5        1 U3H      1.740800
     22 O1B         2.8870    2.1050   -4.0930 o         1 U3H     -0.920000
     23 O2B         2.3480    1.6930   -6.5750 o         1 U3H     -0.920000
     24 O3B         4.7430    1.9230   -5.8260 os        1 U3H     -0.840800
     25 PG          6.1460    2.5470   -6.3550 p5        1 U3H      1.599800
     26 O1G         6.6480    1.8920   -7.5870 o         1 U3H     -0.908500
     27 O2G         6.1690    4.0290   -6.2790 o         1 U3H     -0.908500
     28 O3G         7.0580    1.9800   -5.1100 oh        1 U3H     -0.818400
     29 H6          6.5990    1.3490   -4.5700 ho        1 U3H      0.430000
     30 H2'        -1.9490   -1.6510    0.0150 h3        1 U3H      0.084700
     31 H3         -3.3270   -1.9130    2.0810 hn        1 U3H      0.256500
     32 H5         -0.3400    0.0970    4.2310 ha        1 U3H      0.106000
     33 H1'        -1.2460    0.9120   -0.9040 h2        1 U3H      0.026700
     34 H2''        1.2020    1.5970    0.6910 h1        1 U3H      0.107700
     35 HA          0.5230    2.7050   -1.7790 ho        1 U3H      0.420000
     36 H3'         2.7050    0.3400   -0.6540 hc        1 U3H      0.100200
     37 H3'2        2.3510    1.5250   -1.9910 hc        1 U3H      0.100200
     38 H4'         0.7000    0.1540   -2.9900 h1        1 U3H      0.070700
     39 H5'1        1.5650   -2.4050   -1.8620 h1        1 U3H      0.027700
     40 H5'2        3.0530   -1.3510   -2.0950 h1        1 U3H      0.027700
     41 HO5        -3.1960    0.7540    0.8190 ho        1 U3H      0.388000
@<TRIPOS>BOND
     1    1    2 2   
     2    1    3 1   
     3    1    9 1   
     4    2    8 2   
     5    3    4 1   
     6    3    5 1   
     7    3   30 1   
     8    4   41 1   
     9    5    6 1   
    10    5   31 1   
    11    6    7 2   
    12    6    8 1   
    13    8   32 1   
    14    9   10 1   
    15    9   14 1   
    16    9   33 1   
    17   10   11 1   
    18   10   12 1   
    19   10   34 1   
    20   11   35 1   
    21   12   13 1   
    22   12   36 1   
    23   12   37 1   
    24   13   14 1   
    25   13   15 1   
    26   13   38 1   
    27   15   16 1   
    28   15   39 1   
    29   15   40 1   
    30   16   17 1   
    31   17   18 1   
    32   17   19 1   
    33   17   20 1   
    34   20   21 1   
    35   21   22 1   
    36   21   23 1   
    37   21   24 1   
    38   24   25 1   
    39   25   26 1   
    40   25   27 1   
    41   25   28 1   
    42   28   29 1   
@<TRIPOS>SUBSTRUCTURE
     1 U3H         1 TEMP              0 ****  ****    0 ROOT
