@<TRIPOS>MOLECULE
U3P
   32    29     1     0     0
SMALL
bcc


@<TRIPOS>ATOM
      1 N1         -0.2350   -1.3110   -0.8250 ne        1 U3P     -0.460000
      2 C2          2.9140   -0.4970    0.7980 c         1 U3P      0.667900
      3 N3          2.3560   -0.6990    2.0490 n         1 U3P     -0.621500
      4 C4          1.0280   -0.4360    2.4430 c         1 U3P      0.717300
      5 C5         -0.0570   -0.3100    1.4930 ce        1 U3P     -0.451300
      6 C6         -0.0660   -0.7360    0.2300 c1        1 U3P      0.388500
      7 O2          4.1200   -0.7450    0.6220 o         1 U3P     -0.616100
      8 O4          0.8410   -0.3460    3.6790 o         1 U3P     -0.646100
      9 O1P        -1.5960    4.5590   -4.4010 o         1 U3P     -0.889500
     10 O2P        -0.0490    3.0990   -5.8400 o         1 U3P     -0.889500
     11 O3P         0.7570    3.9410   -3.5820 o         1 U3P     -0.889500
     12 O5'         1.4840   -3.6180   -4.5700 oh        1 U3P     -0.853000
     13 C5'        -2.4290   -2.5030   -2.8940 c2        1 U3P     -0.327000
     14 C4'        -1.1880   -2.8620   -3.2260 c2        1 U3P      0.036100
     15 O4'        -0.0210   -2.1840   -2.9480 os        1 U3P     -0.287200
     16 C3'         0.0410    1.3920   -3.3350 c2        1 U3P      0.284000
     17 O3'        -0.9490    2.1390   -3.6820 os        1 U3P     -0.333500
     18 C2'        -0.0770    0.1900   -2.7350 c1        1 U3P     -0.286800
     19 O2'        -3.6350    6.1130   -4.3050 oh        1 U3P     -0.853000
     20 C1'        -0.1280   -0.9900   -2.1960 ce        1 U3P      0.211600
     21 HN3         2.2390   -0.1080    0.0030 h5        1 U3P      0.077200
     22 H5          2.9800   -0.9300    2.7950 hn        1 U3P      0.308500
     23 H6         -0.9760    0.1400    1.9050 ha        1 U3P      0.174000
     24 HO5'        1.6020   -3.4910   -3.6230 ho        1 U3P      0.422750
     25 H5'1        1.0620   -2.7970   -4.8470 ho        1 U3P      0.422750
     26 H5'2       -3.2920   -3.1130   -3.1790 ha        1 U3P      0.120500
     27 H4'        -2.6510   -1.5760   -2.3520 ha        1 U3P      0.120500
     28 H3'        -0.9160   -3.7680   -3.7990 h4        1 U3P      0.139000
     29 H2'         1.0730    1.7880   -3.5270 h4        1 U3P      0.173000
     30 HO2'       -3.3850    5.4740   -4.9830 ho        1 U3P      0.422750
     31 H1'        -2.9310    5.9870   -3.6570 ho        1 U3P      0.422750
     32 P          -0.3810    3.6990   -4.5180 p5        1 U3P      1.297900
@<TRIPOS>BOND
     1    1    6 2   
     2    1   20 1   
     3    2    3 1   
     4    2    7 2   
     5    2   21 1   
     6    3    4 1   
     7    3   22 1   
     8    4    5 1   
     9    4    8 2   
    10    5    6 2   
    11    5   23 1   
    12    9   32 1   
    13   10   32 1   
    14   11   32 1   
    15   12   24 1   
    16   12   25 1   
    17   13   14 2   
    18   13   26 1   
    19   13   27 1   
    20   14   15 1   
    21   14   28 1   
    22   15   20 1   
    23   16   17 1   
    24   16   18 2   
    25   16   29 1   
    26   17   32 1   
    27   18   20 2   
    28   19   30 1   
    29   19   31 1   
@<TRIPOS>SUBSTRUCTURE
     1 U3P         1 TEMP              0 ****  ****    0 ROOT
