@<TRIPOS>MOLECULE
U3P
   32    31     1     0     0
SMALL
bcc


@<TRIPOS>ATOM
      1 N1          0.0590   -0.2480   -0.7870 n         1 U3P     -0.306400
      2 C2          1.2430    0.4710   -1.2580 c         1 U3P      0.740100
      3 N3          1.7020    1.5720   -0.4920 ns        1 U3P     -0.559500
      4 C4          1.3620    1.6620    0.8560 c         1 U3P      0.647100
      5 C5          0.5820    0.5070    1.4640 c3        1 U3P     -0.240300
      6 C6         -0.2400   -0.2780    0.4960 c1        1 U3P     -0.083100
      7 O2          1.8900    0.0620   -2.2350 o         1 U3P     -0.551100
      8 O4          1.7390    2.6200    1.5580 o         1 U3P     -0.613100
      9 O1P        -0.9060    5.1040   -3.4570 o         1 U3P     -0.899167
     10 O2P         0.5080    3.5210   -4.9170 o         1 U3P     -0.899167
     11 O3P         0.7000    3.4060   -2.3950 o         1 U3P     -0.899167
     12 O5'        -1.2110   -4.4140   -2.1590 oh        1 U3P     -0.831000
     13 C5'         0.5460   -2.7450   -4.3970 c2        1 U3P     -0.369000
     14 C4'         0.2010   -1.6630   -3.6830 c2        1 U3P      0.089100
     15 O4'        -0.4520   -1.8680   -2.4870 os        1 U3P     -0.396900
     16 C3'        -0.8140    1.4270   -3.1470 c2        1 U3P      0.244100
     17 O3'        -1.3630    2.5490   -3.4920 os        1 U3P     -0.369500
     18 C2'        -1.5180    0.3760   -2.5890 c2        1 U3P     -0.367100
     19 O2'        -2.9110    0.3970   -2.5280 oh        1 U3P     -0.529100
     20 C1'        -0.9580   -0.7230   -1.7720 c3        1 U3P      0.421700
     21 HN3         1.8380    2.4290   -1.0380 hn        1 U3P      0.430500
     22 H5         -0.1210    0.9290    2.2310 hc        1 U3P      0.087700
     23 H6          1.2930   -0.1830    1.9900 hc        1 U3P      0.087700
     24 HO5'       -0.4900   -3.9340   -1.7390 ho        1 U3P      0.413000
     25 H5'1       -1.6200   -3.7400   -2.7140 ho        1 U3P      0.413000
     26 H5'2        0.3250   -3.7660   -4.0680 ha        1 U3P      0.107500
     27 H4'         1.0740   -2.6380   -5.3480 ha        1 U3P      0.107500
     28 H3'         0.4000   -0.6180   -3.9730 h4        1 U3P      0.180000
     29 H2'         0.2900    1.3580   -3.2830 h4        1 U3P      0.135000
     30 HO2'       -3.1400    1.3000   -2.2640 ho        1 U3P      0.392000
     31 H1'        -1.7850   -1.2070   -1.1550 h2        1 U3P      0.105700
     32 P          -0.0800    3.8760   -3.5950 p5        1 U3P      1.311900
@<TRIPOS>BOND
     1    1    2 1   
     2    1    6 3   
     3    1   20 1   
     4    2    3 1   
     5    2    7 2   
     6    3    4 1   
     7    3   21 1   
     8    4    5 1   
     9    4    8 2   
    10    5    6 1   
    11    5   22 1   
    12    5   23 1   
    13    9   32 1   
    14   10   32 1   
    15   11   32 1   
    16   12   24 1   
    17   12   25 1   
    18   13   14 2   
    19   13   26 1   
    20   13   27 1   
    21   14   15 1   
    22   14   28 1   
    23   15   20 1   
    24   16   17 1   
    25   16   18 2   
    26   16   29 1   
    27   17   32 1   
    28   18   19 1   
    29   18   20 1   
    30   19   30 1   
    31   20   31 1   
@<TRIPOS>SUBSTRUCTURE
     1 U3P         1 TEMP              0 ****  ****    0 ROOT
