@<TRIPOS>MOLECULE
U3P
   32    33     1     0     0
SMALL
bcc


@<TRIPOS>ATOM
      1 N1         -0.3120    0.4310   -2.2690 n         1 U3P     -0.345000
      2 C2          0.2810   -0.7820   -2.7080 c         1 U3P      0.803500
      3 N3          0.3230   -1.0430   -4.1000 n         1 U3P     -0.599500
      4 C4         -0.1630   -0.1540   -5.0650 c         1 U3P      0.722700
      5 C5         -0.7390    1.0860   -4.5550 cc        1 U3P     -0.391200
      6 C6         -0.7690    1.3250   -3.2110 cd        1 U3P      0.090600
      7 O2          0.7470   -1.6470   -1.9410 o         1 U3P     -0.608500
      8 O4         -0.0760   -0.4610   -6.2740 o         1 U3P     -0.685500
      9 O1P        -0.5820    1.1440    4.8890 o         1 U3P     -0.919167
     10 O2P         1.2200   -0.3580    3.8370 o         1 U3P     -0.919167
     11 O3P        -1.1900   -1.1620    3.9350 o         1 U3P     -0.919167
     12 O5'         3.3000   -0.5060    1.7920 oh        1 U3P     -0.671800
     13 C5'         2.5080   -0.3990    0.6340 c3        1 U3P      0.151400
     14 C4'         1.3550    0.5860    0.8170 c3        1 U3P      0.068100
     15 O4'         1.0360    1.1720   -0.4670 os        1 U3P     -0.448600
     16 C3'         0.0790   -0.0840    1.4010 c3        1 U3P      0.208100
     17 O3'        -0.4990    0.6710    2.3760 os        1 U3P     -0.550200
     18 C2'        -0.8720   -0.1890    0.1660 c3        1 U3P      0.100100
     19 O2'        -2.2060    0.1660    0.4230 oh        1 U3P     -0.639800
     20 C1'        -0.2920    0.8420   -0.8480 c3        1 U3P      0.279500
     21 HN3         0.7390   -1.9030   -4.3800 hn        1 U3P      0.333500
     22 H5         -1.1340    1.7950   -5.2870 ha        1 U3P      0.155000
     23 H6         -1.1910    2.2680   -2.8100 h4        1 U3P      0.160000
     24 HO5'        2.6990   -0.5400    2.5720 ho        1 U3P      0.500000
     25 H5'1        3.2000   -0.0360   -0.1740 h1        1 U3P      0.014700
     26 H5'2        2.1110   -1.4090    0.3400 h1        1 U3P      0.014700
     27 H4'         1.6730    1.4480    1.4630 h1        1 U3P      0.095700
     28 H3'         0.3300   -1.1170    1.7800 h1        1 U3P      0.081700
     29 H2'        -0.8720   -1.2280   -0.2520 h1        1 U3P      0.063700
     30 HO2'       -2.2560    0.4640    1.3510 ho        1 U3P      0.463000
     31 H1'        -0.8990    1.7980   -0.7960 h2        1 U3P      0.065700
     32 P          -0.2390   -0.0070    3.9990 p5        1 U3P      1.322900
@<TRIPOS>BOND
     1    1    2 1   
     2    1    6 1   
     3    1   20 1   
     4    2    3 1   
     5    2    7 2   
     6    3    4 1   
     7    3   21 1   
     8    4    5 1   
     9    4    8 2   
    10    5    6 2   
    11    5   22 1   
    12    6   23 1   
    13    9   32 1   
    14   10   32 1   
    15   11   32 1   
    16   12   13 1   
    17   12   24 1   
    18   13   14 1   
    19   13   25 1   
    20   13   26 1   
    21   14   15 1   
    22   14   16 1   
    23   14   27 1   
    24   15   20 1   
    25   16   17 1   
    26   16   18 1   
    27   16   28 1   
    28   17   32 1   
    29   18   19 1   
    30   18   20 1   
    31   18   29 1   
    32   19   30 1   
    33   20   31 1   
@<TRIPOS>SUBSTRUCTURE
     1 U3P         1 TEMP              0 ****  ****    0 ROOT
