@<TRIPOS>MOLECULE
U3S
   43    45     1     0     0
SMALL
bcc


@<TRIPOS>ATOM
      1 C4          0.1370   -0.1320   -0.1390 c         1 U3S      0.714700
      2 C5          1.5810   -0.3190    0.0530 cc        1 U3S     -0.310200
      3 C6          2.1470   -0.1140    1.2680 cd        1 U3S      0.047600
      4 N1          1.4270    0.3460    2.3690 n         1 U3S     -0.383000
      5 N3         -0.5860    0.2660    1.0000 n         1 U3S     -0.585500
      6 CAV        -0.5520   -5.3630    7.3920 c3        1 U3S     -0.078400
      7 CAK        -1.3730   -4.2210    6.8340 c3        1 U3S     -0.077400
      8 CAM        -0.6540   -2.8860    7.0240 c3        1 U3S      0.174800
      9 CAJ         0.8390   -5.3530    6.7960 c3        1 U3S     -0.077400
     10 CAL         1.5100   -3.9930    6.9810 c3        1 U3S      0.174800
     11 NBA         0.7020   -2.8840    6.4920 n3        1 U3S     -0.731600
     12 C5'         1.3620   -1.6000    6.6520 c3        1 U3S      0.179800
     13 C4'         0.9710   -0.5860    5.5680 c3        1 U3S      0.140100
     14 O4'         1.7360   -0.8900    4.3850 os        1 U3S     -0.405600
     15 C3'         1.3710    0.8500    5.9670 c3        1 U3S      0.120100
     16 O3'         0.2640    1.4610    6.5910 oh        1 U3S     -0.574800
     17 C2'         1.7250    1.5170    4.6170 c3        1 U3S      0.073100
     18 O2'         2.8730    2.3150    4.8110 oh        1 U3S     -0.591800
     19 C1'         2.0660    0.3120    3.6820 c3        1 U3S      0.273500
     20 O4         -0.4680   -0.3000   -1.2100 o         1 U3S     -0.605500
     21 C2          0.0090    0.4620    2.2560 c         1 U3S      0.806500
     22 O2         -0.7010    0.7790    3.2330 o         1 U3S     -0.638500
     23 H5          2.1580   -0.6350   -0.8240 ha        1 U3S      0.180000
     24 H6          3.2290   -0.2780    1.4380 h4        1 U3S      0.164000
     25 HN3        -1.5760    0.3720    0.9480 hn        1 U3S      0.352500
     26 HAVA       -0.4850   -5.2690    8.5080 hc        1 U3S      0.039200
     27 HAK        -2.3630   -4.1650    7.3540 hc        1 U3S      0.047700
     28 HAKA       -1.5670   -4.3930    5.7440 hc        1 U3S      0.047700
     29 HAM        -1.2310   -2.0820    6.4860 h1        1 U3S      0.029950
     30 HAMA       -0.6640   -2.6310    8.1260 h1        1 U3S      0.029950
     31 HAJ         1.4770   -6.1300    7.2890 hc        1 U3S      0.047700
     32 HAJA        0.7810   -5.5980    5.7030 hc        1 U3S      0.047700
     33 HAL         2.4770   -3.9890    6.4020 h1        1 U3S      0.029950
     34 HALA        1.7640   -3.8670    8.0750 h1        1 U3S      0.029950
     35 H5'         2.4780   -1.7470    6.5980 h1        1 U3S      0.046700
     36 H5'A        1.1190   -1.1210    7.6470 h1        1 U3S      0.046700
     37 H4'        -0.1200   -0.6220    5.3000 h1        1 U3S      0.101700
     38 H3'         2.2630    0.8630    6.6500 h1        1 U3S      0.065700
     39 HO3'        0.5270    2.3690    6.7900 ho        1 U3S      0.411000
     40 H2'         0.8600    2.1260    4.2420 h1        1 U3S      0.097700
     41 HO2'        2.9660    2.8720    4.0280 ho        1 U3S      0.411000
     42 H1'         3.1850    0.2690    3.5120 h2        1 U3S      0.089700
     43 HAV        -1.0550   -6.3390    7.1660 hc        1 U3S      0.039200
@<TRIPOS>BOND
     1    1    2 1   
     2    1    5 1   
     3    1   20 2   
     4    2    3 2   
     5    2   23 1   
     6    3    4 1   
     7    3   24 1   
     8    4   19 1   
     9    4   21 1   
    10    5   21 1   
    11    5   25 1   
    12    6    7 1   
    13    6    9 1   
    14    6   26 1   
    15    6   43 1   
    16    7    8 1   
    17    7   27 1   
    18    7   28 1   
    19    8   11 1   
    20    8   29 1   
    21    8   30 1   
    22    9   10 1   
    23    9   31 1   
    24    9   32 1   
    25   10   11 1   
    26   10   33 1   
    27   10   34 1   
    28   11   12 1   
    29   12   13 1   
    30   12   35 1   
    31   12   36 1   
    32   13   14 1   
    33   13   15 1   
    34   13   37 1   
    35   14   19 1   
    36   15   16 1   
    37   15   17 1   
    38   15   38 1   
    39   16   39 1   
    40   17   18 1   
    41   17   19 1   
    42   17   40 1   
    43   18   41 1   
    44   19   42 1   
    45   21   22 2   
@<TRIPOS>SUBSTRUCTURE
     1 U3S         1 TEMP              0 ****  ****    0 ROOT
