@<TRIPOS>MOLECULE
U3S
   43    45     1     0     0
SMALL
bcc


@<TRIPOS>ATOM
      1 C4          0.1550   -0.1460   -0.1490 c         1 U3S      0.714700
      2 C5          1.5970   -0.3340    0.0480 cc        1 U3S     -0.310200
      3 C6          2.1610   -0.1270    1.2640 cd        1 U3S      0.047600
      4 N1          1.4380    0.3380    2.3610 n         1 U3S     -0.383000
      5 N3         -0.5710    0.2570    0.9870 n         1 U3S     -0.585500
      6 CAV        -0.5670   -5.3540    7.3960 c3        1 U3S     -0.078400
      7 CAK        -1.3840   -4.2110    6.8360 c3        1 U3S     -0.077400
      8 CAM        -0.6630   -2.8780    7.0240 c3        1 U3S      0.174800
      9 CAJ         0.8240   -5.3480    6.8010 c3        1 U3S     -0.077400
     10 CAL         1.4990   -3.9900    6.9830 c3        1 U3S      0.174800
     11 NBA         0.6940   -2.8800    6.4920 n3        1 U3S     -0.731600
     12 C5'         1.3580   -1.5970    6.6500 c3        1 U3S      0.179800
     13 C4'         0.9710   -0.5860    5.5620 c3        1 U3S      0.140100
     14 O4'         1.7390   -0.8940    4.3820 os        1 U3S     -0.406600
     15 C3'         1.3720    0.8510    5.9580 c3        1 U3S      0.120100
     16 O3'         0.2650    1.4650    6.5770 oh        1 U3S     -0.574800
     17 C2'         1.7310    1.5130    4.6070 c3        1 U3S      0.073100
     18 O2'         2.8800    2.3100    4.8030 oh        1 U3S     -0.591800
     19 C1'         2.0720    0.3060    3.6770 c3        1 U3S      0.273500
     20 O4         -0.4470   -0.3160   -1.2210 o         1 U3S     -0.605500
     21 C2          0.0210    0.4550    2.2440 c         1 U3S      0.806500
     22 O2         -0.6920    0.7760    3.2180 o         1 U3S     -0.638500
     23 H5          2.1770   -0.6540   -0.8260 ha        1 U3S      0.180000
     24 H6          3.2410   -0.2920    1.4380 h4        1 U3S      0.164000
     25 HN3        -1.5610    0.3640    0.9310 hn        1 U3S      0.352500
     26 HAVA       -0.5000   -5.2590    8.5120 hc        1 U3S      0.039200
     27 HAK        -2.3750   -4.1520    7.3560 hc        1 U3S      0.047700
     28 HAKA       -1.5790   -4.3850    5.7450 hc        1 U3S      0.047700
     29 HAM        -1.2370   -2.0730    6.4830 h1        1 U3S      0.029950
     30 HAMA       -0.6720   -2.6210    8.1250 h1        1 U3S      0.029950
     31 HAJ         0.7660   -5.5960    5.7080 hc        1 U3S      0.047700
     32 HAJA        1.4600   -6.1270    7.2950 hc        1 U3S      0.047700
     33 HAL         1.7530   -3.8620    8.0770 h1        1 U3S      0.029950
     34 HALA        2.4660   -3.9900    6.4050 h1        1 U3S      0.029950
     35 H5'         2.4730   -1.7470    6.5980 h1        1 U3S      0.046700
     36 H5'A        1.1140   -1.1150    7.6430 h1        1 U3S      0.046700
     37 H4'        -0.1200   -0.6200    5.2920 h1        1 U3S      0.101700
     38 H3'         2.2630    0.8640    6.6430 h1        1 U3S      0.065700
     39 HO3'        0.5280    2.3730    6.7740 ho        1 U3S      0.411000
     40 H2'         0.8680    2.1230    4.2290 h1        1 U3S      0.097700
     41 HO2'        2.9760    2.8650    4.0190 ho        1 U3S      0.411000
     42 H1'         3.1920    0.2600    3.5100 h2        1 U3S      0.089700
     43 HAV        -1.0720   -6.3290    7.1720 hc        1 U3S      0.039200
@<TRIPOS>BOND
     1    1    2 1   
     2    1    5 1   
     3    1   20 2   
     4    2    3 2   
     5    2   23 1   
     6    3    4 1   
     7    3   24 1   
     8    4   19 1   
     9    4   21 1   
    10    5   21 1   
    11    5   25 1   
    12    6    7 1   
    13    6    9 1   
    14    6   26 1   
    15    6   43 1   
    16    7    8 1   
    17    7   27 1   
    18    7   28 1   
    19    8   11 1   
    20    8   29 1   
    21    8   30 1   
    22    9   10 1   
    23    9   31 1   
    24    9   32 1   
    25   10   11 1   
    26   10   33 1   
    27   10   34 1   
    28   11   12 1   
    29   12   13 1   
    30   12   35 1   
    31   12   36 1   
    32   13   14 1   
    33   13   15 1   
    34   13   37 1   
    35   14   19 1   
    36   15   16 1   
    37   15   17 1   
    38   15   38 1   
    39   16   39 1   
    40   17   18 1   
    41   17   19 1   
    42   17   40 1   
    43   18   41 1   
    44   19   42 1   
    45   21   22 2   
@<TRIPOS>SUBSTRUCTURE
     1 U3S         1 TEMP              0 ****  ****    0 ROOT
