@<TRIPOS>MOLECULE
U3S
   43    45     1     0     0
SMALL
bcc


@<TRIPOS>ATOM
      1 C4         -4.0710    1.9910    0.1010 c         1 U3S      0.714700
      2 C5         -3.9080    1.3580    1.4140 cc        1 U3S     -0.315200
      3 C6         -3.0320    0.3360    1.5840 cd        1 U3S      0.055600
      4 N1         -2.2910   -0.2010    0.5350 n         1 U3S     -0.382000
      5 N3         -3.2790    1.4660   -0.9360 n         1 U3S     -0.585500
      6 CAV         5.1880    2.1030   -0.0690 c3        1 U3S     -0.078400
      7 CAK         4.1070    1.9770   -1.1200 c3        1 U3S     -0.077400
      8 CAM         3.4550    0.5970   -1.0740 c3        1 U3S      0.174800
      9 CAJ         4.6370    1.7570    1.2970 c3        1 U3S     -0.077400
     10 CAL         3.9680    0.3830    1.2930 c3        1 U3S      0.174800
     11 NBA         2.9630    0.2390    0.2490 n3        1 U3S     -0.731600
     12 C5'         2.3180   -1.0630    0.2720 c3        1 U3S      0.180800
     13 C4'         0.8650   -1.0200   -0.2210 c3        1 U3S      0.144100
     14 O4'         0.0470   -0.5400    0.8640 os        1 U3S     -0.405600
     15 C3'         0.3360   -2.4320   -0.5500 c3        1 U3S      0.082100
     16 O3'         0.5210   -2.6520   -1.9320 oh        1 U3S     -0.570800
     17 C2'        -1.1560   -2.3730   -0.1470 c3        1 U3S      0.073100
     18 O2'        -1.5430   -3.5100    0.6010 oh        1 U3S     -0.593800
     19 C1'        -1.2390   -1.1660    0.8400 c3        1 U3S      0.311500
     20 O4         -4.8400    2.9340   -0.1470 o         1 U3S     -0.608500
     21 C2         -2.3710    0.4130   -0.7480 c         1 U3S      0.808500
     22 O2         -1.6830    0.0080   -1.7100 o         1 U3S     -0.642500
     23 H5         -4.5190    1.7550    2.2340 ha        1 U3S      0.180000
     24 H6         -2.8810   -0.1410    2.5720 h4        1 U3S      0.166000
     25 HN3        -3.3210    1.8690   -1.8470 hn        1 U3S      0.352500
     26 HAVA        5.5930    3.1480   -0.0620 hc        1 U3S      0.039200
     27 HAK         3.3290    2.7680   -0.9570 hc        1 U3S      0.047700
     28 HAKA        4.5410    2.1280   -2.1420 hc        1 U3S      0.047700
     29 HAM         2.5750    0.5860   -1.7780 h1        1 U3S      0.029950
     30 HAMA        4.2030   -0.1630   -1.4530 h1        1 U3S      0.029950
     31 HAJ         5.4610    1.7440    2.0550 hc        1 U3S      0.047700
     32 HAJA        3.8940    2.5350    1.6110 hc        1 U3S      0.047700
     33 HAL         4.7740   -0.4050    1.2010 h1        1 U3S      0.029950
     34 HALA        3.4530    0.2320    2.2840 h1        1 U3S      0.029950
     35 H5'         2.8590   -1.8140   -0.3770 h1        1 U3S      0.045700
     36 H5'A        2.3100   -1.4550    1.3290 h1        1 U3S      0.045700
     37 H4'         0.7160   -0.3390   -1.1040 h1        1 U3S      0.103700
     38 H3'         0.8660   -3.2240    0.0460 h1        1 U3S      0.057700
     39 HO3'        0.1230   -3.5080   -2.1320 ho        1 U3S      0.401000
     40 H2'        -1.8030   -2.2390   -1.0540 h1        1 U3S      0.093700
     41 HO2'       -1.6950   -4.2220   -0.0320 ho        1 U3S      0.410000
     42 H1'        -1.4150   -1.5440    1.8930 h2        1 U3S      0.102700
     43 HAV         6.0380    1.4140   -0.3180 hc        1 U3S      0.039200
@<TRIPOS>BOND
     1    1    2 1   
     2    1    5 1   
     3    1   20 2   
     4    2    3 2   
     5    2   23 1   
     6    3    4 1   
     7    3   24 1   
     8    4   19 1   
     9    4   21 1   
    10    5   21 1   
    11    5   25 1   
    12    6    7 1   
    13    6    9 1   
    14    6   26 1   
    15    6   43 1   
    16    7    8 1   
    17    7   27 1   
    18    7   28 1   
    19    8   11 1   
    20    8   29 1   
    21    8   30 1   
    22    9   10 1   
    23    9   31 1   
    24    9   32 1   
    25   10   11 1   
    26   10   33 1   
    27   10   34 1   
    28   11   12 1   
    29   12   13 1   
    30   12   35 1   
    31   12   36 1   
    32   13   14 1   
    33   13   15 1   
    34   13   37 1   
    35   14   19 1   
    36   15   16 1   
    37   15   17 1   
    38   15   38 1   
    39   16   39 1   
    40   17   18 1   
    41   17   19 1   
    42   17   40 1   
    43   18   41 1   
    44   19   42 1   
    45   21   22 2   
@<TRIPOS>SUBSTRUCTURE
     1 U3S         1 TEMP              0 ****  ****    0 ROOT
