@<TRIPOS>MOLECULE
U3X
   43    44     1     0     0
SMALL
bcc


@<TRIPOS>ATOM
      1 C           5.8320    0.6640    0.4590 c         1 U3X      0.885600
      2 N           4.7320   -0.8500   -1.2630 n3        1 U3X     -0.884800
      3 O           6.9370    0.2220    0.0310 o         1 U3X     -0.842300
      4 C01         0.1630   -1.7050   -0.0820 ca        1 U3X     -0.177500
      5 C02         1.4980   -1.6310    0.2970 ca        1 U3X     -0.106000
      6 C03         2.1460   -0.3980    0.4290 ca        1 U3X     -0.053300
      7 C04         1.4210    0.7670    0.1510 ca        1 U3X     -0.106000
      8 C05         0.0870    0.7120   -0.2330 ca        1 U3X     -0.177500
      9 C06        -0.5720   -0.5300   -0.3570 ca        1 U3X      0.088600
     10 N01        -1.9080   -0.6240   -0.8210 nh        1 U3X     -0.709600
     11 C07        -2.7800    0.4840   -0.4900 c3        1 U3X      0.176800
     12 C08        -4.2750    0.1360   -0.5360 c3        1 U3X     -0.074700
     13 C09        -5.0800    1.4290   -0.5470 c3        1 U3X     -0.074900
     14 C10        -6.5690    1.1510   -0.5460 c3        1 U3X     -0.075400
     15 C11        -6.9680    0.2810    0.6280 c3        1 U3X     -0.076400
     16 C12        -6.1660   -1.0040    0.6510 c3        1 U3X     -0.075400
     17 C13        -4.6770   -0.7270    0.6500 c3        1 U3X     -0.074900
     18 CB          3.5610   -0.3140    0.8760 c3        1 U3X     -0.033100
     19 CA          4.5200    0.1510   -0.2260 c3        1 U3X      0.023500
     20 H22         5.5050   -0.5330   -1.8260 hn        1 U3X      0.329800
     21 H2          5.0380   -1.7010   -0.8250 hn        1 U3X      0.329800
     22 H03         1.9260    1.7430    0.2370 ha        1 U3X      0.134500
     23 H04        -0.4470    1.6490   -0.4510 ha        1 U3X      0.116000
     24 H05        -2.3150   -1.5070   -0.5770 hn        1 U3X      0.369800
     25 H07        -2.5480    0.9180    0.5270 h1        1 U3X      0.038200
     26 H06        -2.5790    1.2930   -1.2510 h1        1 U3X      0.038200
     27 H08        -4.5000   -0.4280   -1.4850 hc        1 U3X      0.057700
     28 H09        -4.8120    2.0410    0.3540 hc        1 U3X      0.042200
     29 H10        -4.8120    2.0290   -1.4550 hc        1 U3X      0.042200
     30 H11        -7.1300    2.1210   -0.5040 hc        1 U3X      0.036450
     31 H12        -6.8530    0.6390   -1.5030 hc        1 U3X      0.036450
     32 H14        -6.7990    0.8440    1.5830 hc        1 U3X      0.035700
     33 H13        -8.0610    0.0430    0.5660 hc        1 U3X      0.035700
     34 H16        -6.4350   -1.5980    1.5630 hc        1 U3X      0.036450
     35 H15        -6.4310   -1.6240   -0.2450 hc        1 U3X      0.036450
     36 H17        -4.1220   -1.7000    0.6210 hc        1 U3X      0.042200
     37 H18        -4.3920   -0.2060    1.6030 hc        1 U3X      0.042200
     38 H20         3.6430    0.4390    1.7110 hc        1 U3X      0.058700
     39 H19         3.8970   -1.3040    1.2820 hc        1 U3X      0.058700
     40 H21         4.0590    1.0480   -0.7350 h1        1 U3X      0.043700
     41 OXT         5.7110    1.5080    1.3900 o         1 U3X     -0.842300
     42 H01        -0.3150   -2.6910   -0.1780 ha        1 U3X      0.116000
     43 H02         2.0570   -2.5590    0.4910 ha        1 U3X      0.134500
@<TRIPOS>BOND
     1    1    3 1   
     2    1   19 1   
     3    1   41 1   
     4    2   19 1   
     5    2   20 1   
     6    2   21 1   
     7    4    5 ar  
     8    4    9 ar  
     9    4   42 1   
    10    5    6 ar  
    11    5   43 1   
    12    6    7 ar  
    13    6   18 1   
    14    7    8 ar  
    15    7   22 1   
    16    8    9 ar  
    17    8   23 1   
    18    9   10 1   
    19   10   11 1   
    20   10   24 1   
    21   11   12 1   
    22   11   25 1   
    23   11   26 1   
    24   12   13 1   
    25   12   17 1   
    26   12   27 1   
    27   13   14 1   
    28   13   28 1   
    29   13   29 1   
    30   14   15 1   
    31   14   30 1   
    32   14   31 1   
    33   15   16 1   
    34   15   32 1   
    35   15   33 1   
    36   16   17 1   
    37   16   34 1   
    38   16   35 1   
    39   17   36 1   
    40   17   37 1   
    41   18   19 1   
    42   18   38 1   
    43   18   39 1   
    44   19   40 1   
@<TRIPOS>SUBSTRUCTURE
     1 U3X         1 TEMP              0 ****  ****    0 ROOT
