@<TRIPOS>MOLECULE
U46
   58    59     1     0     0
SMALL
bcc


@<TRIPOS>ATOM
      1 OAX         0.9460   -0.5240    1.9810 o         1 U46     -0.851300
      2 CAW         1.3890    0.1740    1.0240 c         1 U46      0.908600
      3 OAY         1.2540    1.4290    0.9460 o         1 U46     -0.851300
      4 CAR         2.1120   -0.5610   -0.1200 c3        1 U46     -0.196400
      5 CAQ         3.3440    0.1900   -0.5600 c3        1 U46     -0.064400
      6 CAP         3.9620   -0.4250   -1.8000 c3        1 U46     -0.060200
      7 CAO         5.1800    0.2910   -2.2450 c2        1 U46     -0.129200
      8 CAN         5.8670   -0.0010   -3.3550 c2        1 U46     -0.227200
      9 CAF         5.4870   -1.0810   -4.2980 c3        1 U46     -0.034200
     10 CAD         6.6310   -1.4880   -5.2000 c3        1 U46     -0.052700
     11 CAC         6.4150   -2.8430   -5.9170 c3        1 U46     -0.101700
     12 CAB         7.5040   -2.7570   -7.0210 c3        1 U46     -0.118400
     13 CAT         5.1500   -2.7290   -6.7980 c3        1 U46      0.117400
     14 OAS         5.5290   -1.8380   -7.8800 os        1 U46     -0.426600
     15 CAA         6.9020   -1.4580   -7.6220 c3        1 U46      0.130100
     16 CAE         6.8730   -0.5080   -6.3900 c3        1 U46     -0.071500
     17 CAG         8.1400    0.2470   -6.2510 c2        1 U46     -0.127200
     18 CAH         8.2020    1.5040   -5.8060 c2        1 U46     -0.215200
     19 CAI         9.4840    2.2660   -5.6770 c3        1 U46      0.173300
     20 OAU         9.8530    2.4340   -4.3150 oh        1 U46     -0.594800
     21 CAJ         9.3540    3.6200   -6.3770 c3        1 U46     -0.107400
     22 CAK        10.6840    4.3380   -6.4300 c3        1 U46     -0.078400
     23 CAL        10.5390    5.7230   -7.0200 c3        1 U46     -0.079400
     24 CAM        11.8740    6.4340   -7.0890 c3        1 U46     -0.079400
     25 CAV        11.7350    7.8170   -7.6700 c3        1 U46     -0.092100
     26 HAR1        1.3930   -0.6530   -0.9730 hc        1 U46      0.019200
     27 HAR2        2.3820   -1.5930    0.2150 hc        1 U46      0.019200
     28 HAQ1        3.0630    1.2590   -0.7570 hc        1 U46      0.046700
     29 HAQ2        4.0970    0.1930    0.2710 hc        1 U46      0.046700
     30 HAP1        3.2070   -0.4290   -2.6340 hc        1 U46      0.039200
     31 HAP2        4.2200   -1.5010   -1.5960 hc        1 U46      0.039200
     32 HAO         5.5110    1.1170   -1.5930 ha        1 U46      0.123000
     33 HAN         6.7640    0.5760   -3.6320 ha        1 U46      0.111000
     34 HAF1        5.1420   -1.9840   -3.7220 hc        1 U46      0.050200
     35 HAF2        4.6090   -0.7320   -4.9100 hc        1 U46      0.050200
     36 HAD         7.5670   -1.5640   -4.5830 hc        1 U46      0.060700
     37 HAC         6.4380   -3.7250   -5.2530 hc        1 U46      0.081700
     38 HAB1        8.5300   -2.6220   -6.6190 hc        1 U46      0.057200
     39 HAB2        7.4760   -3.6130   -7.7290 hc        1 U46      0.057200
     40 HAT1        4.2770   -2.2760   -6.2740 h1        1 U46      0.051700
     41 HAT2        4.8700   -3.7070   -7.2600 h1        1 U46      0.051700
     42 HAA         7.3250   -1.0500   -8.5570 h1        1 U46      0.088700
     43 HAE         6.0010    0.1920   -6.4880 hc        1 U46      0.081700
     44 HAG         9.0530   -0.3050   -6.5340 ha        1 U46      0.117000
     45 HAH         7.2980    2.0550   -5.5000 ha        1 U46      0.133000
     46 HAI        10.3490    1.6890   -6.1150 h1        1 U46      0.070700
     47 HAU         9.0990    2.8240   -3.8570 ho        1 U46      0.402000
     48 HAJ1        8.6060    4.2490   -5.8270 hc        1 U46      0.046700
     49 HAJ2        8.9630    3.4570   -7.4140 hc        1 U46      0.046700
     50 HAK1       11.1060    4.4050   -5.3910 hc        1 U46      0.046200
     51 HAK2       11.4100    3.7400   -7.0430 hc        1 U46      0.046200
     52 HAL1        9.8260    6.3250   -6.3980 hc        1 U46      0.038700
     53 HAL2       10.0990    5.6500   -8.0500 hc        1 U46      0.038700
     54 HAM1       12.3140    6.5010   -6.0590 hc        1 U46      0.038200
     55 HAM2       12.5860    5.8330   -7.7130 hc        1 U46      0.038200
     56 HAV1       11.3190    7.7700   -8.7060 hc        1 U46      0.031033
     57 HAV2       11.0490    8.4400   -7.0470 hc        1 U46      0.031033
     58 HAV3       12.7300    8.3240   -7.7120 hc        1 U46      0.031033
@<TRIPOS>BOND
     1    1    2 1   
     2    2    3 1   
     3    2    4 1   
     4    4    5 1   
     5    4   26 1   
     6    4   27 1   
     7    5    6 1   
     8    5   28 1   
     9    5   29 1   
    10    6    7 1   
    11    6   30 1   
    12    6   31 1   
    13    7    8 2   
    14    7   32 1   
    15    8    9 1   
    16    8   33 1   
    17    9   10 1   
    18    9   34 1   
    19    9   35 1   
    20   10   11 1   
    21   10   16 1   
    22   10   36 1   
    23   11   12 1   
    24   11   13 1   
    25   11   37 1   
    26   12   15 1   
    27   12   38 1   
    28   12   39 1   
    29   13   14 1   
    30   13   40 1   
    31   13   41 1   
    32   14   15 1   
    33   15   16 1   
    34   15   42 1   
    35   16   17 1   
    36   16   43 1   
    37   17   18 2   
    38   17   44 1   
    39   18   19 1   
    40   18   45 1   
    41   19   20 1   
    42   19   21 1   
    43   19   46 1   
    44   20   47 1   
    45   21   22 1   
    46   21   48 1   
    47   21   49 1   
    48   22   23 1   
    49   22   50 1   
    50   22   51 1   
    51   23   24 1   
    52   23   52 1   
    53   23   53 1   
    54   24   25 1   
    55   24   54 1   
    56   24   55 1   
    57   25   56 1   
    58   25   57 1   
    59   25   58 1   
@<TRIPOS>SUBSTRUCTURE
     1 U46         1 TEMP              0 ****  ****    0 ROOT
