@<TRIPOS>MOLECULE
U46
   58    59     1     0     0
SMALL
bcc


@<TRIPOS>ATOM
      1 OAX         7.8790   -3.4080    0.6360 o         1 U46     -0.851300
      2 CAW         6.7430   -3.3330    0.0850 c         1 U46      0.908600
      3 OAY         6.1940   -4.2920   -0.5310 o         1 U46     -0.851300
      4 CAR         6.0050   -1.9840    0.1540 c3        1 U46     -0.196400
      5 CAQ         4.5370   -2.1760    0.4470 c3        1 U46     -0.064400
      6 CAP         3.7680   -0.8750    0.3390 c3        1 U46     -0.060200
      7 CAO         2.3250   -1.0400    0.6320 c2        1 U46     -0.129200
      8 CAN         1.4160   -0.0640    0.5290 c2        1 U46     -0.227200
      9 CAF         1.7360    1.3170    0.0930 c3        1 U46     -0.034200
     10 CAD         0.6580    2.3070    0.4770 c3        1 U46     -0.052700
     11 CAC         1.1080    3.7860    0.3980 c3        1 U46     -0.101700
     12 CAB        -0.2700    4.5030    0.4330 c3        1 U46     -0.118400
     13 CAT         1.5160    4.0910   -1.0610 c3        1 U46      0.117400
     14 OAS         0.2710    4.0820   -1.8060 os        1 U46     -0.426600
     15 CAA        -0.7670    3.7760   -0.8460 c3        1 U46      0.130100
     16 CAE        -0.5860    2.2780   -0.4630 c3        1 U46     -0.071500
     17 CAG        -1.7890    1.7350    0.2100 c2        1 U46     -0.127200
     18 CAH        -2.2180    0.4800    0.0520 c2        1 U46     -0.215200
     19 CAI        -3.4400   -0.0600    0.7250 c3        1 U46      0.173300
     20 OAU        -3.1010   -0.9770    1.7570 oh        1 U46     -0.594800
     21 CAJ        -4.3540   -0.7180   -0.3100 c3        1 U46     -0.107400
     22 CAK        -5.6810   -1.1080    0.3020 c3        1 U46     -0.078400
     23 CAL        -6.5440   -1.8590   -0.6880 c3        1 U46     -0.079400
     24 CAM        -7.8790   -2.2340   -0.0800 c3        1 U46     -0.079400
     25 CAV        -8.7410   -2.9870   -1.0600 c3        1 U46     -0.092100
     26 HAR1        6.1350   -1.4730   -0.8340 hc        1 U46      0.019200
     27 HAR2        6.4790   -1.3420    0.9380 hc        1 U46      0.019200
     28 HAQ1        4.4140   -2.6000    1.4770 hc        1 U46      0.046700
     29 HAQ2        4.1230   -2.9320   -0.2730 hc        1 U46      0.046700
     30 HAP1        3.8920   -0.4500   -0.6950 hc        1 U46      0.039200
     31 HAP2        4.2060   -0.1210    1.0510 hc        1 U46      0.039200
     32 HAO         2.0170   -2.0510    0.9510 ha        1 U46      0.123000
     33 HAN         0.3550   -0.2560    0.7580 ha        1 U46      0.111000
     34 HAF1        1.8890    1.3150   -1.0220 hc        1 U46      0.050200
     35 HAF2        2.7090    1.6440    0.5540 hc        1 U46      0.050200
     36 HAD         0.3340    2.0960    1.5320 hc        1 U46      0.060700
     37 HAC         1.8500    4.0840    1.1590 hc        1 U46      0.081700
     38 HAB1       -0.1930    5.6030    0.2990 hc        1 U46      0.057200
     39 HAB2       -0.8680    4.2650    1.3370 hc        1 U46      0.057200
     40 HAT1        1.9570    5.1120   -1.1690 h1        1 U46      0.051700
     41 HAT2        2.1870    3.3220   -1.5100 h1        1 U46      0.051700
     42 HAA        -1.7380    4.0640   -1.2870 h1        1 U46      0.088700
     43 HAE        -0.3480    1.6900   -1.3890 hc        1 U46      0.081700
     44 HAG        -2.3200    2.4400    0.8720 ha        1 U46      0.117000
     45 HAH        -1.6810   -0.2370   -0.5910 ha        1 U46      0.133000
     46 HAI        -4.0000    0.7530    1.2710 h1        1 U46      0.070700
     47 HAU        -2.5190   -1.6440    1.3720 ho        1 U46      0.402000
     48 HAJ1       -3.8450   -1.6270   -0.7250 hc        1 U46      0.046700
     49 HAJ2       -4.5160   -0.0040   -1.1570 hc        1 U46      0.046700
     50 HAK1       -6.2190   -0.1880    0.6510 hc        1 U46      0.046200
     51 HAK2       -5.4940   -1.7450    1.2080 hc        1 U46      0.046200
     52 HAL1       -6.0110   -2.7870   -1.0250 hc        1 U46      0.038700
     53 HAL2       -6.7110   -1.2250   -1.5990 hc        1 U46      0.038700
     54 HAM1       -8.4120   -1.3050    0.2540 hc        1 U46      0.038200
     55 HAM2       -7.7090   -2.8630    0.8330 hc        1 U46      0.038200
     56 HAV1       -8.2370   -3.9290   -1.3850 hc        1 U46      0.031033
     57 HAV2       -9.7200   -3.2530   -0.5930 hc        1 U46      0.031033
     58 HAV3       -8.9410   -2.3670   -1.9680 hc        1 U46      0.031033
@<TRIPOS>BOND
     1    1    2 1   
     2    2    3 1   
     3    2    4 1   
     4    4    5 1   
     5    4   26 1   
     6    4   27 1   
     7    5    6 1   
     8    5   28 1   
     9    5   29 1   
    10    6    7 1   
    11    6   30 1   
    12    6   31 1   
    13    7    8 2   
    14    7   32 1   
    15    8    9 1   
    16    8   33 1   
    17    9   10 1   
    18    9   34 1   
    19    9   35 1   
    20   10   11 1   
    21   10   16 1   
    22   10   36 1   
    23   11   12 1   
    24   11   13 1   
    25   11   37 1   
    26   12   15 1   
    27   12   38 1   
    28   12   39 1   
    29   13   14 1   
    30   13   40 1   
    31   13   41 1   
    32   14   15 1   
    33   15   16 1   
    34   15   42 1   
    35   16   17 1   
    36   16   43 1   
    37   17   18 2   
    38   17   44 1   
    39   18   19 1   
    40   18   45 1   
    41   19   20 1   
    42   19   21 1   
    43   19   46 1   
    44   20   47 1   
    45   21   22 1   
    46   21   48 1   
    47   21   49 1   
    48   22   23 1   
    49   22   50 1   
    50   22   51 1   
    51   23   24 1   
    52   23   52 1   
    53   23   53 1   
    54   24   25 1   
    55   24   54 1   
    56   24   55 1   
    57   25   56 1   
    58   25   57 1   
    59   25   58 1   
@<TRIPOS>SUBSTRUCTURE
     1 U46         1 TEMP              0 ****  ****    0 ROOT
