@<TRIPOS>MOLECULE
U46
   58    59     1     0     0
SMALL
bcc


@<TRIPOS>ATOM
      1 OAX        -0.7070   -0.7580   -0.0820 o         1 U46     -0.852300
      2 CAW         0.5280   -0.8120    0.1860 c         1 U46      0.908600
      3 OAY         1.0040   -0.6640    1.3490 o         1 U46     -0.852300
      4 CAR         1.4980   -1.0980   -0.9750 c3        1 U46     -0.195400
      5 CAQ         2.7080   -0.1990   -0.9110 c3        1 U46     -0.064400
      6 CAP         3.7490   -0.5810   -1.9450 c3        1 U46     -0.059200
      7 CAO         4.9370    0.3040   -1.9070 c2        1 U46     -0.136200
      8 CAN         5.9990    0.2010   -2.7140 c2        1 U46     -0.221200
      9 CAF         6.1560   -0.8390   -3.7600 c3        1 U46     -0.032200
     10 CAD         7.0580   -0.3900   -4.8930 c3        1 U46     -0.062700
     11 CAC         7.6730   -1.5670   -5.6920 c3        1 U46     -0.102700
     12 CAB         8.1740   -0.8240   -6.9600 c3        1 U46     -0.117400
     13 CAT         6.5180   -2.3840   -6.3180 c3        1 U46      0.116400
     14 OAS         5.9870   -1.5330   -7.3670 os        1 U46     -0.427600
     15 CAA         6.7550   -0.3060   -7.3110 c3        1 U46      0.134100
     16 CAE         6.3190    0.4140   -5.9960 c3        1 U46     -0.068500
     17 CAG         6.5050    1.8770   -6.0800 c2        1 U46     -0.101200
     18 CAH         7.4780    2.7110   -5.7090 c2        1 U46     -0.229200
     19 CAI         8.7980    2.4280   -5.0710 c3        1 U46      0.178300
     20 OAU         8.6850    2.2020   -3.6710 oh        1 U46     -0.595800
     21 CAJ         9.7840    3.5750   -5.3110 c3        1 U46     -0.109400
     22 CAK        10.1970    3.6580   -6.7630 c3        1 U46     -0.077400
     23 CAL        11.1620    4.8000   -6.9950 c3        1 U46     -0.078400
     24 CAM        11.5820    4.8810   -8.4470 c3        1 U46     -0.080400
     25 CAV        12.5420    6.0180   -8.6840 c3        1 U46     -0.092100
     26 HAR1        0.9630   -0.9630   -1.9470 hc        1 U46      0.019200
     27 HAR2        1.8130   -2.1700   -0.9010 hc        1 U46      0.019200
     28 HAQ1        3.1470   -0.2600    0.1210 hc        1 U46      0.046200
     29 HAQ2        2.3920    0.8640   -1.0730 hc        1 U46      0.046200
     30 HAP1        3.2870   -0.5440   -2.9700 hc        1 U46      0.038700
     31 HAP2        4.0720   -1.6440   -1.7760 hc        1 U46      0.038700
     32 HAO         4.9100    1.0960   -1.1380 ha        1 U46      0.121000
     33 HAN         6.8450    0.9030   -2.6160 ha        1 U46      0.118000
     34 HAF1        5.1470   -1.1380   -4.1550 hc        1 U46      0.048200
     35 HAF2        6.6060   -1.7560   -3.2870 hc        1 U46      0.048200
     36 HAD         7.8960    0.2180   -4.4600 hc        1 U46      0.079700
     37 HAC         8.4140   -2.1660   -5.1340 hc        1 U46      0.078700
     38 HAB1        8.9020   -0.0150   -6.7460 hc        1 U46      0.056200
     39 HAB2        8.5820   -1.5100   -7.7340 hc        1 U46      0.056200
     40 HAT1        6.8800   -3.3200   -6.8070 h1        1 U46      0.051700
     41 HAT2        5.6900   -2.6040   -5.6050 h1        1 U46      0.051700
     42 HAA         6.5960    0.2410   -8.2570 h1        1 U46      0.088700
     43 HAE         5.2100    0.2350   -5.8680 hc        1 U46      0.084700
     44 HAG         5.6210    2.3530   -6.5610 ha        1 U46      0.112000
     45 HAH         7.3160    3.7910   -5.8930 ha        1 U46      0.114000
     46 HAI         9.2500    1.4710   -5.4630 h1        1 U46      0.072700
     47 HAU         8.0950    2.8750   -3.3130 ho        1 U46      0.405000
     48 HAJ1       10.6850    3.4030   -4.6660 hc        1 U46      0.047200
     49 HAJ2        9.3230    4.5430   -4.9860 hc        1 U46      0.047200
     50 HAK1        9.2860    3.7970   -7.4040 hc        1 U46      0.041700
     51 HAK2       10.6750    2.6920   -7.0740 hc        1 U46      0.041700
     52 HAL1       12.0700    4.6620   -6.3490 hc        1 U46      0.039200
     53 HAL2       10.6830    5.7670   -6.6880 hc        1 U46      0.039200
     54 HAM1       12.0610    3.9130   -8.7520 hc        1 U46      0.038200
     55 HAM2       10.6720    5.0150   -9.0910 hc        1 U46      0.038200
     56 HAV1       12.8380    6.0590   -9.7600 hc        1 U46      0.031033
     57 HAV2       13.4650    5.8880   -8.0690 hc        1 U46      0.031033
     58 HAV3       12.0730    6.9930   -8.4090 hc        1 U46      0.031033
@<TRIPOS>BOND
     1    1    2 1   
     2    2    3 1   
     3    2    4 1   
     4    4    5 1   
     5    4   26 1   
     6    4   27 1   
     7    5    6 1   
     8    5   28 1   
     9    5   29 1   
    10    6    7 1   
    11    6   30 1   
    12    6   31 1   
    13    7    8 2   
    14    7   32 1   
    15    8    9 1   
    16    8   33 1   
    17    9   10 1   
    18    9   34 1   
    19    9   35 1   
    20   10   11 1   
    21   10   16 1   
    22   10   36 1   
    23   11   12 1   
    24   11   13 1   
    25   11   37 1   
    26   12   15 1   
    27   12   38 1   
    28   12   39 1   
    29   13   14 1   
    30   13   40 1   
    31   13   41 1   
    32   14   15 1   
    33   15   16 1   
    34   15   42 1   
    35   16   17 1   
    36   16   43 1   
    37   17   18 2   
    38   17   44 1   
    39   18   19 1   
    40   18   45 1   
    41   19   20 1   
    42   19   21 1   
    43   19   46 1   
    44   20   47 1   
    45   21   22 1   
    46   21   48 1   
    47   21   49 1   
    48   22   23 1   
    49   22   50 1   
    50   22   51 1   
    51   23   24 1   
    52   23   52 1   
    53   23   53 1   
    54   24   25 1   
    55   24   54 1   
    56   24   55 1   
    57   25   56 1   
    58   25   57 1   
    59   25   58 1   
@<TRIPOS>SUBSTRUCTURE
     1 U46         1 TEMP              0 ****  ****    0 ROOT
