@<TRIPOS>MOLECULE
U46
   58    57     1     0     0
SMALL
bcc


@<TRIPOS>ATOM
      1 OAX        -7.2310    1.6640    5.4080 o         1 U46     -0.586500
      2 CAW        -5.9790    1.5620    5.5100 c2        1 U46      0.328000
      3 OAY        -5.4430    1.4850    6.6520 o         1 U46     -0.586500
      4 CAR        -5.1060    1.6420    4.2650 c3        1 U46     -0.225000
      5 CAQ        -4.9330    0.2520    3.6790 c3        1 U46     -0.144000
      6 CAP        -4.0870    0.3370    2.4070 c3        1 U46     -0.142000
      7 CAO        -4.2240   -0.9590    1.6210 c2        1 U46     -0.126000
      8 CAN        -3.4470   -1.1750    0.5180 c1        1 U46     -0.217000
      9 CAF        -2.4380   -0.1120    0.0700 c2        1 U46     -0.119000
     10 CAD        -1.9200   -0.4540   -1.4370 c3        1 U46     -0.083000
     11 CAC        -2.6890    0.2770   -2.3840 c3        1 U46     -0.134000
     12 CAB        -1.5840    0.1840   -3.5270 c3        1 U46     -0.200000
     13 CAT        -2.6090    1.6480   -2.2940 c3        1 U46     -0.032000
     14 OAS        -1.2470    2.0290   -2.4360 os        1 U46     -0.285000
     15 CAA        -0.5000    0.9070   -2.6120 c3        1 U46      0.019000
     16 CAE        -0.5760   -0.0660   -1.5750 c3        1 U46     -0.114000
     17 CAG        -0.0480    0.5800   -0.1810 c2        1 U46     -0.095000
     18 CAH         1.2470    0.3610    0.2350 c1        1 U46     -0.191000
     19 CAI         2.1830   -0.4850   -0.6100 c2        1 U46      0.065000
     20 OAU         1.7170   -1.8000   -0.6450 oh        1 U46     -0.319000
     21 CAJ         3.5800   -0.4580   -0.0010 c3        1 U46     -0.197000
     22 CAK         4.6240   -0.6500   -1.1060 c3        1 U46     -0.160000
     23 CAL         6.0160   -0.7860   -0.4760 c3        1 U46     -0.157000
     24 CAM         7.0740   -0.8100   -1.5790 c3        1 U46     -0.159000
     25 CAV         8.4390   -1.0560   -0.9660 c3        1 U46     -0.210000
     26 HAR1       -4.2300    2.0070    4.5040 hc        1 U46      0.058500
     27 HAR2       -5.5330    2.2230    3.6050 hc        1 U46      0.058500
     28 HAQ1       -4.4840   -0.3240    4.3310 hc        1 U46      0.085500
     29 HAQ2       -5.8120   -0.1220    3.4630 hc        1 U46      0.085500
     30 HAP1       -3.1510    0.4750    2.6460 hc        1 U46      0.078000
     31 HAP2       -4.3980    1.0850    1.8580 hc        1 U46      0.078000
     32 HAO        -4.8680   -1.6380    1.9060 ha        1 U46      0.121000
     33 HAN        -3.5360   -2.0070    0.0140 ha        1 U46      0.104000
     34 HAF1       -1.6810   -0.1070    0.6800 ha        1 U46      0.092500
     35 HAF2       -2.8650    0.7650    0.0760 ha        1 U46      0.092500
     36 HAD        -2.0080   -1.4140   -1.6080 hc        1 U46      0.086000
     37 HAC        -3.5560   -0.1000   -2.6350 hc        1 U46      0.129000
     38 HAB1       -1.8200    0.7130   -4.3210 hc        1 U46      0.095000
     39 HAB2       -1.3400   -0.7410   -3.7370 hc        1 U46      0.095000
     40 HAT1       -3.1420    2.0560   -3.0060 h1        1 U46      0.098000
     41 HAT2       -2.9470    1.9420   -1.4180 h1        1 U46      0.098000
     42 HAA         0.3710    1.0230   -3.0430 h1        1 U46      0.122000
     43 HAE        -0.0290   -0.8420   -1.8080 hc        1 U46      0.099000
     44 HAG        -0.6470    1.1230    0.3620 ha        1 U46      0.140000
     45 HAH         1.5630    0.7500    1.0720 ha        1 U46      0.124000
     46 HAI         2.2170   -0.1270   -1.5170 h4        1 U46      0.068000
     47 HAU         2.2720   -2.2990   -1.1280 ho        1 U46      0.189000
     48 HAJ1        3.6630   -1.1770    0.6540 hc        1 U46      0.095000
     49 HAJ2        3.7270    0.4030    0.4400 hc        1 U46      0.095000
     50 HAK1        4.4160   -1.4580   -1.6140 hc        1 U46      0.075500
     51 HAK2        4.6120    0.1250   -1.7060 hc        1 U46      0.075500
     52 HAL1        6.0620   -1.6190    0.0380 hc        1 U46      0.081000
     53 HAL2        6.1820   -0.0250    0.1190 hc        1 U46      0.081000
     54 HAM1        7.0770    0.0480   -2.0460 hc        1 U46      0.077000
     55 HAM2        6.8680   -1.5260   -2.2140 hc        1 U46      0.077000
     56 HAV1        8.6190   -0.3750   -0.2850 hc        1 U46      0.071000
     57 HAV2        8.4560   -1.9460   -0.5510 hc        1 U46      0.071000
     58 HAV3        9.1230   -1.0090   -1.6630 hc        1 U46      0.071000
@<TRIPOS>BOND
     1    1    2 1   
     2    2    3 1   
     3    2    4 1   
     4    4    5 1   
     5    4   26 1   
     6    4   27 1   
     7    5    6 1   
     8    5   28 1   
     9    5   29 1   
    10    6    7 1   
    11    6   30 1   
    12    6   31 1   
    13    7    8 1   
    14    7   32 1   
    15    8   33 1   
    16    9   10 1   
    17    9   34 1   
    18    9   35 1   
    19   10   11 1   
    20   10   16 1   
    21   10   36 1   
    22   11   12 1   
    23   11   13 1   
    24   11   37 1   
    25   12   15 1   
    26   12   38 1   
    27   12   39 1   
    28   13   14 1   
    29   13   40 1   
    30   13   41 1   
    31   14   15 1   
    32   15   16 1   
    33   15   42 1   
    34   16   17 1   
    35   16   43 1   
    36   17   18 1   
    37   17   44 1   
    38   18   45 1   
    39   19   20 1   
    40   19   21 1   
    41   19   46 1   
    42   20   47 1   
    43   21   22 1   
    44   21   48 1   
    45   21   49 1   
    46   22   23 1   
    47   22   50 1   
    48   22   51 1   
    49   23   24 1   
    50   23   52 1   
    51   23   53 1   
    52   24   25 1   
    53   24   54 1   
    54   24   55 1   
    55   25   56 1   
    56   25   57 1   
    57   25   58 1   
@<TRIPOS>SUBSTRUCTURE
     1 U46         1 TEMP              0 ****  ****    0 ROOT
