@<TRIPOS>MOLECULE
U49
   55    59     1     0     0
SMALL
bcc


@<TRIPOS>ATOM
      1 C1         -0.2950   -0.0210    0.1770 ca        1 U49      0.012000
      2 C2          1.1160    0.1550   -0.0470 ca        1 U49      0.025000
      3 C3         -0.8540    0.4750    1.3850 ca        1 U49     -0.048000
      4 C4         -1.1590   -0.6420   -0.7640 ca        1 U49     -0.177000
      5 N5          1.7540   -0.4390   -1.1750 n         1 U49     -0.251000
      6 C6          1.8730    0.8750    0.8730 ca        1 U49     -0.114000
      7 C7         -2.2430    0.2900    1.6500 ca        1 U49     -0.082000
      8 C8         -0.0400    1.1670    2.3180 ca        1 U49     -0.080000
      9 C9         -2.5050   -0.7590   -0.4910 ca        1 U49      0.071000
     10 C10         2.9890   -1.1910   -0.9750 c3        1 U49     -0.040000
     11 C11         1.6120   -0.0150   -2.4840 c2        1 U49      0.292000
     12 C12         1.2910    1.3760    2.0550 ca        1 U49     -0.127000
     13 C13        -3.0670   -0.3140    0.7380 ca        1 U49     -0.117000
     14 O14        -3.4210   -1.3580   -1.3630 os        1 U49     -0.149000
     15 C15         3.6910   -1.3200   -2.3410 c3        1 U49     -0.198000
     16 C17         2.8430   -0.4920   -3.3220 c3        1 U49     -0.139000
     17 C18        -3.1010   -1.2220   -2.7120 ca        1 U49      0.042000
     18 C20        -3.6180   -0.1390   -3.4590 ca        1 U49      0.114000
     19 C21        -2.3490   -2.2170   -3.3320 ca        1 U49     -0.061000
     20 C22         1.8190   -0.3590   -5.6190 c3        1 U49     -0.013000
     21 C23        -3.3080   -0.0390   -4.8240 ca        1 U49     -0.130000
     22 C24        -4.4370    0.8470   -2.8450 c1        1 U49     -0.130000
     23 C25        -1.9740   -2.0760   -4.6880 ca        1 U49     -0.190000
     24 C26         1.6880   -1.1190   -6.8610 c2        1 U49     -0.313000
     25 C27        -2.4630   -0.9680   -5.4200 ca        1 U49     -0.006000
     26 N28        -5.1090    1.6520   -2.3430 n1        1 U49      0.053000
     27 C29        -1.0640   -2.9580   -5.2900 c1        1 U49     -0.115000
     28 N30         0.7060   -2.0850   -7.1360 na        1 U49     -0.210000
     29 C31         2.4820   -1.0060   -8.0420 c2        1 U49     -0.086000
     30 C32         0.9380   -2.5020   -8.4310 c2        1 U49     -0.057000
     31 N33         2.0080   -1.8630   -9.0040 n2        1 U49     -0.139000
     32 O39         0.6670    0.5890   -3.0050 o         1 U49     -0.309000
     33 N54         2.4550   -1.2320   -4.5510 ny        1 U49     -0.033000
     34 H41        -0.7590   -0.9890   -1.7280 ha        1 U49      0.132000
     35 H61         2.9450    1.0670    0.7090 ha        1 U49      0.138000
     36 H71        -2.6480    0.6590    2.6060 ha        1 U49      0.157000
     37 H81        -0.4970    1.5420    3.2490 ha        1 U49      0.155000
     38 H101        3.6660   -0.6790   -0.2370 h1        1 U49      0.123500
     39 H102        2.7240   -2.2030   -0.5610 h1        1 U49      0.123500
     40 H121        1.9250    1.9330    2.7630 ha        1 U49      0.155000
     41 H131       -4.1430   -0.4580    0.9200 ha        1 U49      0.171000
     42 H151        3.7710   -2.3980   -2.6290 hc        1 U49      0.126500
     43 H152        4.7290   -0.9050   -2.2870 hc        1 U49      0.126500
     44 H171        3.4010    0.4370   -3.6450 hx        1 U49      0.174000
     45 H211       -2.0170   -3.0910   -2.7470 ha        1 U49      0.165000
     46 H221        0.8310   -0.0010   -5.2010 hx        1 U49      0.156500
     47 H222        2.4940    0.5300   -5.7790 hx        1 U49      0.156500
     48 H231       -3.7200    0.7960   -5.4160 ha        1 U49      0.177000
     49 H271       -2.1820   -0.8600   -6.4820 ha        1 U49      0.167000
     50 H291       -0.0600   -2.4190   -6.4780 hn        1 U49      0.331000
     51 H292       -0.9160   -3.9540   -4.8530 ha        1 U49      0.092000
     52 H311        3.3310   -0.3450   -8.2210 h4        1 U49      0.185000
     53 H321        0.3290   -3.2630   -8.9380 h5        1 U49      0.214000
     54 H541        3.2950   -1.6730   -4.9500 hn        1 U49      0.240000
     55 H542        1.7990   -1.9800   -4.3090 hn        1 U49      0.240000
@<TRIPOS>BOND
     1    1    2 1   
     2    1    3 1   
     3    1    4 1   
     4    2    5 1   
     5    2    6 1   
     6    3    7 1   
     7    3    8 1   
     8    4    9 1   
     9    4   34 1   
    10    5   10 1   
    11    5   11 1   
    12    6   12 1   
    13    6   35 1   
    14    7   13 1   
    15    7   36 1   
    16    8   12 1   
    17    8   37 1   
    18    9   13 1   
    19    9   14 1   
    20   10   15 1   
    21   10   38 1   
    22   10   39 1   
    23   11   16 1   
    24   11   32 1   
    25   12   40 1   
    26   13   41 1   
    27   14   17 1   
    28   15   16 1   
    29   15   42 1   
    30   15   43 1   
    31   16   33 1   
    32   16   44 1   
    33   17   18 1   
    34   17   19 1   
    35   18   21 1   
    36   18   22 1   
    37   19   23 1   
    38   19   45 1   
    39   20   24 1   
    40   20   33 1   
    41   20   46 1   
    42   20   47 1   
    43   21   25 1   
    44   21   48 1   
    45   22   26 1   
    46   23   25 1   
    47   23   27 1   
    48   24   28 1   
    49   24   29 1   
    50   25   49 1   
    51   27   51 1   
    52   28   30 1   
    53   28   50 1   
    54   29   31 1   
    55   29   52 1   
    56   30   31 1   
    57   30   53 1   
    58   33   54 1   
    59   33   55 1   
@<TRIPOS>SUBSTRUCTURE
     1 U49         1 TEMP              0 ****  ****    0 ROOT
