@<TRIPOS>MOLECULE
U49
   55    60     1     0     0
SMALL
bcc


@<TRIPOS>ATOM
      1 C1         -0.1730   -0.0440    0.0880 ca        1 U49      0.010000
      2 C2          1.2420    0.1960   -0.0190 ca        1 U49      0.018600
      3 C3         -0.8320    0.3370    1.2870 ca        1 U49     -0.048000
      4 C4         -0.9400   -0.6330   -0.9530 ca        1 U49     -0.182000
      5 N5          1.9600   -0.2610   -1.1580 n         1 U49     -0.355000
      6 C6          1.9160    0.8430    1.0110 ca        1 U49     -0.107000
      7 C7         -2.2280    0.0870    1.4330 ca        1 U49     -0.082000
      8 C8         -0.1060    0.9730    2.3280 ca        1 U49     -0.079000
      9 C9         -2.2920   -0.8350   -0.7830 ca        1 U49      0.128100
     10 C10         3.1680   -1.0580   -0.9920 c3        1 U49      0.082000
     11 C11         1.8020    0.2000   -2.4470 c         1 U49      0.684500
     12 C12         1.2360    1.2280    2.1840 ca        1 U49     -0.129000
     13 C13        -2.9570   -0.4890    0.4270 ca        1 U49     -0.118000
     14 O14        -3.1060   -1.4480   -1.7350 os        1 U49     -0.245200
     15 C15         3.8320   -1.1880   -2.3780 c3        1 U49     -0.120400
     16 C17         2.9190   -0.4210   -3.3510 c3        1 U49      0.011500
     17 C18        -2.7760   -1.1990   -3.0660 ca        1 U49      0.135100
     18 C20        -3.4460   -0.1820   -3.7750 ca        1 U49      0.023000
     19 C21        -1.8770   -2.0530   -3.7160 ca        1 U49     -0.149000
     20 C22         1.3860   -0.5430   -5.3360 c3        1 U49      0.214100
     21 C23        -3.2070   -0.0470   -5.1500 ca        1 U49     -0.075000
     22 C24        -4.3580    0.6890   -3.1230 cg        1 U49      0.215800
     23 C25        -1.6430   -1.8960   -5.0860 ca        1 U49     -0.121300
     24 C26         1.1450   -1.3150   -6.5600 cc        1 U49     -0.360900
     25 C27        -2.3140   -0.8980   -5.7990 ca        1 U49     -0.115000
     26 N28        -5.1060    1.4020   -2.5900 n1        1 U49     -0.303800
     27 C29        -0.7300   -2.8740   -5.7670 c3        1 U49      0.076600
     28 N30         0.1800   -2.3300   -6.7370 na        1 U49     -0.190900
     29 C31         1.7650   -1.1440   -7.8240 cd        1 U49      0.388200
     30 C32         0.2570   -2.7080   -8.0800 cc        1 U49      0.457400
     31 N33         1.2110   -2.0100   -8.7480 nd        1 U49     -0.645000
     32 O39         0.9340    0.9430   -2.9160 o         1 U49     -0.575500
     33 N54         2.3430   -1.2800   -4.4250 n4        1 U49     -0.757000
     34 H41        -0.4680   -0.8950   -1.9100 ha        1 U49      0.124000
     35 H61         2.9930    1.0650    0.9410 ha        1 U49      0.140000
     36 H71        -2.7160    0.3780    2.3780 ha        1 U49      0.156000
     37 H81        -0.6400    1.2630    3.2470 ha        1 U49      0.154000
     38 H101        2.8880   -2.0670   -0.5800 h1        1 U49      0.083700
     39 H102        3.8730   -0.5670   -0.2650 h1        1 U49      0.083700
     40 H121        1.8010    1.7350    2.9820 ha        1 U49      0.155000
     41 H131       -4.0360   -0.6870    0.5220 ha        1 U49      0.171000
     42 H151        3.9640   -2.2660   -2.6440 hc        1 U49      0.089200
     43 H152        4.8470   -0.7150   -2.3680 hc        1 U49      0.089200
     44 H171        3.4710    0.4280   -3.8500 hx        1 U49      0.135700
     45 H211       -1.3950   -2.8580   -3.1410 ha        1 U49      0.151000
     46 H221        1.8540    0.4520   -5.5910 hx        1 U49      0.131700
     47 H222        0.4360   -0.3510   -4.7490 hx        1 U49      0.131700
     48 H231       -3.7350    0.7350   -5.7210 ha        1 U49      0.169000
     49 H271       -2.1500   -0.7790   -6.8820 ha        1 U49      0.156000
     50 H291       -0.1200   -3.4210   -4.9870 h1        1 U49      0.076200
     51 H292       -1.3750   -3.6410   -6.2950 h1        1 U49      0.076200
     52 H311        2.5550   -0.4420   -8.1000 h4        1 U49      0.060100
     53 H321       -0.3820   -3.4860   -8.5210 h5        1 U49      0.089100
     54 H541        3.1150   -1.6580   -4.9890 hn        1 U49      0.445800
     55 H542        1.8500   -2.0720   -4.0000 hn        1 U49      0.445800
@<TRIPOS>BOND
     1    1    2 ar  
     2    1    3 ar  
     3    1    4 ar  
     4    2    5 1   
     5    2    6 ar  
     6    3    7 ar  
     7    3    8 ar  
     8    4    9 ar  
     9    4   34 1   
    10    5   10 1   
    11    5   11 1   
    12    6   12 ar  
    13    6   35 1   
    14    7   13 ar  
    15    7   36 1   
    16    8   12 ar  
    17    8   37 1   
    18    9   13 ar  
    19    9   14 1   
    20   10   15 1   
    21   10   38 1   
    22   10   39 1   
    23   11   16 1   
    24   11   32 2   
    25   12   40 1   
    26   13   41 1   
    27   14   17 1   
    28   15   16 1   
    29   15   42 1   
    30   15   43 1   
    31   16   33 1   
    32   16   44 1   
    33   17   18 ar  
    34   17   19 ar  
    35   18   21 ar  
    36   18   22 1   
    37   19   23 ar  
    38   19   45 1   
    39   20   24 1   
    40   20   33 1   
    41   20   46 1   
    42   20   47 1   
    43   21   25 ar  
    44   21   48 1   
    45   22   26 3   
    46   23   25 ar  
    47   23   27 1   
    48   24   28 1   
    49   24   29 2   
    50   25   49 1   
    51   27   28 1   
    52   27   50 1   
    53   27   51 1   
    54   28   30 1   
    55   29   31 1   
    56   29   52 1   
    57   30   31 2   
    58   30   53 1   
    59   33   54 1   
    60   33   55 1   
@<TRIPOS>SUBSTRUCTURE
     1 U49         1 TEMP              0 ****  ****    0 ROOT
