@<TRIPOS>MOLECULE
U4S
   40    42     1     0     0
SMALL
bcc


@<TRIPOS>ATOM
      1 C4         -4.1400    1.6290   -0.0290 c         1 U4S      0.714700
      2 C5         -3.9780    0.9690    1.2710 cc        1 U4S     -0.315200
      3 C6         -2.9840    0.0670    1.4690 cd        1 U4S      0.056600
      4 N1         -2.1100   -0.3210    0.4580 n         1 U4S     -0.382000
      5 N3         -3.2170    1.2590   -1.0240 n         1 U4S     -0.585500
      6 CAJ         4.2690    0.9420    1.3530 c3        1 U4S      0.157300
      7 C5'         2.5810   -0.5780    0.4710 c3        1 U4S      0.173800
      8 C4'         1.1680   -0.7030   -0.1120 c3        1 U4S      0.144100
      9 O4'         0.2280   -0.3680    0.9260 os        1 U4S     -0.402600
     10 C3'         0.8470   -2.1580   -0.5150 c3        1 U4S      0.082100
     11 O3'         1.1470   -2.3030   -1.8870 oh        1 U4S     -0.570800
     12 C2'        -0.6630   -2.3020   -0.2130 c3        1 U4S      0.073100
     13 O2'        -0.9490   -3.5060    0.4720 oh        1 U4S     -0.592800
     14 C1'        -0.9610   -1.1530    0.8020 c3        1 U4S      0.311500
     15 O4         -5.0130    2.4690   -0.3010 o         1 U4S     -0.607500
     16 C2         -2.1870    0.3310   -0.8060 c         1 U4S      0.808500
     17 O2         -1.3870    0.0640   -1.7290 o         1 U4S     -0.643500
     18 CAI         3.2440    1.4530   -0.7320 c3        1 U4S      0.157300
     19 CAG         4.6500    2.0710   -0.7830 c3        1 U4S     -0.093900
     20 CAH         5.3050    1.7470    0.5530 c3        1 U4S     -0.093900
     21 NAT         3.0460    0.7930    0.5610 n3        1 U4S     -0.717600
     22 H5         -4.6900    1.2460    2.0580 ha        1 U4S      0.180000
     23 H6         -2.8340   -0.4260    2.4490 h4        1 U4S      0.166000
     24 HN3        -3.2530    1.6900   -1.9220 hn        1 U4S      0.352500
     25 HAJA        3.9820    1.4940    2.2900 h1        1 U4S      0.045950
     26 H5'         2.5700   -1.0040    1.5140 h1        1 U4S      0.045200
     27 H5'A        3.2520   -1.2220   -0.1710 h1        1 U4S      0.045200
     28 H4'         0.9910   -0.0150   -0.9850 h1        1 U4S      0.101700
     29 H3'         1.4350   -2.8970    0.0940 h1        1 U4S      0.058700
     30 HO3'        0.8820   -3.1970   -2.1350 ho        1 U4S      0.401000
     31 H2'        -1.2620   -2.2140   -1.1580 h1        1 U4S      0.093700
     32 HO2'       -0.9710   -4.2060   -0.1920 ho        1 U4S      0.410000
     33 H1'        -1.1490   -1.5900    1.8300 h2        1 U4S      0.103700
     34 HAI         2.4610    2.2560   -0.8110 h1        1 U4S      0.045950
     35 HAIA        3.0990    0.7480   -1.5960 h1        1 U4S      0.045950
     36 HAG         5.2350    1.6420   -1.6320 hc        1 U4S      0.046700
     37 HAGA        4.5830    3.1750   -0.9400 hc        1 U4S      0.046700
     38 HAH         5.5790    2.6790    1.1030 hc        1 U4S      0.046700
     39 HAHA        6.2380    1.1490    0.4090 hc        1 U4S      0.046700
     40 HAJ         4.7040   -0.0490    1.6600 h1        1 U4S      0.045950
@<TRIPOS>BOND
     1    1    2 1   
     2    1    5 1   
     3    1   15 2   
     4    2    3 2   
     5    2   22 1   
     6    3    4 1   
     7    3   23 1   
     8    4   14 1   
     9    4   16 1   
    10    5   16 1   
    11    5   24 1   
    12    6   20 1   
    13    6   21 1   
    14    6   25 1   
    15    6   40 1   
    16    7    8 1   
    17    7   21 1   
    18    7   26 1   
    19    7   27 1   
    20    8    9 1   
    21    8   10 1   
    22    8   28 1   
    23    9   14 1   
    24   10   11 1   
    25   10   12 1   
    26   10   29 1   
    27   11   30 1   
    28   12   13 1   
    29   12   14 1   
    30   12   31 1   
    31   13   32 1   
    32   14   33 1   
    33   16   17 2   
    34   18   19 1   
    35   18   21 1   
    36   18   34 1   
    37   18   35 1   
    38   19   20 1   
    39   19   36 1   
    40   19   37 1   
    41   20   38 1   
    42   20   39 1   
@<TRIPOS>SUBSTRUCTURE
     1 U4S         1 TEMP              0 ****  ****    0 ROOT
