@<TRIPOS>MOLECULE
U4S
   40    40     1     0     0
SMALL
bcc


@<TRIPOS>ATOM
      1 C4         -2.0090   -0.1840   -5.1490 c1        1 U4S      0.586500
      2 C5         -0.5410   -0.1840   -5.1490 c1        1 U4S     -0.062500
      3 C6          0.1920   -0.1840   -3.8690 c1        1 U4S     -0.062500
      4 N1         -0.5270   -0.1940   -2.6440 n2        1 U4S     -0.401200
      5 N3         -2.7150   -0.1860   -3.9210 n         1 U4S     -0.515500
      6 CAJ         0.4120   -1.9540    3.0180 c3        1 U4S      0.158800
      7 C5'         0.4800   -0.0540    1.4810 c3        1 U4S      0.172800
      8 C4'        -0.4910    0.5270    0.4880 c3        1 U4S      0.107100
      9 O4'        -0.8490   -0.3760   -0.3660 os        1 U4S     -0.397600
     10 C3'         0.2330    1.7250   -0.3810 c3        1 U4S      0.095100
     11 O3'        -0.7940    2.6080   -0.9830 oh        1 U4S     -0.592800
     12 C2'         0.8800    1.1600   -1.2690 c3        1 U4S      0.084100
     13 O2'         2.2790    0.9070   -0.8090 oh        1 U4S     -0.594800
     14 C1'         0.1160   -0.2280   -1.5170 c3        1 U4S      0.392300
     15 O4         -2.6180   -0.2460   -6.2010 o         1 U4S     -0.560500
     16 C2         -1.9830   -0.2800   -2.6540 c2        1 U4S      0.742300
     17 O2         -2.5840   -0.4810   -1.6220 o         1 U4S     -0.671300
     18 CAI        -0.1390    0.1500    3.6360 c3        1 U4S      0.158800
     19 CAG         1.1650   -0.3570    4.4440 c3        1 U4S     -0.093900
     20 CAH         1.1680   -1.6430    4.3510 c3        1 U4S     -0.093900
     21 NAT        -0.2510   -0.6270    2.5940 n3        1 U4S     -0.719600
     22 H5         -0.0510   -0.1810   -5.9940 ha        1 U4S      0.118000
     23 H6          1.1680   -0.1840   -3.8630 ha        1 U4S      0.118000
     24 HN3        -3.6270   -0.2130   -3.9230 hn        1 U4S      0.353500
     25 HAJ         1.0420   -2.2490    2.3330 h1        1 U4S      0.044200
     26 HAJA       -0.2680   -2.6380    3.1680 h1        1 U4S      0.044200
     27 H5'         1.0110   -0.7490    1.0480 h1        1 U4S      0.046700
     28 H5'A        1.0710    0.6510    1.8080 h1        1 U4S      0.046700
     29 H4'        -1.2750    0.8780    0.9520 h1        1 U4S      0.081700
     30 H3'         0.8290    2.2430    0.1920 h1        1 U4S      0.093700
     31 HO3'       -0.7180    3.4250   -0.6430 ho        1 U4S      0.433000
     32 H2'         0.8810    1.6990   -2.0840 h1        1 U4S      0.082700
     33 HO2'        2.8470    1.3320   -1.3420 ho        1 U4S      0.419000
     34 H1'         0.7550   -0.9660   -1.5170 h2        1 U4S      0.111700
     35 HAI        -0.0180    1.0760    3.3520 h1        1 U4S      0.044200
     36 HAIA       -0.9330    0.0730    4.1980 h1        1 U4S      0.044200
     37 HAG         1.1050   -0.0890    5.3810 hc        1 U4S      0.047450
     38 HAGA        1.9740    0.0110    4.0410 hc        1 U4S      0.047450
     39 HAH         0.6980   -2.0390    5.1080 hc        1 U4S      0.047450
     40 HAHA        2.0840   -1.9770    4.3070 hc        1 U4S      0.047450
@<TRIPOS>BOND
     1    1    5 2   
     2    1   15 2   
     3    2    3 3   
     4    2   22 1   
     5    3   23 1   
     6    4   14 1   
     7    4   16 2   
     8    5   16 1   
     9    5   24 1   
    10    6   20 1   
    11    6   21 1   
    12    6   25 1   
    13    6   26 1   
    14    7    8 1   
    15    7   21 1   
    16    7   27 1   
    17    7   28 1   
    18    8    9 1   
    19    8   10 1   
    20    8   29 1   
    21    9   14 1   
    22   10   11 1   
    23   10   12 1   
    24   10   30 1   
    25   11   31 1   
    26   12   13 1   
    27   12   14 1   
    28   12   32 1   
    29   13   33 1   
    30   14   34 1   
    31   16   17 1   
    32   18   19 1   
    33   18   21 1   
    34   18   35 1   
    35   18   36 1   
    36   19   20 1   
    37   19   37 1   
    38   19   38 1   
    39   20   39 1   
    40   20   40 1   
@<TRIPOS>SUBSTRUCTURE
     1 U4S         1 TEMP              0 ****  ****    0 ROOT
