@<TRIPOS>MOLECULE
U4S
   40    42     1     0     0
SMALL
bcc


@<TRIPOS>ATOM
      1 C4          0.1050   -0.0090   -0.1510 c         1 U4S      0.714700
      2 C5          1.5530   -0.1710    0.0250 cc        1 U4S     -0.310200
      3 C6          2.1230   -0.0060    1.2450 cd        1 U4S      0.047600
      4 N1          1.3990    0.3880    2.3680 n         1 U4S     -0.383000
      5 N3         -0.6200    0.3210    1.0080 n         1 U4S     -0.585500
      6 CAJ         1.3870   -4.0780    7.1820 c3        1 U4S      0.157300
      7 C5'         1.4040   -1.7180    6.5780 c3        1 U4S      0.172800
      8 C4'         0.9870   -0.6740    5.5350 c3        1 U4S      0.141100
      9 O4'         1.7440   -0.9180    4.3340 os        1 U4S     -0.403600
     10 C3'         1.3610    0.7540    5.9840 c3        1 U4S      0.120100
     11 O3'         0.2490    1.3180    6.6410 oh        1 U4S     -0.575800
     12 C2'         1.6880    1.4780    4.6570 c3        1 U4S      0.073100
     13 O2'         2.8200    2.2940    4.8710 oh        1 U4S     -0.591800
     14 C1'         2.0460    0.3160    3.6750 c3        1 U4S      0.272500
     15 O4         -0.5020   -0.1410   -1.2260 o         1 U4S     -0.605500
     16 C2         -0.0220    0.4740    2.2680 c         1 U4S      0.806500
     17 O2         -0.7330    0.7280    3.2630 o         1 U4S     -0.638500
     18 CAI        -0.6590   -3.0420    6.5520 c3        1 U4S      0.157300
     19 CAG        -1.0330   -4.1710    7.5250 c3        1 U4S     -0.093900
     20 CAH         0.2760   -4.8370    7.9250 c3        1 U4S     -0.093900
     21 NAT         0.7930   -3.0170    6.3660 n3        1 U4S     -0.717600
     22 H5          2.1320   -0.4350   -0.8680 ha        1 U4S      0.180000
     23 H6          3.2090   -0.1530    1.4020 h4        1 U4S      0.164000
     24 HN3        -1.6130    0.4060    0.9660 hn        1 U4S      0.352500
     25 HAJA        1.9260   -4.7670    6.4760 h1        1 U4S      0.045450
     26 H5'         1.1540   -1.2810    7.5900 h1        1 U4S      0.045700
     27 H5'A        2.5220   -1.8510    6.5140 h1        1 U4S      0.045700
     28 H4'        -0.1070   -0.7230    5.2790 h1        1 U4S      0.099700
     29 H3'         2.2610    0.7600    6.6590 h1        1 U4S      0.066700
     30 HO3'        0.4950    2.2230    6.8730 ho        1 U4S      0.412000
     31 H2'         0.8060    2.0800    4.3120 h1        1 U4S      0.097700
     32 HO2'        2.8940    2.8800    4.1070 ho        1 U4S      0.411000
     33 H1'         3.1650    0.3000    3.4980 h2        1 U4S      0.090700
     34 HAI        -1.0570   -2.0590    6.9280 h1        1 U4S      0.045450
     35 HAIA       -1.1140   -3.2300    5.5410 h1        1 U4S      0.045450
     36 HAG        -1.7190   -4.9000    7.0280 hc        1 U4S      0.046950
     37 HAGA       -1.5640   -3.7590    8.4170 hc        1 U4S      0.046950
     38 HAH         0.4350   -4.7800    9.0300 hc        1 U4S      0.046950
     39 HAHA        0.2830   -5.9160    7.6360 hc        1 U4S      0.046950
     40 HAJ         2.1410   -3.6830    7.9170 h1        1 U4S      0.045450
@<TRIPOS>BOND
     1    1    2 1   
     2    1    5 1   
     3    1   15 2   
     4    2    3 2   
     5    2   22 1   
     6    3    4 1   
     7    3   23 1   
     8    4   14 1   
     9    4   16 1   
    10    5   16 1   
    11    5   24 1   
    12    6   20 1   
    13    6   21 1   
    14    6   25 1   
    15    6   40 1   
    16    7    8 1   
    17    7   21 1   
    18    7   26 1   
    19    7   27 1   
    20    8    9 1   
    21    8   10 1   
    22    8   28 1   
    23    9   14 1   
    24   10   11 1   
    25   10   12 1   
    26   10   29 1   
    27   11   30 1   
    28   12   13 1   
    29   12   14 1   
    30   12   31 1   
    31   13   32 1   
    32   14   33 1   
    33   16   17 2   
    34   18   19 1   
    35   18   21 1   
    36   18   34 1   
    37   18   35 1   
    38   19   20 1   
    39   19   36 1   
    40   19   37 1   
    41   20   38 1   
    42   20   39 1   
@<TRIPOS>SUBSTRUCTURE
     1 U4S         1 TEMP              0 ****  ****    0 ROOT
