@<TRIPOS>MOLECULE
U4S
   40    42     1     0     0
SMALL
bcc


@<TRIPOS>ATOM
      1 C4          0.1070    0.0060   -0.1470 c         1 U4S      0.714700
      2 C5          1.5550   -0.1580    0.0290 cc        1 U4S     -0.310200
      3 C6          2.1240    0.0030    1.2500 cd        1 U4S      0.047600
      4 N1          1.4000    0.3950    2.3740 n         1 U4S     -0.383000
      5 N3         -0.6180    0.3330    1.0130 ns        1 U4S     -0.585500
      6 CAJ         1.3860   -4.0840    7.1760 c3        1 U4S      0.157300
      7 C5'         1.4030   -1.7220    6.5780 c3        1 U4S      0.172800
      8 C4'         0.9860   -0.6750    5.5380 c3        1 U4S      0.141100
      9 O4'         1.7440   -0.9160    4.3370 os        1 U4S     -0.403600
     10 C3'         1.3610    0.7520    5.9910 c3        1 U4S      0.120100
     11 O3'         0.2480    1.3140    6.6480 oh        1 U4S     -0.575800
     12 C2'         1.6890    1.4790    4.6650 c3        1 U4S      0.073100
     13 O2'         2.8210    2.2930    4.8820 oh        1 U4S     -0.591800
     14 C1'         2.0470    0.3190    3.6810 c3        1 U4S      0.272500
     15 O4         -0.5000   -0.1230   -1.2220 o         1 U4S     -0.605500
     16 C2         -0.0200    0.4820    2.2740 c         1 U4S      0.806500
     17 O2         -0.7320    0.7340    3.2690 o         1 U4S     -0.638500
     18 CAI        -0.6600   -3.0480    6.5430 c3        1 U4S      0.157300
     19 CAG        -1.0360   -4.1820    7.5090 c3        1 U4S     -0.093900
     20 CAH         0.2730   -4.8480    7.9110 c3        1 U4S     -0.093900
     21 NAT         0.7930   -3.0210    6.3610 n3        1 U4S     -0.717600
     22 H5          2.1340   -0.4200   -0.8640 ha        1 U4S      0.180000
     23 H6          3.2100   -0.1460    1.4070 h4        1 U4S      0.164000
     24 HN3        -1.6110    0.4200    0.9710 hn        1 U4S      0.352500
     25 HAJA        1.9300   -4.7690    6.4690 h1        1 U4S      0.045700
     26 H5'         2.5200   -1.8530    6.5170 h1        1 U4S      0.045700
     27 H5'A        1.1490   -1.2880    7.5910 h1        1 U4S      0.045700
     28 H4'        -0.1080   -0.7230    5.2810 h1        1 U4S      0.099700
     29 H3'         2.2600    0.7550    6.6660 h1        1 U4S      0.066700
     30 HO3'        0.4950    2.2180    6.8820 ho        1 U4S      0.412000
     31 H2'         0.8080    2.0830    4.3220 h1        1 U4S      0.097700
     32 HO2'        2.8980    2.8810    4.1200 ho        1 U4S      0.411000
     33 H1'         3.1660    0.3030    3.5040 h2        1 U4S      0.090700
     34 HAI        -1.1120   -3.2310    5.5300 h1        1 U4S      0.045700
     35 HAIA       -1.0590   -2.0670    6.9230 h1        1 U4S      0.045700
     36 HAG        -1.5710   -3.7750    8.4010 hc        1 U4S      0.046950
     37 HAGA       -1.7180   -4.9100    7.0060 hc        1 U4S      0.046950
     38 HAH         0.4280   -4.7950    9.0170 hc        1 U4S      0.046950
     39 HAHA        0.2830   -5.9250    7.6170 hc        1 U4S      0.046950
     40 HAJ         2.1360   -3.6900    7.9160 h1        1 U4S      0.045700
@<TRIPOS>BOND
     1    1    2 1   
     2    1    5 1   
     3    1   15 2   
     4    2    3 2   
     5    2   22 1   
     6    3    4 1   
     7    3   23 1   
     8    4   14 1   
     9    4   16 1   
    10    5   16 1   
    11    5   24 1   
    12    6   20 1   
    13    6   21 1   
    14    6   25 1   
    15    6   40 1   
    16    7    8 1   
    17    7   21 1   
    18    7   26 1   
    19    7   27 1   
    20    8    9 1   
    21    8   10 1   
    22    8   28 1   
    23    9   14 1   
    24   10   11 1   
    25   10   12 1   
    26   10   29 1   
    27   11   30 1   
    28   12   13 1   
    29   12   14 1   
    30   12   31 1   
    31   13   32 1   
    32   14   33 1   
    33   16   17 2   
    34   18   19 1   
    35   18   21 1   
    36   18   34 1   
    37   18   35 1   
    38   19   20 1   
    39   19   36 1   
    40   19   37 1   
    41   20   38 1   
    42   20   39 1   
@<TRIPOS>SUBSTRUCTURE
     1 U4S         1 TEMP              0 ****  ****    0 ROOT
