@<TRIPOS>MOLECULE
U4S
   40    42     1     0     0
SMALL
bcc


@<TRIPOS>ATOM
      1 C4          0.1040    0.0100   -0.1460 c         1 U4S      0.714700
      2 C5          1.5520   -0.1600    0.0290 cc        1 U4S     -0.310200
      3 C6          2.1230   -0.0010    1.2480 cd        1 U4S      0.047600
      4 N1          1.4020    0.3940    2.3730 n         1 U4S     -0.383000
      5 N3         -0.6180    0.3390    1.0150 n         1 U4S     -0.585500
      6 CAJ         1.3780   -4.0870    7.1740 c3        1 U4S      0.157300
      7 C5'         1.4030   -1.7250    6.5770 c3        1 U4S      0.172800
      8 C4'         0.9890   -0.6760    5.5380 c3        1 U4S      0.141100
      9 O4'         1.7440   -0.9200    4.3350 os        1 U4S     -0.403600
     10 C3'         1.3690    0.7500    5.9900 c3        1 U4S      0.120100
     11 O3'         0.2590    1.3160    6.6490 oh        1 U4S     -0.575800
     12 C2'         1.6980    1.4760    4.6650 c3        1 U4S      0.073100
     13 O2'         2.8340    2.2860    4.8800 oh        1 U4S     -0.591800
     14 C1'         2.0510    0.3150    3.6800 c3        1 U4S      0.272500
     15 O4         -0.5040   -0.1170   -1.2200 o         1 U4S     -0.605500
     16 C2         -0.0180    0.4860    2.2750 c         1 U4S      0.806500
     17 O2         -0.7280    0.7400    3.2720 o         1 U4S     -0.638500
     18 CAI        -0.6650   -3.0420    6.5450 c3        1 U4S      0.157300
     19 CAG        -1.0430   -4.1760    7.5120 c3        1 U4S     -0.093900
     20 CAH         0.2640   -4.8460    7.9120 c3        1 U4S     -0.093900
     21 NAT         0.7880   -3.0210    6.3600 n3        1 U4S     -0.717600
     22 H5          2.1290   -0.4240   -0.8660 ha        1 U4S      0.180000
     23 H6          3.2090   -0.1540    1.4040 h4        1 U4S      0.164000
     24 HN3        -1.6110    0.4300    0.9740 hn        1 U4S      0.352500
     25 HAJA        1.9180   -4.7740    6.4660 h1        1 U4S      0.045450
     26 H5'         1.1530   -1.2900    7.5900 h1        1 U4S      0.045700
     27 H5'A        2.5200   -1.8600    6.5140 h1        1 U4S      0.045700
     28 H4'        -0.1060   -0.7190    5.2820 h1        1 U4S      0.099700
     29 H3'         2.2690    0.7500    6.6640 h1        1 U4S      0.066700
     30 HO3'        0.5090    2.2190    6.8830 ho        1 U4S      0.412000
     31 H2'         0.8190    2.0830    4.3220 h1        1 U4S      0.097700
     32 HO2'        2.9110    2.8730    4.1180 ho        1 U4S      0.411000
     33 H1'         3.1690    0.2950    3.5010 h2        1 U4S      0.090700
     34 HAI        -1.0600   -2.0610    6.9260 h1        1 U4S      0.045450
     35 HAIA       -1.1190   -3.2240    5.5330 h1        1 U4S      0.045450
     36 HAG        -1.5740   -3.7660    8.4050 hc        1 U4S      0.046950
     37 HAGA       -1.7300   -4.9000    7.0110 hc        1 U4S      0.046950
     38 HAH         0.4210   -4.7950    9.0170 hc        1 U4S      0.046950
     39 HAHA        0.2690   -5.9240    7.6170 hc        1 U4S      0.046950
     40 HAJ         2.1310   -3.6960    7.9120 h1        1 U4S      0.045450
@<TRIPOS>BOND
     1    1    2 1   
     2    1    5 1   
     3    1   15 2   
     4    2    3 2   
     5    2   22 1   
     6    3    4 1   
     7    3   23 1   
     8    4   14 1   
     9    4   16 1   
    10    5   16 1   
    11    5   24 1   
    12    6   20 1   
    13    6   21 1   
    14    6   25 1   
    15    6   40 1   
    16    7    8 1   
    17    7   21 1   
    18    7   26 1   
    19    7   27 1   
    20    8    9 1   
    21    8   10 1   
    22    8   28 1   
    23    9   14 1   
    24   10   11 1   
    25   10   12 1   
    26   10   29 1   
    27   11   30 1   
    28   12   13 1   
    29   12   14 1   
    30   12   31 1   
    31   13   32 1   
    32   14   33 1   
    33   16   17 2   
    34   18   19 1   
    35   18   21 1   
    36   18   34 1   
    37   18   35 1   
    38   19   20 1   
    39   19   36 1   
    40   19   37 1   
    41   20   38 1   
    42   20   39 1   
@<TRIPOS>SUBSTRUCTURE
     1 U4S         1 TEMP              0 ****  ****    0 ROOT
