@<TRIPOS>MOLECULE
U51
   55    56     1     0     0
SMALL
bcc


@<TRIPOS>ATOM
      1 OAW         5.1840   -0.4810   -4.5960 o         1 U51     -0.859800
      2 CAV         3.9500   -0.6940   -4.7770 c         1 U51      0.903600
      3 OAX         3.4340   -0.7560   -5.9370 o         1 U51     -0.859800
      4 CAR         3.0500   -0.8850   -3.5520 c3        1 U51     -0.188400
      5 CAQ         1.7060   -0.2160   -3.7240 c3        1 U51     -0.060400
      6 CAP         1.7810    1.2820   -3.4770 c3        1 U51     -0.053200
      7 CAO         0.5890    1.9700   -4.0260 c2        1 U51     -0.157200
      8 CAN         0.5730    2.8390   -5.0420 c2        1 U51     -0.179200
      9 CAF         1.7520    3.3170   -5.8060 c3        1 U51     -0.031200
     10 CAD         2.3700    2.2410   -6.6680 c3        1 U51     -0.084700
     11 CAC         1.5040    1.7520   -7.8760 c3        1 U51      0.033500
     12 CAB         2.6370    0.9660   -8.6420 c3        1 U51     -0.119400
     13 NAT         1.2790    2.9200   -8.8200 n2        1 U51     -0.196200
     14 NAS         2.3350    3.2180   -9.3650 n2        1 U51     -0.201200
     15 CAA         3.4400    2.2990   -8.8590 c3        1 U51      0.024500
     16 CAE         3.6920    2.7060   -7.3610 c3        1 U51     -0.033500
     17 CAG         4.8790    2.0160   -6.8060 c2        1 U51     -0.162200
     18 CAH         6.0660    2.6070   -6.6350 c2        1 U51     -0.189200
     19 CAI         7.2070    1.9040   -5.9970 c3        1 U51     -0.061200
     20 CAJ         8.3690    1.7430   -6.9570 c3        1 U51     -0.068400
     21 CAK         9.5340    1.0460   -6.2880 c3        1 U51     -0.081400
     22 CAL        10.6930    0.8650   -7.2440 c3        1 U51     -0.077400
     23 CAM        11.8580    0.1680   -6.5740 c3        1 U51     -0.081400
     24 CAU        13.0150   -0.0180   -7.5220 c3        1 U51     -0.090100
     25 H2          3.5740   -0.4910   -2.6450 hc        1 U51      0.028200
     26 H3          2.9010   -1.9870   -3.4140 hc        1 U51      0.028200
     27 H4          1.3510   -0.4050   -4.7730 hc        1 U51      0.033200
     28 H5          0.9560   -0.6660   -3.0220 hc        1 U51      0.033200
     29 H6          1.8430    1.4780   -2.3720 hc        1 U51      0.047700
     30 H7          2.7270    1.6800   -3.9350 hc        1 U51      0.047700
     31 H8         -0.3600    1.6940   -3.5340 ha        1 U51      0.098000
     32 H10        -0.3890    3.2670   -5.3720 ha        1 U51      0.103000
     33 H12         1.4590    4.2020   -6.4310 hc        1 U51      0.041700
     34 H13         2.5400    3.6750   -5.0850 hc        1 U51      0.041700
     35 H14         2.5760    1.3240   -6.0350 hc        1 U51      0.137700
     36 H15         0.5720    1.2230   -7.6140 h1        1 U51      0.098700
     37 H16         3.1610    0.2310   -7.9840 hc        1 U51      0.093700
     38 H17         2.3010    0.4780   -9.5790 hc        1 U51      0.093700
     39 H20         4.3270    2.2870   -9.5140 h1        1 U51      0.092700
     40 H21         3.8120    3.8180   -7.2760 hc        1 U51      0.047700
     41 H22         4.7220    0.9570   -6.4920 ha        1 U51      0.211000
     42 H23         6.2530    3.6490   -6.9360 ha        1 U51      0.089000
     43 H24         6.8740    0.8940   -5.6170 hc        1 U51      0.070200
     44 H25         7.5450    2.4980   -5.1040 hc        1 U51      0.070200
     45 H26         8.0370    1.1470   -7.8470 hc        1 U51      0.029200
     46 H27         8.6960    2.7480   -7.3340 hc        1 U51      0.029200
     47 H28         9.1980    0.0460   -5.9050 hc        1 U51      0.043700
     48 H29         9.8700    1.6440   -5.3990 hc        1 U51      0.043700
     49 H30        11.0250    1.8650   -7.6300 hc        1 U51      0.034200
     50 H31        10.3570    0.2650   -8.1310 hc        1 U51      0.034200
     51 H32        12.1910    0.7680   -5.6870 hc        1 U51      0.038200
     52 H33        11.5220   -0.8310   -6.1890 hc        1 U51      0.038200
     53 H34        13.8620   -0.5330   -7.0090 hc        1 U51      0.026033
     54 H35        12.7070   -0.6350   -8.4010 hc        1 U51      0.026033
     55 H36        13.3780    0.9690   -7.8990 hc        1 U51      0.026033
@<TRIPOS>BOND
     1    1    2 1   
     2    2    3 1   
     3    2    4 1   
     4    4    5 1   
     5    4   25 1   
     6    4   26 1   
     7    5    6 1   
     8    5   27 1   
     9    5   28 1   
    10    6    7 1   
    11    6   29 1   
    12    6   30 1   
    13    7    8 2   
    14    7   31 1   
    15    8    9 1   
    16    8   32 1   
    17    9   10 1   
    18    9   33 1   
    19    9   34 1   
    20   10   11 1   
    21   10   16 1   
    22   10   35 1   
    23   11   12 1   
    24   11   13 1   
    25   11   36 1   
    26   12   15 1   
    27   12   37 1   
    28   12   38 1   
    29   13   14 2   
    30   14   15 1   
    31   15   16 1   
    32   15   39 1   
    33   16   17 1   
    34   16   40 1   
    35   17   18 2   
    36   17   41 1   
    37   18   19 1   
    38   18   42 1   
    39   19   20 1   
    40   19   43 1   
    41   19   44 1   
    42   20   21 1   
    43   20   45 1   
    44   20   46 1   
    45   21   22 1   
    46   21   47 1   
    47   21   48 1   
    48   22   23 1   
    49   22   49 1   
    50   22   50 1   
    51   23   24 1   
    52   23   51 1   
    53   23   52 1   
    54   24   53 1   
    55   24   54 1   
    56   24   55 1   
@<TRIPOS>SUBSTRUCTURE
     1 U51         1 TEMP              0 ****  ****    0 ROOT
