@<TRIPOS>MOLECULE
U51
   55    56     1     0     0
SMALL
bcc


@<TRIPOS>ATOM
      1 OAW         3.4300   -0.7630   -5.9850 o         1 U51     -0.859800
      2 CAV         3.9420   -0.7240   -4.8230 c         1 U51      0.903600
      3 OAX         5.1760   -0.5160   -4.6340 o         1 U51     -0.859800
      4 CAR         3.0390   -0.9380   -3.6030 c3        1 U51     -0.188400
      5 CAQ         1.6960   -0.2640   -3.7660 c3        1 U51     -0.060400
      6 CAP         1.7720    1.2290   -3.4900 c3        1 U51     -0.053200
      7 CAO         0.5820    1.9290   -4.0290 c2        1 U51     -0.157200
      8 CAN         0.5690    2.8170   -5.0280 c2        1 U51     -0.179200
      9 CAF         1.7520    3.3090   -5.7780 c3        1 U51     -0.031200
     10 CAD         2.3710    2.2500   -6.6590 c3        1 U51     -0.084700
     11 CAC         1.5090    1.7850   -7.8800 c3        1 U51      0.033500
     12 CAB         2.6430    1.0140   -8.6570 c3        1 U51     -0.119400
     13 NAT         1.2880    2.9730   -8.8010 n2        1 U51     -0.196200
     14 NAS         2.3460    3.2800   -9.3370 n2        1 U51     -0.201200
     15 CAA         3.4480    2.3500   -8.8460 c3        1 U51      0.024500
     16 CAE         3.6960    2.7270   -7.3390 c3        1 U51     -0.033500
     17 CAG         4.8810    2.0250   -6.7940 c2        1 U51     -0.162200
     18 CAH         6.0670    2.6110   -6.6070 c2        1 U51     -0.189200
     19 CAI         7.2060    1.8950   -5.9790 c3        1 U51     -0.061200
     20 CAJ         8.3720    1.7550   -6.9370 c3        1 U51     -0.068400
     21 CAK         9.5340    1.0450   -6.2770 c3        1 U51     -0.081400
     22 CAL        10.6980    0.8860   -7.2310 c3        1 U51     -0.077400
     23 CAM        11.8610    0.1760   -6.5710 c3        1 U51     -0.081400
     24 CAU        13.0230    0.0130   -7.5160 c3        1 U51     -0.090100
     25 H2          2.8890   -2.0410   -3.4870 hc        1 U51      0.028200
     26 H3          3.5610   -0.5620   -2.6880 hc        1 U51      0.028200
     27 H4          0.9430   -0.7270   -3.0750 hc        1 U51      0.033200
     28 H5          1.3430   -0.4320   -4.8200 hc        1 U51      0.033200
     29 H6          2.7190    1.6350   -3.9380 hc        1 U51      0.047700
     30 H7          1.8310    1.4030   -2.3820 hc        1 U51      0.047700
     31 H8         -0.3690    1.6450   -3.5450 ha        1 U51      0.098000
     32 H10        -0.3910    3.2530   -5.3520 ha        1 U51      0.103000
     33 H12         2.5380    3.6520   -5.0480 hc        1 U51      0.041700
     34 H13         1.4610    4.2060   -6.3870 hc        1 U51      0.041700
     35 H14         2.5750    1.3200   -6.0450 hc        1 U51      0.137700
     36 H15         0.5750    1.2520   -7.6320 h1        1 U51      0.098700
     37 H16         2.3100    0.5440   -9.6050 hc        1 U51      0.093700
     38 H17         3.1640    0.2650   -8.0120 hc        1 U51      0.093700
     39 H20         4.3370    2.3500   -9.4980 h1        1 U51      0.092700
     40 H21         3.8160    3.8370   -7.2320 hc        1 U51      0.047700
     41 H22         4.7210    0.9600   -6.5020 ha        1 U51      0.211000
     42 H23         6.2560    3.6590   -6.8860 ha        1 U51      0.089000
     43 H24         6.8710    0.8770   -5.6220 hc        1 U51      0.070200
     44 H25         7.5380    2.4690   -5.0720 hc        1 U51      0.070200
     45 H26         8.0440    1.1770   -7.8410 hc        1 U51      0.029200
     46 H27         8.7000    2.7680   -7.2910 hc        1 U51      0.029200
     47 H28         9.1980    0.0370   -5.9180 hc        1 U51      0.043700
     48 H29         9.8650    1.6230   -5.3740 hc        1 U51      0.043700
     49 H30        11.0310    1.8940   -7.5930 hc        1 U51      0.034200
     50 H31        10.3670    0.3050   -8.1320 hc        1 U51      0.034200
     51 H32        11.5240   -0.8320   -6.2090 hc        1 U51      0.038700
     52 H33        12.1890    0.7570   -5.6680 hc        1 U51      0.038700
     53 H34        12.7210   -0.5860   -8.4100 hc        1 U51      0.026033
     54 H35        13.8680   -0.5130   -7.0100 hc        1 U51      0.026033
     55 H36        13.3870    1.0080   -7.8700 hc        1 U51      0.026033
@<TRIPOS>BOND
     1    1    2 1   
     2    2    3 1   
     3    2    4 1   
     4    4    5 1   
     5    4   25 1   
     6    4   26 1   
     7    5    6 1   
     8    5   27 1   
     9    5   28 1   
    10    6    7 1   
    11    6   29 1   
    12    6   30 1   
    13    7    8 2   
    14    7   31 1   
    15    8    9 1   
    16    8   32 1   
    17    9   10 1   
    18    9   33 1   
    19    9   34 1   
    20   10   11 1   
    21   10   16 1   
    22   10   35 1   
    23   11   12 1   
    24   11   13 1   
    25   11   36 1   
    26   12   15 1   
    27   12   37 1   
    28   12   38 1   
    29   13   14 2   
    30   14   15 1   
    31   15   16 1   
    32   15   39 1   
    33   16   17 1   
    34   16   40 1   
    35   17   18 2   
    36   17   41 1   
    37   18   19 1   
    38   18   42 1   
    39   19   20 1   
    40   19   43 1   
    41   19   44 1   
    42   20   21 1   
    43   20   45 1   
    44   20   46 1   
    45   21   22 1   
    46   21   47 1   
    47   21   48 1   
    48   22   23 1   
    49   22   49 1   
    50   22   50 1   
    51   23   24 1   
    52   23   51 1   
    53   23   52 1   
    54   24   53 1   
    55   24   54 1   
    56   24   55 1   
@<TRIPOS>SUBSTRUCTURE
     1 U51         1 TEMP              0 ****  ****    0 ROOT
