@<TRIPOS>MOLECULE
U51
   55    56     1     0     0
SMALL
bcc


@<TRIPOS>ATOM
      1 OAW        -1.3360   -0.1890   -2.2310 o         1 U51     -0.860300
      2 CAV        -1.0210   -1.2910   -1.6820 c         1 U51      0.904600
      3 OAX         0.1630   -1.7370   -1.6890 o         1 U51     -0.860300
      4 CAR        -2.1120   -2.1140   -0.9880 c3        1 U51     -0.188400
      5 CAQ        -3.0790   -1.2440   -0.2190 c3        1 U51     -0.059400
      6 CAP        -2.5070   -0.8060    1.1190 c3        1 U51     -0.054200
      7 CAO        -3.2740    0.3340    1.6760 c2        1 U51     -0.158200
      8 CAN        -2.8240    1.5800    1.8530 c2        1 U51     -0.179200
      9 CAF        -1.4540    2.0670    1.5580 c3        1 U51     -0.031200
     10 CAD        -1.1530    2.1140    0.0790 c3        1 U51     -0.084700
     11 CAC        -1.9570    3.1710   -0.7490 c3        1 U51      0.032500
     12 CAB        -1.0910    3.1120   -2.0650 c3        1 U51     -0.119400
     13 NAT        -1.6090    4.5580   -0.2390 n2        1 U51     -0.196200
     14 NAS        -0.4510    4.8270   -0.5360 n2        1 U51     -0.201200
     15 CAA         0.1630    3.6510   -1.2850 c3        1 U51      0.024500
     16 CAE         0.3320    2.5010   -0.2250 c3        1 U51     -0.031500
     17 CAG         1.0950    1.3610   -0.7820 c2        1 U51     -0.168200
     18 CAH         2.3650    1.0930   -0.4630 c2        1 U51     -0.186200
     19 CAI         3.0730   -0.0880   -1.0170 c3        1 U51     -0.064200
     20 CAJ         4.0200   -0.6990   -0.0040 c3        1 U51     -0.067400
     21 CAK         4.7070   -1.9220   -0.5740 c3        1 U51     -0.081400
     22 CAL         5.6490   -2.5450    0.4330 c3        1 U51     -0.077400
     23 CAM         6.3350   -3.7690   -0.1360 c3        1 U51     -0.081400
     24 CAU         7.2730   -4.3960    0.8620 c3        1 U51     -0.090100
     25 H2         -2.6680   -2.6720   -1.7850 hc        1 U51      0.028200
     26 H3         -1.6320   -2.8650   -0.3120 hc        1 U51      0.028200
     27 H4         -3.3090   -0.3380   -0.8420 hc        1 U51      0.033200
     28 H5         -4.0410   -1.7940   -0.0440 hc        1 U51      0.033200
     29 H6         -2.5460   -1.6640    1.8430 hc        1 U51      0.047700
     30 H7         -1.4240   -0.5390    0.9830 hc        1 U51      0.047700
     31 H8         -4.3190    0.0920    1.9380 ha        1 U51      0.098000
     32 H10        -3.5050    2.3480    2.2590 ha        1 U51      0.103000
     33 H12        -1.3100    3.0800    2.0210 hc        1 U51      0.041700
     34 H13        -0.7040    1.3800    2.0410 hc        1 U51      0.041700
     35 H14        -1.3820    1.1070   -0.3850 hc        1 U51      0.137700
     36 H15        -3.0440    2.9980   -0.8190 h1        1 U51      0.098700
     37 H16        -0.9660    2.0690   -2.4440 hc        1 U51      0.093700
     38 H17        -1.4440    3.7810   -2.8760 hc        1 U51      0.093700
     39 H20         1.0680    3.9240   -1.8530 h1        1 U51      0.092700
     40 H21         0.8340    2.8950    0.6980 hc        1 U51      0.046700
     41 H22         0.5300    0.6900   -1.4710 ha        1 U51      0.210000
     42 H23         2.9440    1.7260    0.2280 ha        1 U51      0.090000
     43 H24         2.3170   -0.8590   -1.3510 hc        1 U51      0.072200
     44 H25         3.6550    0.2260   -1.9270 hc        1 U51      0.072200
     45 H26         4.7890    0.0560    0.3070 hc        1 U51      0.028200
     46 H27         3.4450   -0.9860    0.9150 hc        1 U51      0.028200
     47 H28         3.9310   -2.6720   -0.8830 hc        1 U51      0.045200
     48 H29         5.2770   -1.6370   -1.4970 hc        1 U51      0.045200
     49 H30         6.4210   -1.7930    0.7440 hc        1 U51      0.033200
     50 H31         5.0770   -2.8310    1.3550 hc        1 U51      0.033200
     51 H32         5.5590   -4.5180   -0.4470 hc        1 U51      0.038200
     52 H33         6.9040   -3.4820   -1.0600 hc        1 U51      0.038200
     53 H34         7.7670   -5.2950    0.4230 hc        1 U51      0.026033
     54 H35         8.0660   -3.6710    1.1670 hc        1 U51      0.026033
     55 H36         6.7180   -4.7110    1.7790 hc        1 U51      0.026033
@<TRIPOS>BOND
     1    1    2 1   
     2    2    3 1   
     3    2    4 1   
     4    4    5 1   
     5    4   25 1   
     6    4   26 1   
     7    5    6 1   
     8    5   27 1   
     9    5   28 1   
    10    6    7 1   
    11    6   29 1   
    12    6   30 1   
    13    7    8 2   
    14    7   31 1   
    15    8    9 1   
    16    8   32 1   
    17    9   10 1   
    18    9   33 1   
    19    9   34 1   
    20   10   11 1   
    21   10   16 1   
    22   10   35 1   
    23   11   12 1   
    24   11   13 1   
    25   11   36 1   
    26   12   15 1   
    27   12   37 1   
    28   12   38 1   
    29   13   14 2   
    30   14   15 1   
    31   15   16 1   
    32   15   39 1   
    33   16   17 1   
    34   16   40 1   
    35   17   18 2   
    36   17   41 1   
    37   18   19 1   
    38   18   42 1   
    39   19   20 1   
    40   19   43 1   
    41   19   44 1   
    42   20   21 1   
    43   20   45 1   
    44   20   46 1   
    45   21   22 1   
    46   21   47 1   
    47   21   48 1   
    48   22   23 1   
    49   22   49 1   
    50   22   50 1   
    51   23   24 1   
    52   23   51 1   
    53   23   52 1   
    54   24   53 1   
    55   24   54 1   
    56   24   55 1   
@<TRIPOS>SUBSTRUCTURE
     1 U51         1 TEMP              0 ****  ****    0 ROOT
