@<TRIPOS>MOLECULE
U51
   55    56     1     0     0
SMALL
bcc


@<TRIPOS>ATOM
      1 OAW         3.0310   -0.8190   -5.7130 o         1 U51     -0.860300
      2 CAV         3.9210   -0.6970   -4.8140 c         1 U51      0.904600
      3 OAX         5.1570   -0.7950   -5.0660 o         1 U51     -0.860300
      4 CAR         3.4850   -0.4230   -3.3700 c3        1 U51     -0.188400
      5 CAQ         2.3330    0.5520   -3.2980 c3        1 U51     -0.059400
      6 CAP         2.7960    1.9900   -3.4700 c3        1 U51     -0.054200
      7 CAO         1.6530    2.8800   -3.7870 c2        1 U51     -0.158200
      8 CAN         1.4510    3.5310   -4.9360 c2        1 U51     -0.179200
      9 CAF         2.3480    3.5210   -6.1190 c3        1 U51     -0.031200
     10 CAD         2.3770    2.1840   -6.8220 c3        1 U51     -0.084700
     11 CAC         1.0510    1.7570   -7.5330 c3        1 U51      0.032500
     12 CAB         1.6410    0.5680   -8.3840 c3        1 U51     -0.119400
     13 NAT         0.7390    2.7630   -8.6270 n2        1 U51     -0.196200
     14 NAS         1.5600    2.6560   -9.5300 n2        1 U51     -0.201200
     15 CAA         2.5620    1.5660   -9.1740 c3        1 U51      0.024500
     16 CAE         3.4200    2.1360   -7.9850 c3        1 U51     -0.031500
     17 CAG         4.5600    1.2450   -7.6680 c2        1 U51     -0.168200
     18 CAH         5.8280    1.5200   -7.9900 c2        1 U51     -0.186200
     19 CAI         6.9400    0.6130   -7.6110 c3        1 U51     -0.064200
     20 CAJ         8.1950    1.3850   -7.2590 c3        1 U51     -0.067400
     21 CAK         9.3080    0.4470   -6.8400 c3        1 U51     -0.081400
     22 CAL        10.5650    1.2090   -6.4790 c3        1 U51     -0.077400
     23 CAM        11.6770    0.2710   -6.0590 c3        1 U51     -0.081400
     24 CAU        12.9310    1.0240   -5.6950 c3        1 U51     -0.090100
     25 H2          3.1720   -1.4020   -2.9240 hc        1 U51      0.028200
     26 H3          4.3610   -0.0430   -2.7870 hc        1 U51      0.028200
     27 H4          1.8010    0.4530   -2.3160 hc        1 U51      0.033200
     28 H5          1.6030    0.2940   -4.1120 hc        1 U51      0.033200
     29 H6          3.5760    2.0280   -4.2780 hc        1 U51      0.047700
     30 H7          3.2860    2.3420   -2.5230 hc        1 U51      0.047700
     31 H8          0.9100    2.9700   -2.9750 ha        1 U51      0.098000
     32 H10         0.5450    4.1490   -5.0550 ha        1 U51      0.103000
     33 H12         2.0380    4.3320   -6.8300 hc        1 U51      0.041700
     34 H13         3.3980    3.7610   -5.7900 hc        1 U51      0.041700
     35 H14         2.6110    1.3690   -6.0710 hc        1 U51      0.137700
     36 H15         0.1920    1.5620   -6.8690 h1        1 U51      0.098700
     37 H16         0.8950    0.0400   -9.0130 hc        1 U51      0.093700
     38 H17         2.2090   -0.1610   -7.7550 hc        1 U51      0.093700
     39 H20         3.1260    1.1950  -10.0460 h1        1 U51      0.092700
     40 H21         3.7860    3.1670   -8.2310 hc        1 U51      0.046700
     41 H22         4.3090    0.3240   -7.0900 ha        1 U51      0.210000
     42 H23         6.1100    2.4290   -8.5440 ha        1 U51      0.090000
     43 H24         6.6240   -0.0270   -6.7340 hc        1 U51      0.072200
     44 H25         7.1590   -0.0790   -8.4690 hc        1 U51      0.072200
     45 H26         8.5280    1.9980   -8.1370 hc        1 U51      0.028200
     46 H27         7.9710    2.0970   -6.4210 hc        1 U51      0.028200
     47 H28         8.9680   -0.1630   -5.9620 hc        1 U51      0.045200
     48 H29         9.5290   -0.2690   -7.6750 hc        1 U51      0.045200
     49 H30        10.3420    1.9240   -5.6430 hc        1 U51      0.033200
     50 H31        10.9020    1.8210   -7.3560 hc        1 U51      0.033200
     51 H32        11.8960   -0.4450   -6.8940 hc        1 U51      0.038200
     52 H33        11.3360   -0.3400   -5.1820 hc        1 U51      0.038200
     53 H34        12.7370    1.7240   -4.8470 hc        1 U51      0.026033
     54 H35        13.2980    1.6210   -6.5640 hc        1 U51      0.026033
     55 H36        13.7370    0.3140   -5.3890 hc        1 U51      0.026033
@<TRIPOS>BOND
     1    1    2 1   
     2    2    3 1   
     3    2    4 1   
     4    4    5 1   
     5    4   25 1   
     6    4   26 1   
     7    5    6 1   
     8    5   27 1   
     9    5   28 1   
    10    6    7 1   
    11    6   29 1   
    12    6   30 1   
    13    7    8 2   
    14    7   31 1   
    15    8    9 1   
    16    8   32 1   
    17    9   10 1   
    18    9   33 1   
    19    9   34 1   
    20   10   11 1   
    21   10   16 1   
    22   10   35 1   
    23   11   12 1   
    24   11   13 1   
    25   11   36 1   
    26   12   15 1   
    27   12   37 1   
    28   12   38 1   
    29   13   14 2   
    30   14   15 1   
    31   15   16 1   
    32   15   39 1   
    33   16   17 1   
    34   16   40 1   
    35   17   18 2   
    36   17   41 1   
    37   18   19 1   
    38   18   42 1   
    39   19   20 1   
    40   19   43 1   
    41   19   44 1   
    42   20   21 1   
    43   20   45 1   
    44   20   46 1   
    45   21   22 1   
    46   21   47 1   
    47   21   48 1   
    48   22   23 1   
    49   22   49 1   
    50   22   50 1   
    51   23   24 1   
    52   23   51 1   
    53   23   52 1   
    54   24   53 1   
    55   24   54 1   
    56   24   55 1   
@<TRIPOS>SUBSTRUCTURE
     1 U51         1 TEMP              0 ****  ****    0 ROOT
