@<TRIPOS>MOLECULE
U55
   30    31     1     0     0
SMALL
bcc


@<TRIPOS>ATOM
      1 N17         0.0050    0.4060    0.0390 nv        1 U55     -0.951500
      2 C11         1.2680   -0.1150   -0.0170 ca        1 U55      0.734200
      3 N12         1.6580   -1.0610    0.9170 nb        1 U55     -0.751000
      4 C13         2.9150   -1.5260    0.7960 ca        1 U55      0.707900
      5 N14         3.8590   -1.1950   -0.1250 nb        1 U55     -0.784000
      6 C16         2.1800    0.3150   -1.0420 ca        1 U55     -0.464600
      7 C15         3.4710   -0.2610   -1.0480 ca        1 U55      0.675200
      8 N18         4.3580    0.1280   -2.0880 nu        1 U55     -0.704300
      9 C01         5.7180    0.0530   -2.1010 ca        1 U55      0.331600
     10 C06         6.5280   -0.1880   -0.9450 ca        1 U55     -0.217500
     11 C05         7.8930   -0.2330   -1.0460 ca        1 U55      0.050000
     12 C02         6.4070    0.2780   -3.3450 ca        1 U55     -0.217500
     13 C03         7.7720    0.2210   -3.4140 ca        1 U55      0.050000
     14 C04         8.5820   -0.0510   -2.2780 ca        1 U55     -0.664500
     15 S07        10.1430   -0.0590   -2.3560 sy        1 U55      1.520200
     16 O08        10.7000    0.4150   -3.5260 o         1 U55     -0.582800
     17 O09        10.8220    0.0280   -1.1580 o         1 U55     -0.582800
     18 N10        10.3820   -1.9850   -2.6800 nz        1 U55     -0.778500
     19 H171       -0.6320    0.1230    0.7450 hn        1 U55      0.456300
     20 H172       -0.2670    1.0930   -0.6180 hn        1 U55      0.456300
     21 H131        3.2250   -2.2870    1.5470 h5        1 U55      0.070100
     22 H161        1.8740    1.0650   -1.7800 ha        1 U55      0.159000
     23 H181        3.9010    0.4200   -2.9300 hn        1 U55      0.465800
     24 H061        6.0630   -0.3260    0.0470 ha        1 U55      0.180000
     25 H051        8.4930   -0.3980   -0.1290 ha        1 U55      0.164000
     26 H021        5.8290    0.5010   -4.2580 ha        1 U55      0.180000
     27 H031        8.2730    0.4050   -4.3860 ha        1 U55      0.164000
     28 H101       10.9510   -2.3940   -1.9450 hn        1 U55      0.445467
     29 H102        9.4960   -2.4750   -2.7070 hn        1 U55      0.445467
     30 H103       10.8570   -2.1340   -3.5650 hn        1 U55      0.445467
@<TRIPOS>BOND
     1    1    2 1   
     2    1   19 1   
     3    1   20 1   
     4    2    3 ar  
     5    2    6 ar  
     6    3    4 ar  
     7    4    5 ar  
     8    4   21 1   
     9    5    7 ar  
    10    6    7 ar  
    11    6   22 1   
    12    7    8 1   
    13    8    9 1   
    14    8   23 1   
    15    9   10 ar  
    16    9   12 ar  
    17   10   11 ar  
    18   10   24 1   
    19   11   14 ar  
    20   11   25 1   
    21   12   13 ar  
    22   12   26 1   
    23   13   14 ar  
    24   13   27 1   
    25   14   15 1   
    26   15   16 2   
    27   15   17 2   
    28   15   18 1   
    29   18   28 1   
    30   18   29 1   
    31   18   30 1   
@<TRIPOS>SUBSTRUCTURE
     1 U55         1 TEMP              0 ****  ****    0 ROOT
