@<TRIPOS>MOLECULE
U55
   30    31     1     0     0
SMALL
bcc


@<TRIPOS>ATOM
      1 N17         0.0170    0.3900    0.0910 nh        1 U55     -0.951500
      2 C11         1.2860   -0.1140    0.0390 ca        1 U55      0.734200
      3 N12         1.7040   -1.0120    1.0070 nb        1 U55     -0.751000
      4 C13         2.9670   -1.4640    0.8870 ca        1 U55      0.707900
      5 N14         3.8920   -1.1600   -0.0600 nb        1 U55     -0.784000
      6 C16         2.1780    0.2850   -1.0160 ca        1 U55     -0.464600
      7 C15         3.4770   -0.2720   -1.0170 ca        1 U55      0.675200
      8 N18         4.3430    0.0850   -2.0860 nh        1 U55     -0.704300
      9 C01         5.7040    0.0280   -2.1160 ca        1 U55      0.331600
     10 C06         6.5340   -0.1550   -0.9640 ca        1 U55     -0.217500
     11 C05         7.8980   -0.1860   -1.0850 ca        1 U55      0.050000
     12 C02         6.3700    0.2110   -3.3800 ca        1 U55     -0.217500
     13 C03         7.7350    0.1690   -3.4680 ca        1 U55      0.050000
     14 C04         8.5660   -0.0450   -2.3340 ca        1 U55     -0.664500
     15 S07        10.1260   -0.0350   -2.4360 sy        1 U55      1.520200
     16 O08        10.6580    0.3980   -3.6330 o         1 U55     -0.582800
     17 O09        10.8210    0.1100   -1.2540 o         1 U55     -0.582800
     18 N10        10.3870   -1.9700   -2.6850 n4        1 U55     -0.778500
     19 H171       -0.2750    1.0450   -0.5900 hn        1 U55      0.456300
     20 H172       -0.6050    0.1300    0.8180 hn        1 U55      0.456300
     21 H131        3.2990   -2.1870    1.6660 h5        1 U55      0.070100
     22 H161        1.8490    0.9980   -1.7820 ha        1 U55      0.159000
     23 H181        3.8700    0.3350   -2.9330 hn        1 U55      0.465800
     24 H061        6.0860   -0.2590    0.0390 ha        1 U55      0.180500
     25 H051        8.5140   -0.3040   -0.1720 ha        1 U55      0.164000
     26 H021        5.7750    0.3870   -4.2920 ha        1 U55      0.180500
     27 H031        8.2180    0.3190   -4.4530 ha        1 U55      0.164000
     28 H101       10.8510   -2.1480   -3.5700 hn        1 U55      0.445467
     29 H102       10.9710   -2.3400   -1.9420 hn        1 U55      0.445467
     30 H103        9.5080   -2.4720   -2.6790 hn        1 U55      0.445467
@<TRIPOS>BOND
     1    1    2 1   
     2    1   19 1   
     3    1   20 1   
     4    2    3 ar  
     5    2    6 ar  
     6    3    4 ar  
     7    4    5 ar  
     8    4   21 1   
     9    5    7 ar  
    10    6    7 ar  
    11    6   22 1   
    12    7    8 1   
    13    8    9 1   
    14    8   23 1   
    15    9   10 ar  
    16    9   12 ar  
    17   10   11 ar  
    18   10   24 1   
    19   11   14 ar  
    20   11   25 1   
    21   12   13 ar  
    22   12   26 1   
    23   13   14 ar  
    24   13   27 1   
    25   14   15 1   
    26   15   16 2   
    27   15   17 2   
    28   15   18 1   
    29   18   28 1   
    30   18   29 1   
    31   18   30 1   
@<TRIPOS>SUBSTRUCTURE
     1 U55         1 TEMP              0 ****  ****    0 ROOT
