@<TRIPOS>MOLECULE
U55
   29    30     1     0     0
SMALL
bcc


@<TRIPOS>ATOM
      1 N17         0.4920    0.0250    6.4470 nh        1 U55     -0.946500
      2 C11        -0.0360   -0.0080    5.1660 ca        1 U55      0.703200
      3 N12        -1.3740   -0.3090    4.9910 nb        1 U55     -0.777000
      4 C13        -1.7860   -0.4030    3.7100 ca        1 U55      0.696900
      5 N14        -1.0740   -0.2320    2.5710 nb        1 U55     -0.774000
      6 C16         0.8170    0.2070    4.0430 ca        1 U55     -0.487600
      7 C15         0.2520    0.0850    2.7410 ca        1 U55      0.706200
      8 N18         1.0940    0.3220    1.6440 nh        1 U55     -0.737300
      9 C01         0.7420    0.1780    0.2940 ca        1 U55      0.221600
     10 C06        -0.4980    0.6130   -0.2250 ca        1 U55     -0.187500
     11 C05        -0.7520    0.5120   -1.5870 ca        1 U55      0.006000
     12 C02         1.7040   -0.3450   -0.6080 ca        1 U55     -0.187500
     13 C03         1.4240   -0.4260   -1.9620 ca        1 U55      0.006000
     14 C04         0.1960    0.0030   -2.4810 ca        1 U55     -0.419500
     15 S07        -0.1420   -0.1280   -4.1240 sy        1 U55      1.532200
     16 O08         0.6780   -1.1400   -4.6700 o         1 U55     -0.661300
     17 O09        -1.5380   -0.2550   -4.2900 o         1 U55     -0.661300
     18 N10         0.3240    1.2900   -4.7120 n3        1 U55     -1.026700
     19 H171       -0.1360    0.0300    7.2160 hn        1 U55      0.426800
     20 H172        1.3450    0.5170    6.5610 hn        1 U55      0.426800
     21 H131       -2.8590   -0.6560    3.5660 h5        1 U55      0.056100
     22 H161        1.8750    0.4550    4.1840 ha        1 U55      0.148000
     23 H181        2.0640    0.1930    1.8440 hn        1 U55      0.436800
     24 H061       -1.2740    1.0340    0.4320 ha        1 U55      0.151500
     25 H051       -1.7370    0.8320   -1.9740 ha        1 U55      0.153000
     26 H021        2.6800   -0.6990   -0.2400 ha        1 U55      0.151500
     27 H031        2.1750   -0.8590   -2.6470 ha        1 U55      0.153000
     28 H101       -0.2760    2.0710   -4.7950 hn        1 U55      0.445300
     29 H102        1.2340    1.4690   -5.0520 hn        1 U55      0.445300
@<TRIPOS>BOND
     1    1    2 1   
     2    1   19 1   
     3    1   20 1   
     4    2    3 ar  
     5    2    6 ar  
     6    3    4 ar  
     7    4    5 ar  
     8    4   21 1   
     9    5    7 ar  
    10    6    7 ar  
    11    6   22 1   
    12    7    8 1   
    13    8    9 1   
    14    8   23 1   
    15    9   10 ar  
    16    9   12 ar  
    17   10   11 ar  
    18   10   24 1   
    19   11   14 ar  
    20   11   25 1   
    21   12   13 ar  
    22   12   26 1   
    23   13   14 ar  
    24   13   27 1   
    25   14   15 1   
    26   15   16 2   
    27   15   17 2   
    28   15   18 1   
    29   18   28 1   
    30   18   29 1   
@<TRIPOS>SUBSTRUCTURE
     1 U55         1 TEMP              0 ****  ****    0 ROOT
