@<TRIPOS>MOLECULE
U55
   32    33     1     0     0
SMALL
bcc


@<TRIPOS>ATOM
      1 N17         0.0250   -0.0090    0.3680 n4        1 U55     -0.833300
      2 C11         1.4170    0.3500    0.0200 ca        1 U55      0.552200
      3 N12         2.0140    1.3050    0.7840 nb        1 U55     -0.605000
      4 C13         3.2890    1.6380    0.4490 ca        1 U55      0.743900
      5 N14         4.0160    1.1090   -0.5740 nb        1 U55     -0.628000
      6 C16         2.0710   -0.2850   -1.0700 ca        1 U55     -0.311600
      7 C15         3.4010    0.1570   -1.3200 ca        1 U55      0.542200
      8 N18         4.1470   -0.4180   -2.4740 n4        1 U55     -0.640100
      9 C01         5.6070   -0.5360   -2.2750 ca        1 U55      0.047600
     10 C06         6.1610   -1.7860   -1.9450 ca        1 U55     -0.106000
     11 C05         7.5430   -1.8940   -1.7910 ca        1 U55      0.026500
     12 C02         6.4290    0.5880   -2.4540 ca        1 U55     -0.106000
     13 C03         7.8100    0.4500   -2.2910 ca        1 U55      0.026500
     14 C04         8.3890   -0.7840   -1.9540 ca        1 U55     -0.424500
     15 S07        10.0090   -0.8860   -1.5640 sy        1 U55      1.447200
     16 O08        10.5420    0.3590   -1.3370 o         1 U55     -0.517800
     17 O09        10.2740   -2.0290   -0.8510 o         1 U55     -0.517800
     18 N10        10.7460   -1.3080   -3.2260 n4        1 U55     -0.809500
     19 H171       -0.3040   -0.7840   -0.2220 hn        1 U55      0.505467
     20 H172       -0.5940    0.8130    0.2320 hn        1 U55      0.505467
     21 H131        3.7860    2.4300    1.0770 h5        1 U55      0.154100
     22 H161        1.5790   -1.0600   -1.6810 ha        1 U55      0.206000
     23 H181        3.7600   -1.3540   -2.6790 hn        1 U55      0.494300
     24 H061        5.5390   -2.6890   -1.8000 ha        1 U55      0.194500
     25 H051        7.9680   -2.8810   -1.5040 ha        1 U55      0.210000
     26 H021        6.0180    1.5840   -2.7040 ha        1 U55      0.194500
     27 H031        8.4470    1.3540   -2.4040 ha        1 U55      0.210000
     28 H101       10.0770   -1.3880   -3.9880 hn        1 U55      0.480133
     29 H102       11.4340   -0.5970   -3.5060 hn        1 U55      0.480133
     30 H173       -0.0320   -0.2880    1.3650 hn        1 U55      0.505467
     31 H182        3.9820    0.2010   -3.2910 hn        1 U55      0.494300
     32 H103       11.2550   -2.2000   -3.1790 hn        1 U55      0.480133
@<TRIPOS>BOND
     1    1    2 1   
     2    1   19 1   
     3    1   20 1   
     4    1   30 1   
     5    2    3 ar  
     6    2    6 ar  
     7    3    4 ar  
     8    4    5 ar  
     9    4   21 1   
    10    5    7 ar  
    11    6    7 ar  
    12    6   22 1   
    13    7    8 1   
    14    8    9 1   
    15    8   23 1   
    16    8   31 1   
    17    9   10 ar  
    18    9   12 ar  
    19   10   11 ar  
    20   10   24 1   
    21   11   14 ar  
    22   11   25 1   
    23   12   13 ar  
    24   12   26 1   
    25   13   14 ar  
    26   13   27 1   
    27   14   15 1   
    28   15   16 2   
    29   15   17 2   
    30   15   18 1   
    31   18   28 1   
    32   18   29 1   
    33   18   32 1   
@<TRIPOS>SUBSTRUCTURE
     1 U55         1 TEMP              0 ****  ****    0 ROOT
