@<TRIPOS>MOLECULE
U5P
   32    33     1     0     0
SMALL
bcc


@<TRIPOS>ATOM
      1 N1          2.3050    0.4280   -0.2670 n         1 U5P     -0.368000
      2 C2          3.7150    0.3610   -0.1990 c         1 U5P      0.797500
      3 N3          4.3470   -0.8760   -0.4180 n         1 U5P     -0.599500
      4 C4          3.6310   -2.0660   -0.6630 c         1 U5P      0.716700
      5 C5          2.1850   -1.9390   -0.6840 cc        1 U5P     -0.371200
      6 C6          1.5730   -0.7350   -0.4730 cd        1 U5P      0.074600
      7 O2          4.4400    1.3660    0.0170 o         1 U5P     -0.702500
      8 O4          4.2960   -3.1100   -0.8430 o         1 U5P     -0.693500
      9 C1'         1.6660    1.7200    0.0250 c3        1 U5P      0.271500
     10 C2'         0.5910    2.1210   -1.0380 c3        1 U5P      0.109100
     11 O2'         0.7640    3.4900   -1.3460 oh        1 U5P     -0.619800
     12 C3'        -0.7380    1.7700   -0.3500 c3        1 U5P      0.072100
     13 C4'        -0.4150    1.6420    1.1520 c3        1 U5P      0.063100
     14 O3'        -1.7010    2.7700   -0.5830 oh        1 U5P     -0.665800
     15 O4'         1.0250    1.7070    1.2960 os        1 U5P     -0.437600
     16 C5'        -0.9170    0.3250    1.7960 c3        1 U5P      0.226400
     17 O5'        -2.2570    0.1220    1.6280 os        1 U5P     -0.567200
     18 P          -2.7800   -0.8000    0.2530 p5        1 U5P      1.340900
     19 O1P        -3.2840    0.3620   -0.5720 o         1 U5P     -0.924167
     20 O2P        -1.4460   -1.2890   -0.2800 o         1 U5P     -0.924167
     21 O3P        -3.7380   -1.8080    0.7940 o         1 U5P     -0.924167
     22 HN3         5.3390   -0.8910   -0.3650 hn        1 U5P      0.320500
     23 H5          1.5900   -2.8450   -0.8550 ha        1 U5P      0.188000
     24 H6          0.4340   -0.6670   -0.4650 h4        1 U5P      0.304000
     25 H1'         2.4800    2.5000    0.0970 h2        1 U5P      0.103700
     26 H2'         0.7170    1.5710   -2.0060 h1        1 U5P      0.075700
     27 HO2'        0.0730    3.9800   -0.8820 ho        1 U5P      0.423000
     28 H3'        -1.1290    0.7660   -0.7330 h1        1 U5P      0.167700
     29 H4'        -0.8100    2.5270    1.7160 h1        1 U5P      0.048700
     30 HO3'       -2.5560    2.2840   -0.6390 ho        1 U5P      0.495000
     31 H5'1       -0.3140   -0.5330    1.3850 h1        1 U5P     -0.001300
     32 H5'2       -0.6970    0.4160    2.9020 h1        1 U5P     -0.001300
@<TRIPOS>BOND
     1    1    2 1   
     2    1    6 1   
     3    1    9 1   
     4    2    3 1   
     5    2    7 2   
     6    3    4 1   
     7    3   22 1   
     8    4    5 1   
     9    4    8 2   
    10    5    6 2   
    11    5   23 1   
    12    6   24 1   
    13    9   10 1   
    14    9   15 1   
    15    9   25 1   
    16   10   11 1   
    17   10   12 1   
    18   10   26 1   
    19   11   27 1   
    20   12   13 1   
    21   12   14 1   
    22   12   28 1   
    23   13   15 1   
    24   13   16 1   
    25   13   29 1   
    26   14   30 1   
    27   16   17 1   
    28   16   31 1   
    29   16   32 1   
    30   17   18 1   
    31   18   19 1   
    32   18   20 1   
    33   18   21 1   
@<TRIPOS>SUBSTRUCTURE
     1 U5P         1 TEMP              0 ****  ****    0 ROOT
