@<TRIPOS>MOLECULE
U5P
   32    33     1     0     0
SMALL
bcc


@<TRIPOS>ATOM
      1 N1          0.0640    0.2980   -0.2740 n         1 U5P     -0.360000
      2 C2          0.0790    0.9650    0.9710 c         1 U5P      0.798500
      3 N3          0.8200    0.3940    2.0290 ns        1 U5P     -0.601500
      4 C4          1.4650   -0.8510    1.9250 c         1 U5P      0.719700
      5 C5          1.3210   -1.5350    0.6510 cc        1 U5P     -0.397200
      6 C6          0.6330   -0.9520   -0.3790 cd        1 U5P      0.095600
      7 O2         -0.5420    2.0300    1.1960 o         1 U5P     -0.666500
      8 O4          2.0970   -1.2690    2.9210 o         1 U5P     -0.698500
      9 C1'        -0.6290    0.9430   -1.4200 c3        1 U5P      0.280500
     10 C2'         0.2640    1.8930   -2.2650 c3        1 U5P      0.031100
     11 O2'        -0.1810    3.2130   -2.0980 oh        1 U5P     -0.634800
     12 C3'         0.0910    1.4090   -3.7690 c3        1 U5P      0.364800
     13 C4'        -0.5630   -0.0040   -3.5850 c3        1 U5P      0.036100
     14 O3'        -0.6200    2.2600   -4.4730 o         1 U5P     -0.865500
     15 O4'        -1.1450   -0.0700   -2.2690 os        1 U5P     -0.407600
     16 C5'         0.4620   -1.1190   -3.8080 c3        1 U5P      0.160400
     17 O5'         0.0330   -2.3600   -3.3330 os        1 U5P     -0.589200
     18 P          -0.1800   -3.5660   -4.4410 p5        1 U5P      1.430800
     19 O1P        -1.5650   -3.0330   -5.1250 oh        1 U5P     -0.779400
     20 O2P         0.8320   -3.3660   -5.5040 o         1 U5P     -0.845000
     21 O3P        -0.4170   -4.8270   -3.7120 o         1 U5P     -0.845000
     22 HN3         0.8480    0.9000    2.8830 hn        1 U5P      0.322500
     23 H5          1.7680   -2.5290    0.5550 ha        1 U5P      0.168000
     24 H6          0.4770   -1.4710   -1.3600 h4        1 U5P      0.246000
     25 H1'        -1.5130    1.4940   -0.9820 h2        1 U5P      0.085700
     26 H2'         1.3340    1.8660   -1.9400 h1        1 U5P      0.032700
     27 HO2'       -0.6870    3.4400   -2.9060 ho        1 U5P      0.434000
     28 H3'         1.1440    1.2490   -4.1670 h1        1 U5P     -0.060300
     29 H4'        -1.4420   -0.1330   -4.2710 h1        1 U5P      0.070700
     30 HO3'       -1.4180   -2.2950   -5.7030 ho        1 U5P      0.422000
     31 H5'1        0.6930   -1.1800   -4.9090 h1        1 U5P      0.026700
     32 H5'2        1.4120   -0.8540   -3.2580 h1        1 U5P      0.026700
@<TRIPOS>BOND
     1    1    2 1   
     2    1    6 1   
     3    1    9 1   
     4    2    3 1   
     5    2    7 2   
     6    3    4 1   
     7    3   22 1   
     8    4    5 1   
     9    4    8 2   
    10    5    6 2   
    11    5   23 1   
    12    6   24 1   
    13    9   10 1   
    14    9   15 1   
    15    9   25 1   
    16   10   11 1   
    17   10   12 1   
    18   10   26 1   
    19   11   27 1   
    20   12   13 1   
    21   12   14 1   
    22   12   28 1   
    23   13   15 1   
    24   13   16 1   
    25   13   29 1   
    26   16   17 1   
    27   16   31 1   
    28   16   32 1   
    29   17   18 1   
    30   18   19 1   
    31   18   20 1   
    32   18   21 1   
    33   19   30 1   
@<TRIPOS>SUBSTRUCTURE
     1 U5P         1 TEMP              0 ****  ****    0 ROOT
