@<TRIPOS>MOLECULE
U5P
   32    33     1     0     0
SMALL
bcc


@<TRIPOS>ATOM
      1 N1          0.3360    0.5370   -0.4360 n         1 U5P     -0.368000
      2 C2          0.2860    1.0400    0.8840 c         1 U5P      0.797500
      3 N3          1.1650    0.5080    1.8450 n         1 U5P     -0.599500
      4 C4          2.0670   -0.5370    1.5600 c         1 U5P      0.716700
      5 C5          2.0430   -1.0360    0.1960 cc        1 U5P     -0.371200
      6 C6          1.1910   -0.5150   -0.7370 cd        1 U5P      0.074600
      7 O2         -0.4850    1.9680    1.2370 o         1 U5P     -0.702500
      8 O4          2.8010   -0.9340    2.4920 o         1 U5P     -0.693500
      9 C1'        -0.6330    1.0670   -1.4070 c3        1 U5P      0.271500
     10 C2'         0.0270    1.4800   -2.7630 c3        1 U5P      0.109100
     11 O2'        -0.5130    2.7250   -3.1570 oh        1 U5P     -0.619800
     12 C3'        -0.3010    0.3010   -3.6920 c3        1 U5P      0.072100
     13 C4'        -1.4620   -0.4570   -3.0170 c3        1 U5P      0.063100
     14 O3'        -0.6660    0.7610   -4.9720 oh        1 U5P     -0.665800
     15 O4'        -1.6490    0.1150   -1.7000 os        1 U5P     -0.437600
     16 C5'        -1.2170   -1.9790   -2.8650 c3        1 U5P      0.226400
     17 O5'        -0.9330   -2.5980   -4.0490 os        1 U5P     -0.567200
     18 P           0.7330   -2.7660   -4.5070 p5        1 U5P      1.340900
     19 O1P         0.7490   -1.6800   -5.5590 o         1 U5P     -0.924167
     20 O2P         1.4210   -2.2850   -3.2410 o         1 U5P     -0.924167
     21 O3P         0.8940   -4.1950   -4.9000 o         1 U5P     -0.924167
     22 HN3         1.1080    0.8820    2.7640 hn        1 U5P      0.320500
     23 H5          2.7190   -1.8610   -0.0630 ha        1 U5P      0.188000
     24 H6          1.1710   -0.9450   -1.7940 h4        1 U5P      0.304000
     25 H1'        -1.1610    1.9440   -0.9260 h2        1 U5P      0.103700
     26 H2'         1.1330    1.6410   -2.6710 h1        1 U5P      0.075700
     27 HO2'       -1.1600    2.5510   -3.8540 ho        1 U5P      0.423000
     28 H3'         0.5980   -0.3980   -3.7800 h1        1 U5P      0.167700
     29 H4'        -2.4240   -0.2690   -3.5630 h1        1 U5P      0.048700
     30 HO3'       -0.3210    0.0760   -5.5900 ho        1 U5P      0.495000
     31 H5'1       -0.4010   -2.1420   -2.1070 h1        1 U5P     -0.001300
     32 H5'2       -2.1780   -2.4090   -2.4500 h1        1 U5P     -0.001300
@<TRIPOS>BOND
     1    1    2 1   
     2    1    6 1   
     3    1    9 1   
     4    2    3 1   
     5    2    7 2   
     6    3    4 1   
     7    3   22 1   
     8    4    5 1   
     9    4    8 2   
    10    5    6 2   
    11    5   23 1   
    12    6   24 1   
    13    9   10 1   
    14    9   15 1   
    15    9   25 1   
    16   10   11 1   
    17   10   12 1   
    18   10   26 1   
    19   11   27 1   
    20   12   13 1   
    21   12   14 1   
    22   12   28 1   
    23   13   15 1   
    24   13   16 1   
    25   13   29 1   
    26   14   30 1   
    27   16   17 1   
    28   16   31 1   
    29   16   32 1   
    30   17   18 1   
    31   18   19 1   
    32   18   20 1   
    33   18   21 1   
@<TRIPOS>SUBSTRUCTURE
     1 U5P         1 TEMP              0 ****  ****    0 ROOT
