@<TRIPOS>MOLECULE
U5P
   32    33     1     0     0
SMALL
bcc


@<TRIPOS>ATOM
      1 N1          0.4130    0.6100   -0.4890 n         1 U5P     -0.368000
      2 C2          0.4140    1.1980    0.7960 c         1 U5P      0.797500
      3 N3          1.2530    0.6580    1.7880 n         1 U5P     -0.599500
      4 C4          2.0640   -0.4730    1.5680 c         1 U5P      0.716700
      5 C5          1.9910   -1.0540    0.2390 cc        1 U5P     -0.371200
      6 C6          1.1770   -0.5260   -0.7240 cd        1 U5P      0.074600
      7 O2         -0.2770    2.2070    1.0900 o         1 U5P     -0.702500
      8 O4          2.7690   -0.8690    2.5220 o         1 U5P     -0.693500
      9 C1'        -0.5160    1.1560   -1.4900 c3        1 U5P      0.271500
     10 C2'         0.1670    1.4260   -2.8710 c3        1 U5P      0.109100
     11 O2'        -0.2730    2.6830   -3.3430 oh        1 U5P     -0.619800
     12 C3'        -0.2640    0.2210   -3.7230 c3        1 U5P      0.072100
     13 C4'        -1.4780   -0.3950   -2.9990 c3        1 U5P      0.063100
     14 O3'        -0.5990    0.6270   -5.0290 oh        1 U5P     -0.665800
     15 O4'        -1.6090    0.2730   -1.7200 os        1 U5P     -0.437600
     16 C5'        -1.3570   -1.9190   -2.7500 c3        1 U5P      0.226400
     17 O5'        -1.1330   -2.6330   -3.8920 os        1 U5P     -0.567200
     18 P           0.5110   -2.9660   -4.3420 p5        1 U5P      1.340900
     19 O1P         0.6080   -1.9540   -5.4600 o         1 U5P     -0.924167
     20 O2P         1.2440   -2.4640   -3.1110 o         1 U5P     -0.924167
     21 O3P         0.5520   -4.4260   -4.6440 o         1 U5P     -0.924167
     22 HN3         1.2330    1.0930    2.6810 hn        1 U5P      0.320500
     23 H5          2.5940   -1.9470    0.0320 ha        1 U5P      0.188000
     24 H6          1.1150   -1.0190   -1.7510 h4        1 U5P      0.304000
     25 H1'        -0.9660    2.1010   -1.0650 h2        1 U5P      0.103700
     26 H2'         1.2820    1.5010   -2.7920 h1        1 U5P      0.074700
     27 HO2'       -0.9360    2.5190   -4.0270 ho        1 U5P      0.423000
     28 H3'         0.5750   -0.5540   -3.7670 h1        1 U5P      0.167700
     29 H4'        -2.4250   -0.1630   -3.5540 h1        1 U5P      0.048700
     30 HO3'       -0.3150   -0.1220   -5.6030 ho        1 U5P      0.495000
     31 H5'1       -2.3470   -2.2410   -2.3070 h1        1 U5P     -0.001300
     32 H5'2       -0.5520   -2.1000   -1.9850 h1        1 U5P     -0.001300
@<TRIPOS>BOND
     1    1    2 1   
     2    1    6 1   
     3    1    9 1   
     4    2    3 1   
     5    2    7 2   
     6    3    4 1   
     7    3   22 1   
     8    4    5 1   
     9    4    8 2   
    10    5    6 2   
    11    5   23 1   
    12    6   24 1   
    13    9   10 1   
    14    9   15 1   
    15    9   25 1   
    16   10   11 1   
    17   10   12 1   
    18   10   26 1   
    19   11   27 1   
    20   12   13 1   
    21   12   14 1   
    22   12   28 1   
    23   13   15 1   
    24   13   16 1   
    25   13   29 1   
    26   14   30 1   
    27   16   17 1   
    28   16   31 1   
    29   16   32 1   
    30   17   18 1   
    31   18   19 1   
    32   18   20 1   
    33   18   21 1   
@<TRIPOS>SUBSTRUCTURE
     1 U5P         1 TEMP              0 ****  ****    0 ROOT
