@<TRIPOS>MOLECULE
U63
   44    45     1     0     0
SMALL
bcc


@<TRIPOS>ATOM
      1 C6          0.0620    0.2730   -0.2580 c3        1 U63      0.142400
      2 O5          1.9190    0.1420    1.1820 os        1 U63     -0.462600
      3 C1          1.5860    0.1240   -0.2080 c3        1 U63      0.110100
      4 O4'         3.3340   -0.0850    2.8510 os        1 U63     -0.420600
      5 C2          2.0420   -1.1960   -0.8470 c3        1 U63      0.122100
      6 O5'         4.0030    2.5960    5.2300 os        1 U63     -0.461600
      7 C3          3.5500   -1.4020   -0.6140 c3        1 U63      0.108100
      8 O3'         0.6560    0.8550    3.5610 oh        1 U63     -0.591800
      9 C4          3.8630   -1.3190    0.8880 c3        1 U63      0.088100
     10 F1          0.5720    1.8240    6.2490 f         1 U63     -0.215300
     11 C5          3.3080    0.0070    1.4410 c3        1 U63      0.306900
     12 O1'         2.7600    3.7290    6.6430 oh        1 U63     -0.580800
     13 C4'         3.0620    1.1450    3.5350 c3        1 U63      0.085100
     14 O6'         6.6680    1.8420    4.3870 oh        1 U63     -0.590800
     15 C5'         4.2730    1.4500    4.4270 c3        1 U63      0.096100
     16 O4          5.2730   -1.3480    1.0130 oh        1 U63     -0.599800
     17 C1'         2.8880    2.4420    6.0990 c3        1 U63      0.315900
     18 O3          3.8610   -2.6870   -1.1220 oh        1 U63     -0.602800
     19 C2'         1.5700    2.1210    5.3410 c3        1 U63      0.161600
     20 O2          1.7700   -1.0980   -2.2330 oh        1 U63     -0.591800
     21 C3'         1.8030    0.9240    4.3880 c3        1 U63      0.108100
     22 O6         -0.3480    1.4870    0.3270 oh        1 U63     -0.593800
     23 C6'         5.5060    1.8040    3.5900 c3        1 U63      0.136400
     24 H1         -0.2640    0.3250   -1.3320 h1        1 U63      0.063700
     25 H2         -0.4230   -0.5980    0.2550 h1        1 U63      0.063700
     26 H3          2.0810    0.9940   -0.7210 h1        1 U63      0.072700
     27 H4          1.4760   -2.0630   -0.4050 h1        1 U63      0.064700
     28 H5          4.1410   -0.6220   -1.1700 h1        1 U63      0.066700
     29 H6          0.7760    0.0840    2.9870 ho        1 U63      0.427000
     30 H7          3.4010   -2.1870    1.4340 h1        1 U63      0.079700
     31 H8          3.8810    0.8950    1.0560 h2        1 U63      0.061700
     32 H9          3.6490    4.0560    6.8410 ho        1 U63      0.428000
     33 H10         2.8810    1.9860    2.8120 h1        1 U63      0.085700
     34 H11         6.5390    2.5400    5.0420 ho        1 U63      0.412000
     35 H12         4.4960    0.5690    5.0910 h1        1 U63      0.070700
     36 H13         5.4680   -1.3590    1.9590 ho        1 U63      0.424000
     37 H14         3.1040    1.6710    6.8890 h2        1 U63      0.054700
     38 H15         4.7990   -2.8370   -0.9400 ho        1 U63      0.428000
     39 H16         1.2580    3.0230    4.7420 h1        1 U63      0.097700
     40 H17         2.1270   -1.9010   -2.6390 ho        1 U63      0.427000
     41 H18         1.9080   -0.0260    4.9810 h1        1 U63      0.063700
     42 H19        -0.0960    1.4580    1.2610 ho        1 U63      0.419000
     43 H20         5.3490    2.7860    3.0700 h1        1 U63      0.059200
     44 H21         5.6870    0.9880    2.8380 h1        1 U63      0.059200
@<TRIPOS>BOND
     1    1    3 1   
     2    1   22 1   
     3    1   24 1   
     4    1   25 1   
     5    2    3 1   
     6    2   11 1   
     7    3    5 1   
     8    3   26 1   
     9    4   11 1   
    10    4   13 1   
    11    5    7 1   
    12    5   20 1   
    13    5   27 1   
    14    6   15 1   
    15    6   17 1   
    16    7    9 1   
    17    7   18 1   
    18    7   28 1   
    19    8   21 1   
    20    8   29 1   
    21    9   11 1   
    22    9   16 1   
    23    9   30 1   
    24   10   19 1   
    25   11   31 1   
    26   12   17 1   
    27   12   32 1   
    28   13   15 1   
    29   13   21 1   
    30   13   33 1   
    31   14   23 1   
    32   14   34 1   
    33   15   23 1   
    34   15   35 1   
    35   16   36 1   
    36   17   19 1   
    37   17   37 1   
    38   18   38 1   
    39   19   21 1   
    40   19   39 1   
    41   20   40 1   
    42   21   41 1   
    43   22   42 1   
    44   23   43 1   
    45   23   44 1   
@<TRIPOS>SUBSTRUCTURE
     1 U63         1 TEMP              0 ****  ****    0 ROOT
