@<TRIPOS>MOLECULE
U66
   62    66     1     0     0
SMALL
bcc


@<TRIPOS>ATOM
      1 C          -0.4060   -0.6220   -0.4620 ca        1 U66     -0.002000
      2 C1          1.0120   -0.8610   -0.5390 ca        1 U66      0.046600
      3 C2         -1.2020   -1.4860    0.3340 ca        1 U66     -0.051000
      4 C3         -1.0440    0.4240   -1.1850 ca        1 U66     -0.210000
      5 N           1.8450   -0.0510   -1.3470 n         1 U66     -0.372000
      6 C4          1.5660   -1.9030    0.2010 ca        1 U66     -0.124000
      7 C5         -2.6170   -1.3120    0.3570 ca        1 U66     -0.080000
      8 C6         -0.5950   -2.5210    1.0890 ca        1 U66     -0.101000
      9 C7         -2.4180    0.5120   -1.2040 ca        1 U66      0.107100
     10 C8          1.7510    0.1580   -2.7120 c         1 U66      0.678500
     11 C9          3.0910    0.4800   -0.8020 c3        1 U66      0.081000
     12 C10         0.7630   -2.7170    1.0240 ca        1 U66     -0.118000
     13 C11        -3.2270   -0.3540   -0.4060 ca        1 U66     -0.142000
     14 O          -3.1590    1.3480   -2.0180 os        1 U66     -0.338900
     15 C12         3.0220    0.8990   -3.2290 c3        1 U66      0.119500
     16 O13         0.7950   -0.1620   -3.4510 o         1 U66     -0.724500
     17 C14         3.8430    1.1740   -1.9520 c3        1 U66     -0.094400
     18 C15        -2.5100    2.4930   -2.5890 c3        1 U66      0.152100
     19 N16         2.7660    2.0370   -4.0710 n7        1 U66     -0.801200
     20 C17        -3.6820    3.4130   -2.9960 c3        1 U66      0.001400
     21 C18        -1.6800    2.1470   -3.8220 c3        1 U66     -0.090200
     22 C19         2.0050    3.1150   -3.4990 c3        1 U66      0.143100
     23 C20        -4.5560    2.7530   -4.0610 c3        1 U66     -0.055200
     24 C21        -3.1630    4.6910   -3.4460 c1        1 U66      0.191700
     25 C22        -2.5170    1.6180   -4.9300 c2        1 U66     -0.196400
     26 C23        -1.3060   -1.5680   -7.8790 c2        1 U66     -0.016000
     27 C24        -3.8200    1.9240   -5.0440 c2        1 U66     -0.069200
     28 N25        -2.7620    5.7230   -3.8010 n1        1 U66     -0.331800
     29 C26        -1.8030    0.8020   -5.9600 c3        1 U66      0.075500
     30 C27        -1.3260   -1.6380   -6.5410 cc        1 U66     -0.258700
     31 N28        -1.5590   -0.5780   -5.5770 na        1 U66     -0.130300
     32 C29        -1.1000   -2.8450   -5.6770 cc        1 U66      0.544500
     33 C30        -1.4540   -1.1300   -4.3450 cd        1 U66      0.585200
     34 NZ         -1.1850   -2.5260   -4.3940 nd        1 U66     -0.614000
     35 H31        -0.4230    1.1630   -1.7110 ha        1 U66      0.145000
     36 H41         2.6460   -2.1190    0.1590 ha        1 U66      0.144000
     37 H51        -3.2150   -1.9780    1.0000 ha        1 U66      0.152000
     38 H61        -1.2290   -3.1620    1.7210 ha        1 U66      0.148000
     39 H91         2.8490    1.2070    0.0210 h1        1 U66      0.064700
     40 H92         3.7150   -0.3490   -0.3680 h1        1 U66      0.064700
     41 H101        1.2440   -3.5190    1.6070 ha        1 U66      0.150000
     42 H111       -4.3180   -0.2220   -0.4180 ha        1 U66      0.159000
     43 H121        3.5770    0.1430   -3.8620 h1        1 U66      0.092700
     44 H141        3.9550    2.2650   -1.7400 hc        1 U66      0.078700
     45 H142        4.8690    0.7450   -2.0630 hc        1 U66      0.078700
     46 H151       -1.8640    2.9920   -1.8150 h1        1 U66      0.080700
     47 H161        1.8920    3.9180   -4.2750 h1        1 U66      0.038367
     48 H117       -4.3190    3.5960   -2.0800 hc        1 U66      0.110700
     49 H181       -0.8680    1.4150   -3.5660 hc        1 U66      0.079200
     50 H182       -1.1710    3.0910   -4.1670 hc        1 U66      0.079200
     51 H191        0.9780    2.8000   -3.1540 h1        1 U66      0.038367
     52 H192        2.5530    3.5460   -2.6210 h1        1 U66      0.038367
     53 H201       -5.2900    2.0780   -3.5340 hc        1 U66      0.089200
     54 H202       -5.1500    3.5380   -4.6030 hc        1 U66      0.089200
     55 H231       -1.1090   -2.4700   -8.4830 ha        1 U66      0.168500
     56 H232       -1.4770   -0.6370   -8.4440 ha        1 U66      0.168500
     57 H241       -4.4300    1.5480   -5.8830 ha        1 U66      0.137000
     58 H261       -0.7940    1.2710   -6.1710 h1        1 U66      0.087200
     59 H262       -2.3990    0.7800   -6.9190 h1        1 U66      0.087200
     60 H291       -0.8930   -3.8550   -6.0580 h4        1 U66      0.097800
     61 H301       -1.5360   -0.5790   -3.3760 h5        1 U66      0.152800
     62 H162        2.3520    1.7290   -4.9320 hn        1 U66      0.371800
@<TRIPOS>BOND
     1    1    2 ar  
     2    1    3 ar  
     3    1    4 ar  
     4    2    5 1   
     5    2    6 ar  
     6    3    7 ar  
     7    3    8 ar  
     8    4    9 ar  
     9    4   35 1   
    10    5   10 1   
    11    5   11 1   
    12    6   12 ar  
    13    6   36 1   
    14    7   13 ar  
    15    7   37 1   
    16    8   12 ar  
    17    8   38 1   
    18    9   13 ar  
    19    9   14 1   
    20   10   15 1   
    21   10   16 2   
    22   11   17 1   
    23   11   39 1   
    24   11   40 1   
    25   12   41 1   
    26   13   42 1   
    27   14   18 1   
    28   15   17 1   
    29   15   19 1   
    30   15   43 1   
    31   17   44 1   
    32   17   45 1   
    33   18   20 1   
    34   18   21 1   
    35   18   46 1   
    36   19   22 1   
    37   19   62 1   
    38   20   23 1   
    39   20   24 1   
    40   20   48 1   
    41   21   25 1   
    42   21   49 1   
    43   21   50 1   
    44   22   47 1   
    45   22   51 1   
    46   22   52 1   
    47   23   27 1   
    48   23   53 1   
    49   23   54 1   
    50   24   28 3   
    51   25   27 2   
    52   25   29 1   
    53   26   30 2   
    54   26   55 1   
    55   26   56 1   
    56   27   57 1   
    57   29   31 1   
    58   29   58 1   
    59   29   59 1   
    60   30   31 1   
    61   30   32 1   
    62   31   33 2   
    63   32   34 2   
    64   32   60 1   
    65   33   34 1   
    66   33   61 1   
@<TRIPOS>SUBSTRUCTURE
     1 U66         1 TEMP              0 ****  ****    0 ROOT
