@<TRIPOS>MOLECULE
U66
   62    67     1     0     0
SMALL
bcc


@<TRIPOS>ATOM
      1 C          -0.1240   -0.5670   -0.3760 ca        1 U66     -0.019000
      2 C1          1.2590   -0.4810    0.0250 ca        1 U66      0.077000
      3 C2         -0.8570   -1.7460   -0.0820 ca        1 U66     -0.033000
      4 C3         -0.7740    0.4740   -1.0920 ca        1 U66     -0.139000
      5 N           2.0430    0.6370   -0.3330 n         1 U66     -0.293000
      6 C4          1.8080   -1.5250    0.7670 ca        1 U66     -0.139000
      7 C5         -2.1830   -1.8930   -0.5850 ca        1 U66     -0.085000
      8 C6         -0.2610   -2.7770    0.6900 ca        1 U66     -0.115000
      9 C7         -2.0180    0.2580   -1.6390 ca        1 U66      0.021000
     10 C8          2.1880    1.1710   -1.6130 c2        1 U66      0.323000
     11 C9          3.0170    1.1900    0.5990 c3        1 U66     -0.028000
     12 C10         1.0380   -2.6550    1.1130 ca        1 U66     -0.102000
     13 C11        -2.7530   -0.9320   -1.3780 ca        1 U66     -0.135000
     14 O          -2.6830    1.2030   -2.4240 os        1 U66     -0.245000
     15 C12         3.2680    2.2900   -1.5990 c3        1 U66     -0.040000
     16 O13         1.5530    0.8240   -2.6230 o         1 U66     -0.387000
     17 C14         3.8480    2.2350   -0.1660 c3        1 U66     -0.214000
     18 C15        -1.8650    1.9400   -3.3420 c3        1 U66      0.023000
     19 N16         2.7000    3.5420   -2.0280 n3        1 U66     -0.340000
     20 C17        -2.3930    3.3870   -3.2510 c3        1 U66     -0.014000
     21 C18        -2.0070    1.4150   -4.7720 c3        1 U66     -0.135000
     22 C19         0.5940   -0.3200   -5.5900 c2        1 U66     -0.105000
     23 C20        -3.8740    3.4180   -3.6180 c3        1 U66     -0.227000
     24 C21        -1.6200    4.2820   -4.0870 c1        1 U66     -0.190000
     25 C22        -3.4070    1.6230   -5.3640 c3        1 U66     -0.255000
     26 C23        -0.5480   -1.8300   -7.9720 c3        1 U66     -0.134000
     27 C24        -4.2360    2.6220   -4.7770 c2        1 U66      0.249000
     28 N25        -0.9920    5.0130   -4.7360 n1        1 U66      0.040000
     29 C26        -4.0850    0.1530   -5.2770 c3        1 U66      0.027000
     30 C27        -2.6930   -1.3290   -6.6460 c1        1 U66     -0.060000
     31 N28        -3.0020   -0.7670   -5.3870 n3        1 U66     -0.179000
     32 C29        -1.3110   -1.2520   -6.8570 c2        1 U66     -0.322000
     33 C30        -1.7550   -0.1240   -4.8380 c3        1 U66     -0.002000
     34 NZ         -0.6690   -0.5380   -5.7890 n3        1 U66      0.032000
     35 H31        -0.2660    1.4410   -1.2230 ha        1 U66      0.147000
     36 H41         2.8590   -1.5020    1.0950 ha        1 U66      0.146000
     37 H51        -2.7360   -2.8140   -0.3400 ha        1 U66      0.154000
     38 H61        -0.8560   -3.6710    0.9350 ha        1 U66      0.150000
     39 H91         3.6870    0.3830    1.0040 h1        1 U66      0.101500
     40 H92         2.4720    1.6600    1.4630 h1        1 U66      0.101500
     41 H101        1.5090   -3.4480    1.7160 ha        1 U66      0.151000
     42 H111       -3.7580   -1.0510   -1.8060 ha        1 U66      0.151000
     43 H121        4.0560    1.9750   -2.3430 h1        1 U66      0.136000
     44 H141        3.7930    3.2240    0.3520 hc        1 U66      0.110500
     45 H142        4.9210    1.9270   -0.1980 hc        1 U66      0.110500
     46 H151       -0.7730    1.9060   -3.0640 h1        1 U66      0.163000
     47 H161        2.2280    4.0080   -1.2800 hn        1 U66      0.163500
     48 H117       -2.2890    3.7280   -2.1750 hc        1 U66      0.168000
     49 H181       -1.2570    1.9720   -5.4000 hc        1 U66      0.142000
     50 H182       -3.3410    1.8060   -6.4870 hc        1 U66      0.216000
     51 H191        0.9610    0.2370   -4.7060 h4        1 U66      0.190000
     52 H192        1.3290   -0.7200   -6.3140 h4        1 U66      0.190000
     53 H201       -4.4590    2.9770   -2.7390 hc        1 U66      0.198000
     54 H202       -4.2410    4.4810   -3.7280 hc        1 U66      0.198000
     55 H231       -1.2650   -2.3340   -8.6680 hc        1 U66      0.090333
     56 H232        0.1910   -2.5910   -7.6120 hc        1 U66      0.090333
     57 H241       -5.2460    2.7830   -5.2140 ha        1 U66      0.177000
     58 H261       -4.5440    0.0730   -4.2540 h1        1 U66      0.133500
     59 H262       -4.8470    0.0130   -6.0850 h1        1 U66      0.133500
     60 H291        0.0080   -1.0420   -8.5400 hc        1 U66      0.090333
     61 H301       -1.5120   -0.5510   -3.8210 h2        1 U66      0.181000
     62 H162        3.4050    4.1410   -2.4090 hn        1 U66      0.163500
@<TRIPOS>BOND
     1    1    2 1   
     2    1    3 1   
     3    1    4 1   
     4    2    5 1   
     5    2    6 1   
     6    3    7 1   
     7    3    8 1   
     8    4    9 1   
     9    4   35 1   
    10    5   10 1   
    11    5   11 1   
    12    6   12 1   
    13    6   36 1   
    14    7   13 1   
    15    7   37 1   
    16    8   12 1   
    17    8   38 1   
    18    9   13 1   
    19    9   14 1   
    20   10   15 1   
    21   10   16 1   
    22   11   17 1   
    23   11   39 1   
    24   11   40 1   
    25   12   41 1   
    26   13   42 1   
    27   14   18 1   
    28   15   17 1   
    29   15   19 1   
    30   15   43 1   
    31   17   44 1   
    32   17   45 1   
    33   18   20 1   
    34   18   21 1   
    35   18   46 1   
    36   19   47 1   
    37   19   62 1   
    38   20   23 1   
    39   20   24 1   
    40   20   48 1   
    41   21   25 1   
    42   21   33 1   
    43   21   49 1   
    44   22   34 1   
    45   22   51 1   
    46   22   52 1   
    47   23   27 1   
    48   23   53 1   
    49   23   54 1   
    50   24   28 1   
    51   25   27 1   
    52   25   29 1   
    53   25   50 1   
    54   26   32 1   
    55   26   55 1   
    56   26   56 1   
    57   26   60 1   
    58   27   57 1   
    59   29   31 1   
    60   29   58 1   
    61   29   59 1   
    62   30   31 1   
    63   30   32 1   
    64   31   33 1   
    65   32   34 1   
    66   33   34 1   
    67   33   61 1   
@<TRIPOS>SUBSTRUCTURE
     1 U66         1 TEMP              0 ****  ****    0 ROOT
