@<TRIPOS>MOLECULE
U6B
   54    56     1     0     0
SMALL
bcc


@<TRIPOS>ATOM
      1 C9          0.1790    0.1460   -0.8220 c2        1 U6B      0.230000
      2 C23         9.3560   -0.6520   -1.7620 ca        1 U6B     -0.087500
      3 C25         9.6520   -1.1300    0.6010 ca        1 U6B     -0.087500
      4 C22         7.9750   -0.7440   -1.6040 ca        1 U6B     -0.114000
      5 C26         8.2720   -1.2250    0.7510 ca        1 U6B     -0.114000
      6 C2          5.4160   -2.1020    0.6640 ca        1 U6B     -0.138000
      7 C4          5.1100   -0.2850   -0.9000 ca        1 U6B     -0.138000
      8 C1          4.0350   -2.2120    0.8050 ca        1 U6B     -0.156500
      9 C5          3.7280   -0.4040   -0.7650 ca        1 U6B     -0.156500
     10 C24        10.2000   -0.8390   -0.6580 ca        1 U6B      0.042000
     11 C21         7.4210   -1.0250   -0.3470 cp        1 U6B     -0.089000
     12 C3          5.9740   -1.1340   -0.1870 cp        1 U6B      0.005000
     13 C6          3.1760   -1.3620    0.0960 ca        1 U6B     -0.149300
     14 C12         1.7220    1.5490    1.6390 c         1 U6B      0.500100
     15 C15         3.3440    0.2970    3.2570 c3        1 U6B     -0.163900
     16 C19         2.9400    2.7770    3.4270 c3        1 U6B     -0.163900
     17 C16         2.4600    0.1440    4.4940 c3        1 U6B      0.116900
     18 C18         2.0220    2.4600    4.6000 c3        1 U6B      0.116900
     19 C14         3.0370    1.5720    2.4570 c3        1 U6B      0.104200
     20 C7          1.7030   -1.5720    0.1650 c3        1 U6B      0.029100
     21 C8          0.9060   -0.3110    0.2660 c2        1 U6B     -0.337200
     22 N28        12.7630   -0.6550   -0.9390 n1        1 U6B     -0.281800
     23 N10        -0.5590    1.2570   -0.9270 nv        1 U6B     -0.813600
     24 N20         4.1530    1.8240    1.4560 nz        1 U6B     -0.863600
     25 N11         0.8660    0.3280    1.5750 ny        1 U6B     -0.475600
     26 O13         1.3440    2.5340    1.0130 o         1 U6B     -0.413100
     27 O17         2.4770    1.3100    5.2940 os        1 U6B     -0.350600
     28 H9         -1.0650    1.4400   -1.7700 hn        1 U6B      0.466300
     29 H8          0.2140   -0.5000   -1.7370 h4        1 U6B      0.213000
     30 H10        -0.6330    1.9340   -0.2050 hn        1 U6B      0.466300
     31 H23         9.7860   -0.4420   -2.7550 ha        1 U6B      0.169000
     32 H22         7.3230   -0.6200   -2.4820 ha        1 U6B      0.138000
     33 H25        10.3160   -1.2920    1.4660 ha        1 U6B      0.169000
     34 H26         7.8540   -1.4670    1.7400 ha        1 U6B      0.138000
     35 H2          6.0790   -2.8090    1.1930 ha        1 U6B      0.170000
     36 H1          3.6190   -3.0080    1.4450 ha        1 U6B      0.148000
     37 H4          5.5310    0.4390   -1.6190 ha        1 U6B      0.170000
     38 H5          3.0630    0.2080   -1.3950 ha        1 U6B      0.148000
     39 H71C        1.4510   -2.2650    1.0180 hc        1 U6B      0.092700
     40 H72C        1.3850   -2.1170   -0.7720 hc        1 U6B      0.092700
     41 H11        -0.1060    0.6030    1.7920 hn        1 U6B      0.474300
     42 H151        3.2820   -0.6210    2.6110 hc        1 U6B      0.108450
     43 H152        4.4060    0.3600    3.6360 hc        1 U6B      0.108450
     44 H161        1.4030   -0.1200    4.2260 h1        1 U6B      0.086450
     45 H162        2.8800   -0.6590    5.1670 h1        1 U6B      0.086450
     46 H191        3.9620    3.0020    3.8400 hc        1 U6B      0.108450
     47 H192        2.5630    3.6870    2.8890 hc        1 U6B      0.108450
     48 H181        0.9640    2.3220    4.2550 h1        1 U6B      0.086450
     49 H182        2.0680    3.2840    5.3690 h1        1 U6B      0.086450
     50 H201        3.9580    2.6810    0.9250 hn        1 U6B      0.482800
     51 H202        4.2520    1.0200    0.8020 hn        1 U6B      0.482800
     52 H203        5.0350    1.9460    1.9710 hn        1 U6B      0.482800
     53 H112        1.1710   -0.3650    2.2750 hn        1 U6B      0.474300
     54 C27        11.6100   -0.7390   -0.8120 cg        1 U6B      0.192800
@<TRIPOS>BOND
     1    1   21 2   
     2    1   23 1   
     3    1   29 1   
     4    2    4 ar  
     5    2   10 ar  
     6    2   31 1   
     7    3    5 ar  
     8    3   10 ar  
     9    3   33 1   
    10    4   11 ar  
    11    4   32 1   
    12    5   11 ar  
    13    5   34 1   
    14    6    8 ar  
    15    6   12 ar  
    16    6   35 1   
    17    7    9 ar  
    18    7   12 ar  
    19    7   37 1   
    20    8   13 ar  
    21    8   36 1   
    22    9   13 ar  
    23    9   38 1   
    24   10   54 1   
    25   11   12 1   
    26   13   20 1   
    27   14   19 1   
    28   14   25 1   
    29   14   26 2   
    30   15   17 1   
    31   15   19 1   
    32   15   42 1   
    33   15   43 1   
    34   16   18 1   
    35   16   19 1   
    36   16   46 1   
    37   16   47 1   
    38   17   27 1   
    39   17   44 1   
    40   17   45 1   
    41   18   27 1   
    42   18   48 1   
    43   18   49 1   
    44   19   24 1   
    45   20   21 1   
    46   20   39 1   
    47   20   40 1   
    48   21   25 1   
    49   22   54 3   
    50   23   28 1   
    51   23   30 1   
    52   24   50 1   
    53   24   51 1   
    54   24   52 1   
    55   25   41 1   
    56   25   53 1   
@<TRIPOS>SUBSTRUCTURE
     1 U6B         1 TEMP              0 ****  ****    0 ROOT
