@<TRIPOS>MOLECULE
U6B
   54    55     1     0     0
SMALL
bcc


@<TRIPOS>ATOM
      1 C9          0.0530    0.4350   -0.3190 ce        1 U6B      0.301900
      2 C23        10.0230   -1.0080   -2.2420 ca        1 U6B     -0.088500
      3 C25         9.7700   -2.4490   -0.3050 ca        1 U6B     -0.088500
      4 C22         8.6520   -0.7650   -2.2370 ca        1 U6B     -0.114500
      5 C26         8.4000   -2.2060   -0.3080 ca        1 U6B     -0.114500
      6 C2          5.4840   -2.1340   -0.9600 ca        1 U6B     -0.123000
      7 C4          5.8880    0.1640   -1.5950 ca        1 U6B     -0.123000
      8 C1          4.1120   -1.8970   -0.9770 ca        1 U6B     -0.111000
      9 C5          4.5170    0.4010   -1.6150 ca        1 U6B     -0.111000
     10 C24        10.5880   -1.8480   -1.2730 ca        1 U6B      0.030000
     11 C21         7.8280   -1.3590   -1.2690 cp        1 U6B     -0.071000
     12 C3          6.3900   -1.1070   -1.2700 cp        1 U6B      0.021000
     13 C6          3.6190   -0.6280   -1.3040 ca        1 U6B     -0.147300
     14 C12         1.5360    0.9250    2.1160 c         1 U6B      0.677500
     15 C15         1.9800    0.4640    4.5490 c3        1 U6B     -0.143400
     16 C19         2.2790    2.8040    3.6130 c3        1 U6B     -0.143400
     17 C16         0.6530    0.9590    5.1160 c3        1 U6B      0.120400
     18 C18         0.9280    3.1300    4.2450 c3        1 U6B      0.120400
     19 C14         2.4270    1.2930    3.3240 c3        1 U6B      0.111200
     20 C7          2.1570   -0.3950   -1.3960 c3        1 U6B     -0.079400
     21 C8          1.5290    0.1460   -0.1340 ce        1 U6B      0.462000
     22 N28        13.1340   -2.2920   -1.2660 n1        1 U6B     -0.298800
     23 N10        -0.8930   -0.4490   -0.2440 nh        1 U6B     -0.273100
     24 N20         3.8930    0.9950    3.0470 n4        1 U6B     -0.840600
     25 N11         2.1750    0.3990    0.9530 nf        1 U6B     -0.664100
     26 O13         0.3050    1.0750    2.1470 o         1 U6B     -0.518100
     27 O17         0.7140    2.3450    5.4050 os        1 U6B     -0.364600
     28 H9         -1.8630   -0.2020   -0.4060 hn        1 U6B      0.351200
     29 H8         -0.2020    1.4980   -0.5700 h4        1 U6B      0.106800
     30 H10        -0.7250   -1.4180   -0.0180 hn        1 U6B      0.351200
     31 H23        10.6630   -0.5430   -3.0110 ha        1 U6B      0.163500
     32 H22         8.2150   -0.1160   -3.0120 ha        1 U6B      0.137500
     33 H25        10.2120   -3.1160    0.4520 ha        1 U6B      0.163500
     34 H26         7.7650   -2.6860    0.4520 ha        1 U6B      0.137500
     35 H2          5.8620   -3.1440   -0.7330 ha        1 U6B      0.163000
     36 H1          3.4190   -2.7240   -0.7610 ha        1 U6B      0.134000
     37 H4          6.5870    0.9770   -1.8550 ha        1 U6B      0.163000
     38 H5          4.1430    1.3950   -1.9040 ha        1 U6B      0.134000
     39 H71C        1.9410    0.3430   -2.2230 hc        1 U6B      0.103200
     40 H72C        1.6290   -1.3600   -1.6460 hc        1 U6B      0.103200
     41 H11         4.7930    2.1930    6.3230 ha        1 U6B      0.003000
     42 H151        1.8870   -0.6180    4.2750 hc        1 U6B      0.090700
     43 H152        2.7530    0.5640    5.3630 hc        1 U6B      0.090700
     44 H161        0.4540    0.4740    6.1130 h1        1 U6B      0.092950
     45 H162       -0.1900    0.7410    4.4070 h1        1 U6B      0.092950
     46 H191        2.4010    3.3960    2.6700 hc        1 U6B      0.090700
     47 H192        3.0770    3.1200    4.3420 hc        1 U6B      0.090700
     48 H181        0.9230    4.1910    4.6200 h1        1 U6B      0.092950
     49 H182        0.0960    2.9780    3.5070 h1        1 U6B      0.092950
     50 H201        4.4390    1.2510    3.8830 hn        1 U6B      0.473133
     51 H202        4.0250   -0.0020    2.8520 hn        1 U6B      0.473133
     52 H203        4.2250    1.5430    2.2480 hn        1 U6B      0.473133
     53 H112        4.5550    1.9810    5.7230 ha        1 U6B      0.003000
     54 C27        11.9880   -2.0920   -1.2700 cg        1 U6B      0.200800
@<TRIPOS>BOND
     1    1   21 1   
     2    1   23 2   
     3    1   29 1   
     4    2    4 ar  
     5    2   10 ar  
     6    2   31 1   
     7    3    5 ar  
     8    3   10 ar  
     9    3   33 1   
    10    4   11 ar  
    11    4   32 1   
    12    5   11 ar  
    13    5   34 1   
    14    6    8 ar  
    15    6   12 ar  
    16    6   35 1   
    17    7    9 ar  
    18    7   12 ar  
    19    7   37 1   
    20    8   13 ar  
    21    8   36 1   
    22    9   13 ar  
    23    9   38 1   
    24   10   54 1   
    25   11   12 1   
    26   13   20 1   
    27   14   19 1   
    28   14   25 1   
    29   14   26 2   
    30   15   17 1   
    31   15   19 1   
    32   15   42 1   
    33   15   43 1   
    34   16   18 1   
    35   16   19 1   
    36   16   46 1   
    37   16   47 1   
    38   17   27 1   
    39   17   44 1   
    40   17   45 1   
    41   18   27 1   
    42   18   48 1   
    43   18   49 1   
    44   19   24 1   
    45   20   21 1   
    46   20   39 1   
    47   20   40 1   
    48   21   25 2   
    49   22   54 3   
    50   23   28 1   
    51   23   30 1   
    52   24   50 1   
    53   24   51 1   
    54   24   52 1   
    55   41   53 1   
@<TRIPOS>SUBSTRUCTURE
     1 U6B         1 TEMP              0 ****  ****    0 ROOT
