@<TRIPOS>MOLECULE
U6B
   54    56     1     0     0
SMALL
bcc


@<TRIPOS>ATOM
      1 C9          0.3270    1.0620    0.2310 c2        1 U6B      0.356200
      2 C23         9.8950   -1.3900   -1.7520 ca        1 U6B     -0.089000
      3 C25         9.3930   -3.5470   -0.7560 ca        1 U6B     -0.089000
      4 C22         8.5550   -1.0310   -1.6420 ca        1 U6B     -0.111000
      5 C26         8.0540   -3.1800   -0.6430 ca        1 U6B     -0.111000
      6 C2          5.4690   -1.9090    0.1620 ca        1 U6B     -0.110000
      7 C4          5.5890   -0.8130   -1.9910 ca        1 U6B     -0.110000
      8 C1          4.1280   -1.5570    0.2660 ca        1 U6B     -0.134500
      9 C5          4.2440   -0.4630   -1.8870 ca        1 U6B     -0.134500
     10 C24        10.3190   -2.6510   -1.3070 ca        1 U6B      0.033000
     11 C21         7.6240   -1.9190   -1.0820 cp        1 U6B     -0.077000
     12 C3          6.2190   -1.5390   -0.9680 cp        1 U6B      0.029000
     13 C6          3.5040   -0.8260   -0.7570 ca        1 U6B     -0.190300
     14 C12         2.6260    2.3100    1.8650 c         1 U6B      0.508100
     15 C15         3.3070    1.8500    4.2480 c3        1 U6B     -0.166900
     16 C19         0.8060    1.9940    3.6180 c3        1 U6B     -0.166900
     17 C16         3.0210    0.3880    4.5640 c3        1 U6B      0.112900
     18 C18         0.7200    0.5400    4.0710 c3        1 U6B      0.112900
     19 C14         2.2360    2.5100    3.3550 c3        1 U6B      0.105200
     20 C7          2.0560   -0.5070   -0.6670 c3        1 U6B     -0.045100
     21 C8          1.8160    0.8620   -0.0110 c3        1 U6B      0.026200
     22 N28        12.8080   -3.3180   -1.5040 n1        1 U6B     -0.297800
     23 N10        -0.4730    1.8430   -0.3670 n2        1 U6B     -0.646100
     24 N20         2.2530    4.0160    3.6200 n4        1 U6B     -0.849600
     25 N11         2.5870    0.9440    1.3030 n4        1 U6B     -0.661800
     26 O13         2.9880    3.2290    1.1380 o         1 U6B     -0.400100
     27 O17         1.7000    0.2190    5.0370 os        1 U6B     -0.345600
     28 H9         -0.1110    0.3710    0.9860 h4        1 U6B      0.037800
     29 H8          2.2530    1.6720   -0.6730 hx        1 U6B      0.128700
     30 H10        -0.1420    2.4390   -1.0990 hn        1 U6B      0.431400
     31 H23        10.6210   -0.6880   -2.1930 ha        1 U6B      0.165000
     32 H22         8.2290   -0.0410   -1.9960 ha        1 U6B      0.139500
     33 H25         9.7220   -4.5430   -0.4180 ha        1 U6B      0.165000
     34 H26         7.3300   -3.8960   -0.2240 ha        1 U6B      0.139500
     35 H2          5.9470   -2.5010    0.9610 ha        1 U6B      0.166500
     36 H1          3.5400   -1.9210    1.1230 ha        1 U6B      0.134000
     37 H4          6.1560   -0.5420   -2.8980 ha        1 U6B      0.166500
     38 H5          3.7600    0.0790   -2.7160 ha        1 U6B      0.134000
     39 H71C        1.5990   -0.4540   -1.6960 hc        1 U6B      0.107200
     40 H72C        1.5060   -1.3100   -0.1040 hc        1 U6B      0.107200
     41 H11         3.5600    0.6240    1.0880 hn        1 U6B      0.487300
     42 H151        3.3530    2.3820    5.2420 hc        1 U6B      0.108700
     43 H152        4.3190    1.9420    3.7720 hc        1 U6B      0.108700
     44 H161        3.2220   -0.2770    3.6830 h1        1 U6B      0.090700
     45 H162        3.6670    0.0490    5.4270 h1        1 U6B      0.090700
     46 H191        0.1750    2.1280    2.6970 hc        1 U6B      0.108700
     47 H192        0.3290    2.6040    4.4390 hc        1 U6B      0.108700
     48 H181       -0.2600    0.3680    4.6090 h1        1 U6B      0.090700
     49 H182        0.7710   -0.1700    3.2020 h1        1 U6B      0.090700
     50 H201        3.1740    4.4090    3.3810 hn        1 U6B      0.485467
     51 H202        1.5340    4.4850    3.0550 hn        1 U6B      0.485467
     52 H203        2.0610    4.1810    4.6180 hn        1 U6B      0.485467
     53 H112        2.1750    0.2840    1.9750 hn        1 U6B      0.487300
     54 C27        11.6880   -3.0180   -1.4160 cg        1 U6B      0.200800
@<TRIPOS>BOND
     1    1   21 1   
     2    1   23 2   
     3    1   28 1   
     4    2    4 ar  
     5    2   10 ar  
     6    2   31 1   
     7    3    5 ar  
     8    3   10 ar  
     9    3   33 1   
    10    4   11 ar  
    11    4   32 1   
    12    5   11 ar  
    13    5   34 1   
    14    6    8 ar  
    15    6   12 ar  
    16    6   35 1   
    17    7    9 ar  
    18    7   12 ar  
    19    7   37 1   
    20    8   13 ar  
    21    8   36 1   
    22    9   13 ar  
    23    9   38 1   
    24   10   54 1   
    25   11   12 1   
    26   13   20 1   
    27   14   19 1   
    28   14   25 1   
    29   14   26 2   
    30   15   17 1   
    31   15   19 1   
    32   15   42 1   
    33   15   43 1   
    34   16   18 1   
    35   16   19 1   
    36   16   46 1   
    37   16   47 1   
    38   17   27 1   
    39   17   44 1   
    40   17   45 1   
    41   18   27 1   
    42   18   48 1   
    43   18   49 1   
    44   19   24 1   
    45   20   21 1   
    46   20   39 1   
    47   20   40 1   
    48   21   25 1   
    49   21   29 1   
    50   22   54 3   
    51   23   30 1   
    52   24   50 1   
    53   24   51 1   
    54   24   52 1   
    55   25   41 1   
    56   25   53 1   
@<TRIPOS>SUBSTRUCTURE
     1 U6B         1 TEMP              0 ****  ****    0 ROOT
