@<TRIPOS>MOLECULE
U6M
   35    36     1     0     0
SMALL
bcc


@<TRIPOS>ATOM
      1 O2          0.1050   -1.1680    0.2420 o         1 U6M     -0.627500
      2 C2          1.2310   -0.6580    0.0690 c         1 U6M      0.810500
      3 N3          1.9650   -0.3460    1.2410 ns        1 U6M     -0.598500
      4 C4          3.1860    0.3330    1.2170 c         1 U6M      0.725700
      5 O4          3.7740    0.5700    2.2960 o         1 U6M     -0.696500
      6 C5          3.6700    0.7100   -0.1020 cc        1 U6M     -0.396200
      7 C6          2.9770    0.3680   -1.2370 cd        1 U6M      0.155400
      8 C7          3.4930    0.8580   -2.5550 c3        1 U6M     -0.082900
      9 N1          1.8340   -0.4280   -1.1940 n         1 U6M     -0.347000
     10 C1'         1.1880   -0.7800   -2.4860 c3        1 U6M      0.284500
     11 O4'         0.5920    0.3780   -3.0450 os        1 U6M     -0.426600
     12 C2'         0.1710   -1.9440   -2.5200 c3        1 U6M      0.031100
     13 O2'         0.7570   -3.0050   -3.2380 oh        1 U6M     -0.657800
     14 C3'        -1.1030   -1.3610   -3.2800 c3        1 U6M      0.362800
     15 O3'        -1.2380   -1.9170   -4.4660 o         1 U6M     -0.872500
     16 C4'        -0.8100    0.1770   -3.3140 c3        1 U6M      0.046100
     17 C5'        -1.6510    0.9640   -2.3060 c3        1 U6M      0.168400
     18 O5'        -1.4950    2.3440   -2.4610 os        1 U6M     -0.586200
     19 P          -2.8150    3.2260   -2.8940 p5        1 U6M      1.428800
     20 O3P        -2.8620    2.7970   -4.4730 oh        1 U6M     -0.784400
     21 O1P        -4.0110    2.5820   -2.3020 o         1 U6M     -0.848500
     22 O2P        -2.4870    4.6620   -2.7800 o         1 U6M     -0.848500
     23 H1          1.5180   -0.5360    2.1090 hn        1 U6M      0.330500
     24 H2          4.5880    1.3040   -0.1380 ha        1 U6M      0.151000
     25 H5          2.6650    1.3350   -3.1450 hc        1 U6M      0.067700
     26 H6          3.9160    0.0100   -3.1480 hc        1 U6M      0.067700
     27 H7          4.2980    1.6140   -2.3880 hc        1 U6M      0.067700
     28 H8          2.0610   -1.0490   -3.1620 h2        1 U6M      0.052700
     29 H9         -0.0970   -2.3450   -1.5150 h1        1 U6M      0.068700
     30 H10         0.3160   -3.0230   -4.1150 ho        1 U6M      0.437000
     31 H11        -1.9820   -1.5300   -2.5850 h1        1 U6M     -0.044300
     32 H12        -3.1060    1.8870   -4.5920 ho        1 U6M      0.423000
     33 H13        -0.9480    0.5830   -4.3510 h1        1 U6M      0.071700
     34 H14        -2.7350    0.6820   -2.4300 h1        1 U6M      0.034200
     35 H15        -1.3120    0.6890   -1.2670 h1        1 U6M      0.034200
@<TRIPOS>BOND
     1    1    2 2   
     2    2    3 1   
     3    2    9 1   
     4    3    4 1   
     5    3   23 1   
     6    4    5 2   
     7    4    6 1   
     8    6    7 2   
     9    6   24 1   
    10    7    8 1   
    11    7    9 1   
    12    8   25 1   
    13    8   26 1   
    14    8   27 1   
    15    9   10 1   
    16   10   11 1   
    17   10   12 1   
    18   10   28 1   
    19   11   16 1   
    20   12   13 1   
    21   12   14 1   
    22   12   29 1   
    23   13   30 1   
    24   14   15 1   
    25   14   16 1   
    26   14   31 1   
    27   16   17 1   
    28   16   33 1   
    29   17   18 1   
    30   17   34 1   
    31   17   35 1   
    32   18   19 1   
    33   19   20 1   
    34   19   21 1   
    35   19   22 1   
    36   20   32 1   
@<TRIPOS>SUBSTRUCTURE
     1 U6M         1 TEMP              0 ****  ****    0 ROOT
