@<TRIPOS>MOLECULE
U6M
   35    36     1     0     0
SMALL
bcc


@<TRIPOS>ATOM
      1 O2          0.1090   -1.1490    0.2540 o         1 U6M     -0.627500
      2 C2          1.2380   -0.6510    0.0690 c         1 U6M      0.810500
      3 N3          1.9840   -0.3380    1.2330 n         1 U6M     -0.598500
      4 C4          3.2110    0.3290    1.1950 c         1 U6M      0.725700
      5 O4          3.8100    0.5680    2.2680 o         1 U6M     -0.696500
      6 C5          3.6890    0.6920   -0.1300 cc        1 U6M     -0.396200
      7 C6          2.9830    0.3480   -1.2580 cd        1 U6M      0.155400
      8 C7          3.4950    0.8230   -2.5830 c3        1 U6M     -0.082900
      9 N1          1.8340   -0.4370   -1.2000 n         1 U6M     -0.347000
     10 C1'         1.1750   -0.7910   -2.4850 c3        1 U6M      0.284500
     11 O4'         0.5860    0.3680   -3.0470 os        1 U6M     -0.426600
     12 C2'         0.1450   -1.9460   -2.5030 c3        1 U6M      0.031100
     13 O2'         0.7160   -3.0170   -3.2180 oh        1 U6M     -0.657800
     14 C3'        -1.1290   -1.3550   -3.2570 c3        1 U6M      0.362800
     15 O3'        -1.2780   -1.9190   -4.4370 o         1 U6M     -0.872500
     16 C4'        -0.8210    0.1800   -3.3040 c3        1 U6M      0.046100
     17 C5'        -1.6460    0.9820   -2.2950 c3        1 U6M      0.168400
     18 O5'        -1.4780    2.3590   -2.4620 os        1 U6M     -0.586200
     19 P          -2.7920    3.2510   -2.8910 p5        1 U6M      1.428800
     20 O3P        -2.8550    2.8110   -4.4660 oh        1 U6M     -0.784400
     21 O1P        -3.9890    2.6240   -2.2850 o         1 U6M     -0.848500
     22 O2P        -2.4490    4.6850   -2.7900 o         1 U6M     -0.848500
     23 H1          1.5420   -0.5170    2.1060 hn        1 U6M      0.330500
     24 H2          4.6120    1.2770   -0.1780 ha        1 U6M      0.151000
     25 H5          3.9050   -0.0340   -3.1730 hc        1 U6M      0.067700
     26 H6          2.6670    1.3040   -3.1700 hc        1 U6M      0.067700
     27 H7          4.3090    1.5730   -2.4280 hc        1 U6M      0.067700
     28 H8          2.0400   -1.0740   -3.1650 h2        1 U6M      0.052700
     29 H9         -0.1180   -2.3370   -1.4920 h1        1 U6M      0.068700
     30 H10         0.2680   -3.0380   -4.0900 ho        1 U6M      0.437000
     31 H11        -2.0040   -1.5110   -2.5530 h1        1 U6M     -0.044300
     32 H12        -3.1100    1.9030   -4.5770 ho        1 U6M      0.423000
     33 H13        -0.9630    0.5790   -4.3430 h1        1 U6M      0.071700
     34 H14        -2.7330    0.7100   -2.4090 h1        1 U6M      0.034200
     35 H15        -1.3020    0.7110   -1.2570 h1        1 U6M      0.034200
@<TRIPOS>BOND
     1    1    2 2   
     2    2    3 1   
     3    2    9 1   
     4    3    4 1   
     5    3   23 1   
     6    4    5 2   
     7    4    6 1   
     8    6    7 2   
     9    6   24 1   
    10    7    8 1   
    11    7    9 1   
    12    8   25 1   
    13    8   26 1   
    14    8   27 1   
    15    9   10 1   
    16   10   11 1   
    17   10   12 1   
    18   10   28 1   
    19   11   16 1   
    20   12   13 1   
    21   12   14 1   
    22   12   29 1   
    23   13   30 1   
    24   14   15 1   
    25   14   16 1   
    26   14   31 1   
    27   16   17 1   
    28   16   33 1   
    29   17   18 1   
    30   17   34 1   
    31   17   35 1   
    32   18   19 1   
    33   19   20 1   
    34   19   21 1   
    35   19   22 1   
    36   20   32 1   
@<TRIPOS>SUBSTRUCTURE
     1 U6M         1 TEMP              0 ****  ****    0 ROOT
