@<TRIPOS>MOLECULE
U6M
   35    36     1     0     0
SMALL
bcc


@<TRIPOS>ATOM
      1 O2          3.9820   -1.1750    1.8550 o         1 U6M     -0.373000
      2 C2          3.6000   -0.2730    1.0760 c2        1 U6M      0.388000
      3 N3          4.2470    0.9780    1.1760 n         1 U6M     -0.382000
      4 C4          4.0510    2.0060    0.2440 c2        1 U6M      0.364000
      5 O4          4.6710    3.0830    0.4050 o         1 U6M     -0.433000
      6 C5          3.1600    1.6910   -0.8520 c2        1 U6M     -0.405000
      7 C6          2.4730    0.4950   -0.9140 c2        1 U6M      0.184000
      8 C7          1.6220    0.2550   -2.1180 c3        1 U6M     -0.212000
      9 N1          2.6150   -0.4690    0.0740 n         1 U6M     -0.250000
     10 C1'         1.7620   -1.6870    0.2140 c3        1 U6M      0.109000
     11 O4'         0.6800   -1.6610   -0.6870 os        1 U6M     -0.303000
     12 C2'         1.1590   -1.9200    1.6690 c3        1 U6M      0.134000
     13 O2'         1.7140   -3.1120    2.2060 oh        1 U6M     -0.365000
     14 C3'        -0.3010   -1.9570    1.4400 c2        1 U6M     -0.611000
     15 O3'        -0.9670   -3.0640    1.9590 oh        1 U6M     -0.301000
     16 C4'        -0.6030   -1.6190    0.0320 c3        1 U6M      0.108000
     17 C5'        -1.2370   -0.2300   -0.1160 c3        1 U6M      0.022000
     18 O5'        -1.5900    0.0590   -1.4410 os        1 U6M     -0.766000
     19 P          -3.1870    0.2210   -1.7980 p5        1 U6M      1.898000
     20 O3P        -3.6030   -1.3590   -1.6990 oh        1 U6M     -0.817000
     21 O1P        -3.8630    0.8530   -0.6410 o         1 U6M     -0.849000
     22 O2P        -3.3040    0.6810   -3.1970 o         1 U6M     -0.849000
     23 H1          4.8670    1.1060    1.9420 hn        1 U6M      0.237000
     24 H2          3.0440    2.4540   -1.6280 ha        1 U6M      0.156000
     25 H5          1.8600    1.0090   -2.9070 hc        1 U6M      0.122667
     26 H6          1.7850   -0.7720   -2.5280 hc        1 U6M      0.122667
     27 H7          0.5300    0.3350   -1.8500 hc        1 U6M      0.122667
     28 H8          2.4340   -2.5430   -0.0840 h2        1 U6M      0.090000
     29 H9          1.4990   -1.1080    2.3650 h1        1 U6M      0.072000
     30 H10         1.0680   -3.8130    2.0520 ho        1 U6M      0.198000
     31 H11        -3.5530   -1.6880   -0.8090 ho        1 U6M      0.221000
     32 H12        -1.5010   -2.6970    2.6750 ho        1 U6M      0.148000
     33 H13        -1.2350   -2.3830   -0.5000 h1        1 U6M      0.071000
     34 H14        -2.1470   -0.1830    0.5440 h1        1 U6M      0.072500
     35 H15        -0.4970    0.5480    0.2220 h1        1 U6M      0.072500
@<TRIPOS>BOND
     1    1    2 1   
     2    2    3 1   
     3    2    9 1   
     4    3    4 1   
     5    3   23 1   
     6    4    5 1   
     7    4    6 1   
     8    6    7 1   
     9    6   24 1   
    10    7    8 1   
    11    7    9 1   
    12    8   25 1   
    13    8   26 1   
    14    8   27 1   
    15    9   10 1   
    16   10   11 1   
    17   10   12 1   
    18   10   28 1   
    19   11   16 1   
    20   12   13 1   
    21   12   14 1   
    22   12   29 1   
    23   13   30 1   
    24   14   15 1   
    25   14   16 1   
    26   15   32 1   
    27   16   17 1   
    28   16   33 1   
    29   17   18 1   
    30   17   34 1   
    31   17   35 1   
    32   18   19 1   
    33   19   20 1   
    34   19   21 1   
    35   19   22 1   
    36   20   31 1   
@<TRIPOS>SUBSTRUCTURE
     1 U6M         1 TEMP              0 ****  ****    0 ROOT
