@<TRIPOS>MOLECULE
U6M
   35    33     1     0     0
SMALL
bcc


@<TRIPOS>ATOM
      1 O2          0.6130    1.3900    1.5860 o         1 U6M     -0.375500
      2 C2          0.8070    0.2890    2.0600 c1        1 U6M      0.381500
      3 N3          1.4600    0.1600    3.3620 n3        1 U6M     -0.373000
      4 C4          1.7730   -1.1250    3.8740 c1        1 U6M      0.381500
      5 O4          2.3920   -1.2310    4.9130 o         1 U6M     -0.375500
      6 C5          1.3790   -2.3280    3.1270 c1        1 U6M     -0.360000
      7 C6          0.6530   -2.1940    1.8560 c1        1 U6M      0.148000
      8 C7          0.3160   -3.4250    1.0430 c2        1 U6M     -0.205000
      9 N1          0.3440   -0.9040    1.3510 n2        1 U6M     -0.242000
     10 C1'        -0.3600   -0.7740    0.1610 c3        1 U6M      0.127000
     11 O4'         0.4850    0.1380   -0.8940 os        1 U6M     -0.312000
     12 C2'        -1.5000   -0.1350    0.3730 c3        1 U6M     -0.005000
     13 O2'        -2.5940   -1.0980    0.5780 oh        1 U6M     -0.358000
     14 C3'        -1.7430    0.6860   -0.9140 c3        1 U6M      0.030000
     15 O3'        -2.7270    0.1480   -1.6240 oh        1 U6M     -0.423000
     16 C4'        -0.3840    0.6230   -1.7240 c3        1 U6M     -0.045000
     17 C5'         0.0310    2.0160   -2.1660 c3        1 U6M      0.087000
     18 O5'         1.0240    1.9170   -3.1600 os        1 U6M     -0.721000
     19 P           1.3100    3.1790   -4.0680 p5        1 U6M      1.571500
     20 O3P         1.6110    4.3710   -3.1920 o         1 U6M     -0.929833
     21 O1P         0.0970    3.4730   -4.9180 o         1 U6M     -0.929833
     22 O2P         2.4940    2.8990   -4.9620 o         1 U6M     -0.929833
     23 H1          1.6720    0.9060    3.8410 hn        1 U6M      0.252000
     24 H2          1.5930   -3.2130    3.4770 ha        1 U6M      0.156000
     25 H5          0.7460   -4.2100    1.4450 ha        1 U6M      0.107000
     26 H6         -0.6550   -3.5540    1.0320 ha        1 U6M      0.107000
     27 H7          0.6410   -3.3100    0.1250 ha        1 U6M      0.107000
     28 H8         -0.5360   -1.6570   -0.2240 h2        1 U6M      0.093000
     29 H9         -1.4180    0.4590    1.1450 h1        1 U6M      0.141000
     30 H10        -3.2390   -0.7170    1.0560 ho        1 U6M      0.231000
     31 H11        -1.9580    1.6130   -0.6870 h1        1 U6M      0.150000
     32 H12        -3.4890    0.5740   -1.4460 ho        1 U6M      0.322000
     33 H13        -0.4780    0.0350   -2.5000 h1        1 U6M      0.111000
     34 H14         0.3860    2.5100   -1.3980 h1        1 U6M      0.042500
     35 H15        -0.7470    2.4890   -2.5270 h1        1 U6M      0.042500
@<TRIPOS>BOND
     1    1    2 1   
     2    2    3 1   
     3    3    4 1   
     4    3   23 1   
     5    4    5 1   
     6    6    7 1   
     7    6   24 1   
     8    7    9 1   
     9    8   25 1   
    10    8   26 1   
    11    8   27 1   
    12    9   10 1   
    13   10   11 1   
    14   10   12 1   
    15   10   28 1   
    16   11   16 1   
    17   12   13 1   
    18   12   14 1   
    19   12   29 1   
    20   13   30 1   
    21   14   15 1   
    22   14   16 1   
    23   14   31 1   
    24   15   32 1   
    25   16   17 1   
    26   16   33 1   
    27   17   18 1   
    28   17   34 1   
    29   17   35 1   
    30   18   19 1   
    31   19   20 1   
    32   19   21 1   
    33   19   22 1   
@<TRIPOS>SUBSTRUCTURE
     1 U6M         1 TEMP              0 ****  ****    0 ROOT
