@<TRIPOS>MOLECULE
U73
   33    34     1     0     0
SMALL
bcc


@<TRIPOS>ATOM
      1 O11         0.2600   -2.2960   -0.4250 o         1 U73     -0.603100
      2 C10        -0.4640   -1.4380   -0.9700 c         1 U73      0.707500
      3 N9         -0.9410   -0.2900   -0.3310 ne        1 U73     -0.774100
      4 C3         -0.6130   -0.0000    0.9130 cd        1 U73      0.676100
      5 N4         -1.0910    1.1570    1.5450 na        1 U73     -0.686000
      6 C5         -0.6270    1.2960    2.8510 cc        1 U73      0.019000
      7 S2          0.4090   -0.8810    2.0410 ss        1 U73      0.005200
      8 C1          0.1920    0.2820    3.2700 cd        1 U73     -0.148600
      9 C6          0.8130    0.1940    4.6110 c3        1 U73      0.010500
     10 C8          0.3760   -1.0680    5.3340 c3        1 U73     -0.092100
     11 C7          2.3270    0.2520    4.5160 c3        1 U73     -0.092100
     12 C12        -0.9070   -1.6130   -2.4150 c3        1 U73     -0.080100
     13 C13        -0.3950   -0.5320   -3.2920 ca        1 U73     -0.191600
     14 C14         0.7420   -0.7190   -4.0880 ca        1 U73     -0.086000
     15 C15         1.1730    0.3230   -4.9100 ca        1 U73     -0.249300
     16 C16         0.4450    1.5260   -4.9080 ca        1 U73      0.392200
     17 N17        -0.6520    1.7280   -4.1490 nb        1 U73     -0.671000
     18 C18        -1.0550    0.7150   -3.3620 ca        1 U73      0.416200
     19 H4         -1.6730    1.8220    1.0960 hn        1 U73      0.474800
     20 H5         -0.9430    2.1770    3.4250 h4        1 U73      0.181000
     21 H6          0.4670    1.0820    5.2180 hc        1 U73      0.052700
     22 H8C1        0.8410   -1.1030    6.3490 hc        1 U73      0.041367
     23 H8C2       -0.7340   -1.0890    5.4490 hc        1 U73      0.041367
     24 H8C3        0.6920   -1.9760    4.7660 hc        1 U73      0.041367
     25 H7C1        2.7180   -0.6110    3.9240 hc        1 U73      0.041367
     26 H7C2        2.6520    1.1980    4.0220 hc        1 U73      0.041367
     27 H7C3        2.7720    0.2110    5.5400 hc        1 U73      0.041367
     28 H121       -0.5280   -2.6120   -2.7620 hc        1 U73      0.076700
     29 H122       -2.0300   -1.6360   -2.4470 hc        1 U73      0.076700
     30 H14         1.2890   -1.6730   -4.0620 ha        1 U73      0.142000
     31 H15         2.0600    0.2110   -5.5460 ha        1 U73      0.142000
     32 H16         0.7510    2.3750   -5.5440 h4        1 U73      0.019100
     33 H18        -1.9500    0.9070   -2.7420 h4        1 U73      0.032100
@<TRIPOS>BOND
     1    1    2 2   
     2    2    3 1   
     3    2   12 1   
     4    3    4 2   
     5    4    5 1   
     6    4    7 1   
     7    5    6 1   
     8    5   19 1   
     9    6    8 2   
    10    6   20 1   
    11    7    8 1   
    12    8    9 1   
    13    9   10 1   
    14    9   11 1   
    15    9   21 1   
    16   10   22 1   
    17   10   23 1   
    18   10   24 1   
    19   11   25 1   
    20   11   26 1   
    21   11   27 1   
    22   12   13 1   
    23   12   28 1   
    24   12   29 1   
    25   13   14 ar  
    26   13   18 ar  
    27   14   15 ar  
    28   14   30 1   
    29   15   16 ar  
    30   15   31 1   
    31   16   17 ar  
    32   16   32 1   
    33   17   18 ar  
    34   18   33 1   
@<TRIPOS>SUBSTRUCTURE
     1 U73         1 TEMP              0 ****  ****    0 ROOT
