@<TRIPOS>MOLECULE
U73
   33    34     1     0     0
SMALL
bcc


@<TRIPOS>ATOM
      1 O11        -0.1790    2.2800    0.3700 o         1 U73     -0.603100
      2 C10         0.6220    1.4220   -0.0570 c         1 U73      0.707500
      3 N9          1.0100    0.2840    0.6560 ne        1 U73     -0.774100
      4 C3          0.5110    0.0040    1.8440 cd        1 U73      0.676100
      5 N4          0.9020   -1.1430    2.5510 na        1 U73     -0.686000
      6 C5          0.2590   -1.2720    3.7790 cc        1 U73      0.019000
      7 S2         -0.6670    0.8880    2.8050 ss        1 U73      0.005200
      8 C1         -0.6180   -0.2600    4.0660 cd        1 U73     -0.148600
      9 C6         -1.4230   -0.1640    5.3040 c3        1 U73      0.010500
     10 C8         -1.0960    1.1040    6.0730 c3        1 U73     -0.092100
     11 C7         -2.9090   -0.2260    4.9960 c3        1 U73     -0.092100
     12 C12         1.2630    1.5860   -1.4260 c3        1 U73     -0.080100
     13 C13         0.8890    0.4930   -2.3550 ca        1 U73     -0.191600
     14 C14        -0.1250    0.6620   -3.3060 ca        1 U73     -0.086000
     15 C15        -0.4280   -0.3920   -4.1700 ca        1 U73     -0.249300
     16 C16         0.3010   -1.5890   -4.0510 ca        1 U73      0.392200
     17 N17         1.2800   -1.7740   -3.1420 nb        1 U73     -0.671000
     18 C18         1.5600   -0.7500   -2.3170 ca        1 U73      0.416200
     19 H4          1.5470   -1.8070    2.1960 hn        1 U73      0.474800
     20 H5          0.4960   -2.1440    4.4010 h4        1 U73      0.181000
     21 H6         -1.1660   -1.0460    5.9610 hc        1 U73      0.052700
     22 H8C1       -1.7000    1.1450    7.0110 hc        1 U73      0.041367
     23 H8C2       -0.0130    1.1290    6.3430 hc        1 U73      0.041367
     24 H8C3       -1.3300    2.0080    5.4590 hc        1 U73      0.041367
     25 H7C1       -3.1590   -1.1770    4.4690 hc        1 U73      0.041367
     26 H7C2       -3.2130    0.6300    4.3470 hc        1 U73      0.041367
     27 H7C3       -3.4940   -0.1780    5.9460 hc        1 U73      0.041367
     28 H121        0.9310    2.5790   -1.8350 hc        1 U73      0.076700
     29 H122        2.3790    1.6180   -1.2990 hc        1 U73      0.076700
     30 H14        -0.6770    1.6120   -3.3690 ha        1 U73      0.142000
     31 H15        -1.2170   -0.2930   -4.9260 ha        1 U73      0.142000
     32 H16         0.0940   -2.4460   -4.7150 h4        1 U73      0.019100
     33 H18         2.3600   -0.9280   -1.5740 h4        1 U73      0.032100
@<TRIPOS>BOND
     1    1    2 2   
     2    2    3 1   
     3    2   12 1   
     4    3    4 2   
     5    4    5 1   
     6    4    7 1   
     7    5    6 1   
     8    5   19 1   
     9    6    8 2   
    10    6   20 1   
    11    7    8 1   
    12    8    9 1   
    13    9   10 1   
    14    9   11 1   
    15    9   21 1   
    16   10   22 1   
    17   10   23 1   
    18   10   24 1   
    19   11   25 1   
    20   11   26 1   
    21   11   27 1   
    22   12   13 1   
    23   12   28 1   
    24   12   29 1   
    25   13   14 ar  
    26   13   18 ar  
    27   14   15 ar  
    28   14   30 1   
    29   15   16 ar  
    30   15   31 1   
    31   16   17 ar  
    32   16   32 1   
    33   17   18 ar  
    34   18   33 1   
@<TRIPOS>SUBSTRUCTURE
     1 U73         1 TEMP              0 ****  ****    0 ROOT
