@<TRIPOS>MOLECULE
U73
   33    34     1     0     0
SMALL
bcc


@<TRIPOS>ATOM
      1 O11        -0.2740    2.2610    0.3190 o         1 U73     -0.603100
      2 C10         0.5670    1.4300   -0.0860 c         1 U73      0.707500
      3 N9          1.0050    0.3300    0.6560 ne        1 U73     -0.774100
      4 C3          0.5160    0.0560    1.8490 cd        1 U73      0.676100
      5 N4          0.9570   -1.0540    2.5840 na        1 U73     -0.686000
      6 C5          0.3160   -1.1830    3.8140 cc        1 U73      0.019000
      7 S2         -0.7040    0.9080    2.7860 ss        1 U73      0.005200
      8 C1         -0.6070   -0.2060    4.0740 cd        1 U73     -0.148600
      9 C6         -1.4210   -0.1170    5.3080 c3        1 U73      0.010500
     10 C8         -1.1870    1.2010    6.0240 c3        1 U73     -0.092600
     11 C7         -2.8970   -0.2970    5.0020 c3        1 U73     -0.092600
     12 C12         1.2040    1.5900   -1.4580 c3        1 U73     -0.080100
     13 C13         0.8810    0.4590   -2.3610 ca        1 U73     -0.191600
     14 C14        -0.1370    0.5590   -3.3170 ca        1 U73     -0.086000
     15 C15        -0.3890   -0.5280   -4.1550 ca        1 U73     -0.249300
     16 C16         0.3920   -1.6870   -4.0060 ca        1 U73      0.392200
     17 N17         1.3760   -1.8060   -3.0920 nb        1 U73     -0.671000
     18 C18         1.6080   -0.7510   -2.2910 ca        1 U73      0.416200
     19 H4          1.6330   -1.6960    2.2480 hn        1 U73      0.474800
     20 H5          0.5920   -2.0270    4.4580 h4        1 U73      0.181000
     21 H6         -1.1030   -0.9520    6.0000 hc        1 U73      0.052700
     22 H8C1       -1.7980    1.2380    6.9580 hc        1 U73      0.041533
     23 H8C2       -0.1100    1.3120    6.2970 hc        1 U73      0.041533
     24 H8C3       -1.4790    2.0600    5.3730 hc        1 U73      0.041533
     25 H7C1       -3.0770   -1.2830    4.5100 hc        1 U73      0.041533
     26 H7C2       -3.2600    0.5110    4.3220 hc        1 U73      0.041533
     27 H7C3       -3.4870   -0.2570    5.9490 hc        1 U73      0.041533
     28 H121        0.8280    2.5570   -1.8910 hc        1 U73      0.076700
     29 H122        2.3170    1.6750   -1.3300 hc        1 U73      0.076700
     30 H14        -0.7300    1.4810   -3.4030 ha        1 U73      0.142000
     31 H15        -1.1800   -0.4830   -4.9150 ha        1 U73      0.142000
     32 H16         0.2260   -2.5690   -4.6490 h4        1 U73      0.019100
     33 H18         2.4130   -0.8750   -1.5430 h4        1 U73      0.032100
@<TRIPOS>BOND
     1    1    2 2   
     2    2    3 1   
     3    2   12 1   
     4    3    4 2   
     5    4    5 1   
     6    4    7 1   
     7    5    6 1   
     8    5   19 1   
     9    6    8 2   
    10    6   20 1   
    11    7    8 1   
    12    8    9 1   
    13    9   10 1   
    14    9   11 1   
    15    9   21 1   
    16   10   22 1   
    17   10   23 1   
    18   10   24 1   
    19   11   25 1   
    20   11   26 1   
    21   11   27 1   
    22   12   13 1   
    23   12   28 1   
    24   12   29 1   
    25   13   14 ar  
    26   13   18 ar  
    27   14   15 ar  
    28   14   30 1   
    29   15   16 ar  
    30   15   31 1   
    31   16   17 ar  
    32   16   32 1   
    33   17   18 ar  
    34   18   33 1   
@<TRIPOS>SUBSTRUCTURE
     1 U73         1 TEMP              0 ****  ****    0 ROOT
