@<TRIPOS>MOLECULE
U7E
   23    24     1     0     0
SMALL
bcc


@<TRIPOS>ATOM
      1 O1         -0.1230   -0.0290   -0.1640 o         1 U7E     -0.558800
      2 S           1.1860    0.3270    0.0760 sy        1 U7E      1.488200
      3 O           1.7370    0.2990    1.3370 o         1 U7E     -0.558800
      4 N4          2.0910   -1.1720   -0.7010 n4        1 U7E     -0.790500
      5 C           1.7660    1.4600   -0.9040 ca        1 U7E     -0.541500
      6 C5          0.9850    1.9750   -1.9640 ca        1 U7E      0.020000
      7 C4          1.4610    2.9980   -2.7710 ca        1 U7E     -0.139000
      8 C3          2.7350    3.5310   -2.5570 ca        1 U7E      0.007000
      9 C2          3.5310    3.0360   -1.5120 ca        1 U7E     -0.129500
     10 C1          3.0400    2.0220   -0.6860 ca        1 U7E      0.038000
     11 C6          4.8830    3.5200   -1.2890 cc        1 U7E      0.390000
     12 N3          5.3890    4.8100   -1.5480 na        1 U7E     -0.155400
     13 N2          6.6820    4.8170   -1.2060 nc        1 U7E     -0.146800
     14 N1          6.9840    3.6430   -0.7720 nd        1 U7E     -0.020000
     15 N           5.9520    2.8120   -0.7930 nd        1 U7E     -0.354000
     16 H41N        1.4180   -1.8520   -1.0510 hn        1 U7E      0.460133
     17 H42N        2.6660   -1.6400    0.0000 hn        1 U7E      0.460133
     18 H5         -0.0280    1.5620   -2.1420 ha        1 U7E      0.179000
     19 H1          3.6580    1.6620    0.1610 ha        1 U7E      0.188000
     20 H4          0.8320    3.3930   -3.5880 ha        1 U7E      0.184000
     21 H3          3.1100    4.3320   -3.2170 ha        1 U7E      0.171000
     22 HA          4.9190    5.6190   -1.8880 hn        1 U7E      0.347700
     23 H43         2.6980   -0.9090   -1.4720 hn        1 U7E      0.460133
@<TRIPOS>BOND
     1    1    2 2   
     2    2    3 2   
     3    2    4 1   
     4    2    5 1   
     5    4   16 1   
     6    4   17 1   
     7    4   23 1   
     8    5    6 ar  
     9    5   10 ar  
    10    6    7 ar  
    11    6   18 1   
    12    7    8 ar  
    13    7   20 1   
    14    8    9 ar  
    15    8   21 1   
    16    9   10 ar  
    17    9   11 1   
    18   10   19 1   
    19   11   12 1   
    20   11   15 2   
    21   12   13 1   
    22   12   22 1   
    23   13   14 2   
    24   14   15 1   
@<TRIPOS>SUBSTRUCTURE
     1 U7E         1 TEMP              0 ****  ****    0 ROOT
