@<TRIPOS>MOLECULE
U7E
   23    24     1     0     0
SMALL
bcc


@<TRIPOS>ATOM
      1 O1         -0.1130   -0.0390   -0.1580 o         1 U7E     -0.558800
      2 S           1.1950    0.3210    0.0800 sy        1 U7E      1.488200
      3 O           1.7480    0.2980    1.3400 o         1 U7E     -0.558800
      4 N4          2.1030   -1.1780   -0.6940 nz        1 U7E     -0.790500
      5 C           1.7710    1.4530   -0.9050 ca        1 U7E     -0.541500
      6 C5          0.9870    1.9620   -1.9650 ca        1 U7E      0.020000
      7 C4          1.4600    2.9850   -2.7760 ca        1 U7E     -0.139000
      8 C3          2.7330    3.5210   -2.5650 ca        1 U7E      0.007000
      9 C2          3.5310    3.0310   -1.5200 ca        1 U7E     -0.129500
     10 C1          3.0440    2.0190   -0.6900 ca        1 U7E      0.038000
     11 C6          4.8820    3.5190   -1.3000 cc        1 U7E      0.390000
     12 N3          5.3850    4.8090   -1.5630 na        1 U7E     -0.155400
     13 N2          6.6780    4.8200   -1.2220 nc        1 U7E     -0.146800
     14 N1          6.9840    3.6490   -0.7860 nd        1 U7E     -0.020000
     15 N           5.9530    2.8150   -0.8030 nd        1 U7E     -0.354000
     16 H41N        1.4310   -1.8610   -1.0420 hn        1 U7E      0.460133
     17 H42N        2.6790   -1.6430    0.0080 hn        1 U7E      0.460133
     18 H5         -0.0240    1.5460   -2.1410 ha        1 U7E      0.179000
     19 H1          3.6640    1.6630    0.1580 ha        1 U7E      0.188000
     20 H4          0.8290    3.3760   -3.5940 ha        1 U7E      0.184000
     21 H3          3.1050    4.3220   -3.2280 ha        1 U7E      0.171000
     22 HA          4.9130    5.6170   -1.9040 hn        1 U7E      0.347700
     23 H43         2.7090   -0.9150   -1.4660 hn        1 U7E      0.460133
@<TRIPOS>BOND
     1    1    2 2   
     2    2    3 2   
     3    2    4 1   
     4    2    5 1   
     5    4   16 1   
     6    4   17 1   
     7    4   23 1   
     8    5    6 ar  
     9    5   10 ar  
    10    6    7 ar  
    11    6   18 1   
    12    7    8 ar  
    13    7   20 1   
    14    8    9 ar  
    15    8   21 1   
    16    9   10 ar  
    17    9   11 1   
    18   10   19 1   
    19   11   12 1   
    20   11   15 2   
    21   12   13 1   
    22   12   22 1   
    23   13   14 2   
    24   14   15 1   
@<TRIPOS>SUBSTRUCTURE
     1 U7E         1 TEMP              0 ****  ****    0 ROOT
