@<TRIPOS>MOLECULE
U85
   59    63     1     0     0
SMALL
bcc


@<TRIPOS>ATOM
      1 C1         -8.7560    3.1770    0.5610 c3        1 U85     -0.002400
      2 N1         -7.6030    2.8380   -0.2370 nh        1 U85     -0.227100
      3 C2         -7.1410    3.7760   -1.2330 c3        1 U85     -0.002400
      4 C3         -6.9590    1.6560   -0.0530 cc        1 U85      0.431900
      5 C4         -5.8090    1.2830   -0.8290 cc        1 U85     -0.329600
      6 C5         -5.1790    0.0730   -0.6140 cd        1 U85      0.121500
      7 C6         -7.3870    0.6990    0.9310 cc        1 U85     -0.329600
      8 C7         -6.7090   -0.4930    1.0930 cd        1 U85      0.121500
      9 N2         -5.6120   -0.8200    0.3340 na        1 U85     -0.434200
     10 C8         -4.9350   -2.1110    0.5210 c3        1 U85      0.245100
     11 C9         -3.4480   -2.0340    0.3960 ca        1 U85     -0.170300
     12 C10        -2.6690   -1.6360    1.4870 ca        1 U85     -0.104500
     13 C11        -1.2820   -1.6040    1.3810 ca        1 U85     -0.119000
     14 C12        -2.8260   -2.4090   -0.8010 ca        1 U85     -0.104500
     15 C13        -1.4380   -2.3770   -0.9060 ca        1 U85     -0.119000
     16 C14        -0.6510   -1.9700    0.1820 cp        1 U85      0.016000
     17 C15         0.8050   -1.9200    0.0640 cp        1 U85     -0.060000
     18 C16         1.4010   -1.4510   -1.1150 ca        1 U85     -0.114000
     19 C17         2.7880   -1.3870   -1.2260 ca        1 U85     -0.101500
     20 C18         1.6200   -2.3330    1.1280 ca        1 U85     -0.114000
     21 C19         3.0060   -2.2730    1.0140 ca        1 U85     -0.101500
     22 C20         3.5960   -1.7980   -0.1610 ca        1 U85     -0.102300
     23 C21         5.0920   -1.7470   -0.2950 c3        1 U85      0.076600
     24 N3          5.6800   -0.4820    0.1010 na        1 U85     -0.193900
     25 C22         5.7270    0.6050   -0.7680 cc        1 U85     -0.022300
     26 N4          5.3210    0.7560   -2.0630 nd        1 U85     -0.438300
     27 C23         5.6760    2.0880   -2.3480 cd        1 U85      0.531200
     28 N5          6.2670    2.7900   -1.3460 nc        1 U85     -0.580100
     29 C24         6.3280    1.8810   -0.2930 cc        1 U85     -0.174900
     30 C25         6.8240    1.9660    1.0310 cd        1 U85      0.780200
     31 N6          7.3720    3.1160    1.5120 nh        1 U85     -0.934500
     32 N7          6.7280    0.8350    1.8560 nd        1 U85     -0.770000
     33 C26         6.1810   -0.2700    1.3730 cc        1 U85      0.577400
     34 H1         -9.5690    2.4160    0.4090 h1        1 U85      0.071367
     35 H2         -8.4770    3.2080    1.6500 h1        1 U85      0.071367
     36 H3         -9.1490    4.1850    0.2620 h1        1 U85      0.071367
     37 H4         -7.7930    4.6890   -1.2330 h1        1 U85      0.071367
     38 H5         -6.0840    4.0880   -1.0090 h1        1 U85      0.071367
     39 H6         -7.1800    3.3060   -2.2530 h1        1 U85      0.071367
     40 H7         -5.4080    1.9520   -1.6070 ha        1 U85      0.184500
     41 H8         -4.2840   -0.2280   -1.2000 h4        1 U85      0.200500
     42 H9         -8.2600    0.8970    1.5730 ha        1 U85      0.184500
     43 H10        -7.0350   -1.2360    1.8510 h4        1 U85      0.200500
     44 H12        -5.2070   -2.4990    1.5460 h1        1 U85      0.089200
     45 H13        -5.3540   -2.8200   -0.2530 h1        1 U85      0.089200
     46 H14        -3.1490   -1.3530    2.4360 ha        1 U85      0.137500
     47 H15        -0.6730   -1.2850    2.2430 ha        1 U85      0.156000
     48 H16        -3.4290   -2.7460   -1.6580 ha        1 U85      0.137500
     49 H17        -0.9530   -2.6850   -1.8460 ha        1 U85      0.156000
     50 H18         0.7730   -1.1180   -1.9550 ha        1 U85      0.137500
     51 H19         3.2490   -1.0030   -2.1520 ha        1 U85      0.155500
     52 H20         1.1640   -2.7160    2.0540 ha        1 U85      0.137500
     53 H21         3.6360   -2.6040    1.8530 ha        1 U85      0.155500
     54 H22         5.5510   -2.5620    0.3370 h1        1 U85      0.083700
     55 H23         5.3740   -1.9340   -1.3740 h1        1 U85      0.083700
     56 H24         5.4790    2.5140   -3.3380 h5        1 U85      0.060800
     57 H25         7.4710    3.8880    0.8960 hn        1 U85      0.458300
     58 H26         7.7550    3.1620    2.4240 hn        1 U85      0.458300
     59 H27         6.1330   -1.1370    2.0700 h5        1 U85      0.053100
@<TRIPOS>BOND
     1    1    2 1   
     2    1   34 1   
     3    1   35 1   
     4    1   36 1   
     5    2    3 1   
     6    2    4 2   
     7    3   37 1   
     8    3   38 1   
     9    3   39 1   
    10    4    5 1   
    11    4    7 1   
    12    5    6 2   
    13    5   40 1   
    14    6    9 1   
    15    6   41 1   
    16    7    8 2   
    17    7   42 1   
    18    8    9 1   
    19    8   43 1   
    20    9   10 1   
    21   10   11 1   
    22   10   44 1   
    23   10   45 1   
    24   11   12 ar  
    25   11   14 ar  
    26   12   13 ar  
    27   12   46 1   
    28   13   16 ar  
    29   13   47 1   
    30   14   15 ar  
    31   14   48 1   
    32   15   16 ar  
    33   15   49 1   
    34   16   17 1   
    35   17   18 ar  
    36   17   20 ar  
    37   18   19 ar  
    38   18   50 1   
    39   19   22 ar  
    40   19   51 1   
    41   20   21 ar  
    42   20   52 1   
    43   21   22 ar  
    44   21   53 1   
    45   22   23 1   
    46   23   24 1   
    47   23   54 1   
    48   23   55 1   
    49   24   25 1   
    50   24   33 1   
    51   25   26 2   
    52   25   29 1   
    53   26   27 1   
    54   27   28 2   
    55   27   56 1   
    56   28   29 1   
    57   29   30 2   
    58   30   31 1   
    59   30   32 1   
    60   31   57 1   
    61   31   58 1   
    62   32   33 2   
    63   33   59 1   
@<TRIPOS>SUBSTRUCTURE
     1 U85         1 TEMP              0 ****  ****    0 ROOT
