@<TRIPOS>MOLECULE
U85
   59    63     1     0     0
SMALL
bcc


@<TRIPOS>ATOM
      1 C1          0.5920    1.3100    0.5710 c3        1 U85     -0.002400
      2 N1          1.7110    0.4490    0.2710 nh        1 U85     -0.227100
      3 C2          2.3690   -0.2450    1.3520 c3        1 U85     -0.002400
      4 C3          2.1370    0.2910   -1.0090 cc        1 U85      0.431900
      5 C4          3.2480   -0.5560   -1.3460 cc        1 U85     -0.329600
      6 C5          3.6530   -0.6940   -2.6590 cd        1 U85      0.121500
      7 C6          1.5050    0.9620   -2.1120 cc        1 U85     -0.329600
      8 C7          1.9620    0.7780   -3.4020 cd        1 U85      0.121500
      9 N2          3.0280   -0.0390   -3.6910 na        1 U85     -0.434200
     10 C8          3.5000   -0.1860   -5.0750 c3        1 U85      0.245100
     11 C9          3.9400   -1.5730   -5.4160 ca        1 U85     -0.170300
     12 C10         3.0000   -2.5380   -5.7920 ca        1 U85     -0.104500
     13 C11         3.4150   -3.8180   -6.1480 ca        1 U85     -0.119000
     14 C12         5.3010   -1.8970   -5.4080 ca        1 U85     -0.104500
     15 C13         5.7170   -3.1760   -5.7660 ca        1 U85     -0.119000
     16 C14         4.7780   -4.1530   -6.1340 cp        1 U85      0.016000
     17 C15         5.2140   -5.5010   -6.4920 cp        1 U85     -0.060000
     18 C16         6.2400   -6.1250   -5.7690 ca        1 U85     -0.114000
     19 C17         6.6490   -7.4160   -6.0950 ca        1 U85     -0.101500
     20 C18         4.6080   -6.1870   -7.5540 ca        1 U85     -0.114000
     21 C19         5.0200   -7.4760   -7.8820 ca        1 U85     -0.101500
     22 C20         6.0390   -8.0970   -7.1540 ca        1 U85     -0.102300
     23 C21         6.4980   -9.4810   -7.5150 c3        1 U85      0.076600
     24 N3          5.8120  -10.5390   -6.7990 na        1 U85     -0.193900
     25 C22         6.1970  -10.9200   -5.5160 cc        1 U85     -0.022300
     26 N4          7.2020  -10.4890   -4.6990 nd        1 U85     -0.438300
     27 C23         7.0460  -11.2970   -3.5580 cd        1 U85      0.531200
     28 N5          6.0280  -12.1970   -3.5820 nc        1 U85     -0.580100
     29 C24         5.4390  -12.0010   -4.8290 cc        1 U85     -0.174900
     30 C25         4.3400  -12.6060   -5.4850 cd        1 U85      0.780200
     31 N6          3.6110  -13.5910   -4.8910 nv        1 U85     -0.934500
     32 N7          4.0000  -12.1610   -6.7720 nd        1 U85     -0.770000
     33 C26         4.7150  -11.1930   -7.3270 cc        1 U85      0.577400
     34 H1          0.3940    1.3130    1.6760 h1        1 U85      0.071367
     35 H2          0.8150    2.3610    0.2430 h1        1 U85      0.071367
     36 H3         -0.3300    0.9440    0.0420 h1        1 U85      0.071367
     37 H4          3.4500    0.0610    1.4070 h1        1 U85      0.071367
     38 H5          1.8750    0.0060    2.3280 h1        1 U85      0.071367
     39 H6          2.3070   -1.3570    1.1940 h1        1 U85      0.071367
     40 H7          3.7950   -1.1110   -0.5680 ha        1 U85      0.184500
     41 H8          4.5050   -1.3510   -2.9380 h4        1 U85      0.200500
     42 H9          0.6460    1.6330   -1.9510 ha        1 U85      0.184500
     43 H10         1.4790    1.2940   -4.2570 h4        1 U85      0.200500
     44 H12         4.3560    0.5380   -5.2120 h1        1 U85      0.089200
     45 H13         2.6580    0.1210   -5.7620 h1        1 U85      0.089200
     46 H14         1.9280   -2.2880   -5.8130 ha        1 U85      0.137500
     47 H15         2.6700   -4.5750   -6.4390 ha        1 U85      0.156000
     48 H16         6.0510   -1.1380   -5.1370 ha        1 U85      0.137500
     49 H17         6.7910   -3.4230   -5.7700 ha        1 U85      0.156000
     50 H18         6.7210   -5.5990   -4.9290 ha        1 U85      0.137500
     51 H19         7.4480   -7.9050   -5.5120 ha        1 U85      0.155500
     52 H20         3.8100   -5.7040   -8.1370 ha        1 U85      0.137500
     53 H21         4.5400   -8.0040   -8.7200 ha        1 U85      0.155500
     54 H22         6.3460   -9.6480   -8.6210 h1        1 U85      0.083700
     55 H23         7.6030   -9.5750   -7.2910 h1        1 U85      0.083700
     56 H24         7.7260  -11.1910   -2.7050 h5        1 U85      0.060800
     57 H25         3.8980  -13.9210   -4.0000 hn        1 U85      0.458300
     58 H26         2.8690  -14.0420   -5.3680 hn        1 U85      0.458300
     59 H27         4.4030  -10.8810   -8.3500 h5        1 U85      0.053100
@<TRIPOS>BOND
     1    1    2 1   
     2    1   34 1   
     3    1   35 1   
     4    1   36 1   
     5    2    3 1   
     6    2    4 2   
     7    3   37 1   
     8    3   38 1   
     9    3   39 1   
    10    4    5 1   
    11    4    7 1   
    12    5    6 2   
    13    5   40 1   
    14    6    9 1   
    15    6   41 1   
    16    7    8 2   
    17    7   42 1   
    18    8    9 1   
    19    8   43 1   
    20    9   10 1   
    21   10   11 1   
    22   10   44 1   
    23   10   45 1   
    24   11   12 ar  
    25   11   14 ar  
    26   12   13 ar  
    27   12   46 1   
    28   13   16 ar  
    29   13   47 1   
    30   14   15 ar  
    31   14   48 1   
    32   15   16 ar  
    33   15   49 1   
    34   16   17 1   
    35   17   18 ar  
    36   17   20 ar  
    37   18   19 ar  
    38   18   50 1   
    39   19   22 ar  
    40   19   51 1   
    41   20   21 ar  
    42   20   52 1   
    43   21   22 ar  
    44   21   53 1   
    45   22   23 1   
    46   23   24 1   
    47   23   54 1   
    48   23   55 1   
    49   24   25 1   
    50   24   33 1   
    51   25   26 2   
    52   25   29 1   
    53   26   27 1   
    54   27   28 2   
    55   27   56 1   
    56   28   29 1   
    57   29   30 2   
    58   30   31 1   
    59   30   32 1   
    60   31   57 1   
    61   31   58 1   
    62   32   33 2   
    63   33   59 1   
@<TRIPOS>SUBSTRUCTURE
     1 U85         1 TEMP              0 ****  ****    0 ROOT
