@<TRIPOS>MOLECULE
U85
   61    65     1     0     0
SMALL
bcc


@<TRIPOS>ATOM
      1 C1         -0.2560    1.7740   -0.5310 c3        1 U85      0.082100
      2 N1          1.1900    2.0350   -0.2540 n4        1 U85     -0.569800
      3 C2          1.5580    1.5940    1.1270 c3        1 U85      0.082100
      4 C3          2.0530    1.4030   -1.2670 ca        1 U85      0.073600
      5 C4          2.0740    0.0090   -1.4420 ca        1 U85     -0.126000
      6 C5          2.9160   -0.5490   -2.4220 ca        1 U85      0.000700
      7 C6          2.8790    2.2020   -2.0820 ca        1 U85     -0.126000
      8 C7          3.6950    1.5850   -3.0400 ca        1 U85      0.000700
      9 N2          3.7130    0.2270   -3.2070 na        1 U85      0.062900
     10 C8          4.6210   -0.3480   -4.2400 c3        1 U85      0.054600
     11 C9          4.4810   -1.8070   -4.4810 ca        1 U85     -0.215300
     12 C10         3.5900   -2.2750   -5.4580 ca        1 U85     -0.089000
     13 C11         3.6120   -3.6110   -5.8440 ca        1 U85     -0.118000
     14 C12         5.3630   -2.7070   -3.8650 ca        1 U85     -0.089000
     15 C13         5.3880   -4.0420   -4.2570 ca        1 U85     -0.118000
     16 C14         4.5330   -4.5050   -5.2710 cp        1 U85      0.036000
     17 C15         4.6410   -5.8730   -5.7770 cp        1 U85     -0.057000
     18 C16         5.9060   -6.4440   -5.9790 ca        1 U85     -0.104500
     19 C17         6.0280   -7.7020   -6.5680 ca        1 U85     -0.096000
     20 C18         3.4970   -6.6060   -6.1260 ca        1 U85     -0.104500
     21 C19         3.6190   -7.8680   -6.7030 ca        1 U85     -0.096000
     22 C20         4.8850   -8.4110   -6.9510 ca        1 U85     -0.116300
     23 C21         5.0190   -9.6810   -7.7370 c3        1 U85      0.064600
     24 N3          5.1740  -10.9020   -6.9470 na        1 U85     -0.151900
     25 C22         6.4060  -11.3250   -6.5070 cc        1 U85      0.035700
     26 N4          7.6520  -10.7890   -6.5610 nd        1 U85     -0.406300
     27 C23         8.4650  -11.7670   -5.9440 cd        1 U85      0.677200
     28 N5          7.8440  -12.8920   -5.4930 nc        1 U85     -0.616100
     29 C24         6.5100  -12.6950   -5.8150 cc        1 U85     -0.014900
     30 C25         5.3430  -13.4220   -5.6750 cd        1 U85      0.497200
     31 N6          5.3760  -14.7640   -5.0710 n4        1 U85     -0.809300
     32 N7          4.1210  -12.9320   -6.1060 nd        1 U85     -0.688000
     33 C26         4.0920  -11.7440   -6.6990 cc        1 U85      0.559400
     34 H1         -0.5140    2.1380   -1.5630 hx        1 U85      0.123033
     35 H2         -0.4670    0.6740   -0.4480 hx        1 U85      0.123033
     36 H3         -0.8720    2.3320    0.2300 hx        1 U85      0.123033
     37 H4          2.6400    1.8260    1.3200 hx        1 U85      0.123033
     38 H5          1.3750    0.4920    1.2360 hx        1 U85      0.123033
     39 H6          0.9150    2.1550    1.8630 hx        1 U85      0.123033
     40 H7          1.4530   -0.6790   -0.8380 ha        1 U85      0.215500
     41 H8          2.9560   -1.6540   -2.5860 h4        1 U85      0.246500
     42 H9          2.9170    3.3070   -2.0030 ha        1 U85      0.215500
     43 H10         4.3600    2.1940   -3.6990 h4        1 U85      0.246500
     44 H12         5.6720   -0.1080   -3.8920 h1        1 U85      0.120700
     45 H13         4.4080    0.2220   -5.1950 h1        1 U85      0.120700
     46 H14         2.8950   -1.5800   -5.9570 ha        1 U85      0.145500
     47 H15         2.9270   -3.9630   -6.6340 ha        1 U85      0.168500
     48 H16         6.0690   -2.3570   -3.0950 ha        1 U85      0.145500
     49 H17         6.0990   -4.7380   -3.7810 ha        1 U85      0.168500
     50 H18         6.8150   -5.8870   -5.7020 ha        1 U85      0.148500
     51 H19         7.0310   -8.1230   -6.7500 ha        1 U85      0.158500
     52 H20         2.4960   -6.1830   -5.9520 ha        1 U85      0.148500
     53 H21         2.7110   -8.4230   -6.9870 ha        1 U85      0.158500
     54 H22         4.1070   -9.8150   -8.3910 h1        1 U85      0.104200
     55 H23         5.9260   -9.6010   -8.4100 h1        1 U85      0.104200
     56 H24         9.5540  -11.6070   -5.8470 h5        1 U85      0.108800
     57 H25         5.1890  -15.4710   -5.7960 hn        1 U85      0.483467
     58 H26         6.3090  -14.9280   -4.6660 hn        1 U85      0.483467
     59 H27         3.0930  -11.3880   -7.0450 h5        1 U85      0.095100
     60 H11         1.3390    3.0590   -0.3060 hn        1 U85      0.477800
     61 H63         4.6610  -14.8440   -4.3360 hn        1 U85      0.483467
@<TRIPOS>BOND
     1    1    2 1   
     2    1   34 1   
     3    1   35 1   
     4    1   36 1   
     5    2    3 1   
     6    2    4 1   
     7    2   60 1   
     8    3   37 1   
     9    3   38 1   
    10    3   39 1   
    11    4    5 ar  
    12    4    7 ar  
    13    5    6 ar  
    14    5   40 1   
    15    6    9 1   
    16    6   41 1   
    17    7    8 ar  
    18    7   42 1   
    19    8    9 2   
    20    8   43 1   
    21    9   10 1   
    22   10   11 1   
    23   10   44 1   
    24   10   45 1   
    25   11   12 ar  
    26   11   14 ar  
    27   12   13 ar  
    28   12   46 1   
    29   13   16 ar  
    30   13   47 1   
    31   14   15 ar  
    32   14   48 1   
    33   15   16 ar  
    34   15   49 1   
    35   16   17 1   
    36   17   18 ar  
    37   17   20 ar  
    38   18   19 ar  
    39   18   50 1   
    40   19   22 ar  
    41   19   51 1   
    42   20   21 ar  
    43   20   52 1   
    44   21   22 ar  
    45   21   53 1   
    46   22   23 1   
    47   23   24 1   
    48   23   54 1   
    49   23   55 1   
    50   24   25 1   
    51   24   33 1   
    52   25   26 2   
    53   25   29 1   
    54   26   27 1   
    55   27   28 2   
    56   27   56 1   
    57   28   29 1   
    58   29   30 2   
    59   30   31 1   
    60   30   32 1   
    61   31   57 1   
    62   31   58 1   
    63   31   61 1   
    64   32   33 2   
    65   33   59 1   
@<TRIPOS>SUBSTRUCTURE
     1 U85         1 TEMP              0 ****  ****    0 ROOT
