@<TRIPOS>MOLECULE
U85
   59    63     1     0     0
SMALL
bcc


@<TRIPOS>ATOM
      1 C1          0.6050    1.3040    0.5810 c3        1 U85     -0.002400
      2 N1          1.7270    0.4490    0.2760 nh        1 U85     -0.227100
      3 C2          2.3960   -0.2380    1.3550 c3        1 U85     -0.002400
      4 C3          2.1460    0.2910   -1.0070 cc        1 U85      0.431900
      5 C4          3.2590   -0.5500   -1.3490 cc        1 U85     -0.329600
      6 C5          3.6560   -0.6890   -2.6640 cd        1 U85      0.121500
      7 C6          1.5020    0.9550   -2.1070 cc        1 U85     -0.329600
      8 C7          1.9520    0.7710   -3.3990 cd        1 U85      0.121500
      9 N2          3.0210   -0.0400   -3.6940 na        1 U85     -0.434200
     10 C8          3.4850   -0.1890   -5.0800 c3        1 U85      0.245100
     11 C9          3.9260   -1.5750   -5.4210 ca        1 U85     -0.170300
     12 C10         2.9860   -2.5430   -5.7900 ca        1 U85     -0.104500
     13 C11         3.4020   -3.8220   -6.1460 ca        1 U85     -0.119000
     14 C12         5.2880   -1.8960   -5.4210 ca        1 U85     -0.104500
     15 C13         5.7050   -3.1750   -5.7790 ca        1 U85     -0.119000
     16 C14         4.7660   -4.1540   -6.1400 cp        1 U85      0.016000
     17 C15         5.2030   -5.5020   -6.4970 cp        1 U85     -0.060000
     18 C16         6.2360   -6.1220   -5.7790 ca        1 U85     -0.114000
     19 C17         6.6450   -7.4120   -6.1050 ca        1 U85     -0.101500
     20 C18         4.5930   -6.1910   -7.5540 ca        1 U85     -0.114000
     21 C19         5.0060   -7.4800   -7.8820 ca        1 U85     -0.101500
     22 C20         6.0310   -8.0970   -7.1590 ca        1 U85     -0.102300
     23 C21         6.4910   -9.4810   -7.5200 c3        1 U85      0.076600
     24 N3          5.8110  -10.5390   -6.7990 na        1 U85     -0.193900
     25 C22         6.2020  -10.9160   -5.5160 cc        1 U85     -0.022300
     26 N4          7.2110  -10.4810   -4.7050 nd        1 U85     -0.438300
     27 C23         7.0610  -11.2870   -3.5610 cd        1 U85      0.531200
     28 N5          6.0450  -12.1890   -3.5790 nc        1 U85     -0.580100
     29 C24         5.4500  -11.9970   -4.8230 cc        1 U85     -0.174900
     30 C25         4.3490  -12.6060   -5.4730 cd        1 U85      0.780200
     31 N6          3.6260  -13.5920   -4.8730 nh        1 U85     -0.934500
     32 N7          4.0030  -12.1650   -6.7590 nd        1 U85     -0.770000
     33 C26         4.7120  -11.1970   -7.3200 cc        1 U85      0.577400
     34 H1          0.8190    2.3570    0.2490 h1        1 U85      0.071367
     35 H2          0.4140    1.3090    1.6870 h1        1 U85      0.071367
     36 H3         -0.3190    0.9320    0.0580 h1        1 U85      0.071367
     37 H4          1.9070    0.0130    2.3330 h1        1 U85      0.071367
     38 H5          3.4750    0.0740    1.4010 h1        1 U85      0.071367
     39 H6          2.3390   -1.3500    1.1990 h1        1 U85      0.071367
     40 H7          3.8140   -1.1010   -0.5730 ha        1 U85      0.184500
     41 H8          4.5100   -1.3420   -2.9470 h4        1 U85      0.200500
     42 H9          0.6400    1.6210   -1.9420 ha        1 U85      0.184500
     43 H10         1.4600    1.2810   -4.2530 h4        1 U85      0.200500
     44 H12         4.3380    0.5380   -5.2230 h1        1 U85      0.089200
     45 H13         2.6380    0.1160   -5.7620 h1        1 U85      0.089200
     46 H14         1.9130   -2.2950   -5.8050 ha        1 U85      0.137500
     47 H15         2.6570   -4.5820   -6.4310 ha        1 U85      0.156000
     48 H16         6.0380   -1.1340   -5.1560 ha        1 U85      0.137500
     49 H17         6.7790   -3.4190   -5.7890 ha        1 U85      0.156000
     50 H18         6.7190   -5.5930   -4.9440 ha        1 U85      0.137500
     51 H19         7.4480   -7.8990   -5.5260 ha        1 U85      0.155500
     52 H20         3.7900   -5.7110   -8.1340 ha        1 U85      0.137500
     53 H21         4.5230   -8.0110   -8.7170 ha        1 U85      0.155500
     54 H22         7.5960   -9.5720   -7.3020 h1        1 U85      0.083700
     55 H23         6.3330   -9.6500   -8.6250 h1        1 U85      0.083700
     56 H24         7.7460  -11.1780   -2.7120 h5        1 U85      0.060800
     57 H25         3.9180  -13.9200   -3.9830 hn        1 U85      0.458300
     58 H26         2.8830  -14.0460   -5.3450 hn        1 U85      0.458300
     59 H27         4.3940  -10.8870   -8.3410 h5        1 U85      0.053100
@<TRIPOS>BOND
     1    1    2 1   
     2    1   34 1   
     3    1   35 1   
     4    1   36 1   
     5    2    3 1   
     6    2    4 2   
     7    3   37 1   
     8    3   38 1   
     9    3   39 1   
    10    4    5 1   
    11    4    7 1   
    12    5    6 2   
    13    5   40 1   
    14    6    9 1   
    15    6   41 1   
    16    7    8 2   
    17    7   42 1   
    18    8    9 1   
    19    8   43 1   
    20    9   10 1   
    21   10   11 1   
    22   10   44 1   
    23   10   45 1   
    24   11   12 ar  
    25   11   14 ar  
    26   12   13 ar  
    27   12   46 1   
    28   13   16 ar  
    29   13   47 1   
    30   14   15 ar  
    31   14   48 1   
    32   15   16 ar  
    33   15   49 1   
    34   16   17 1   
    35   17   18 ar  
    36   17   20 ar  
    37   18   19 ar  
    38   18   50 1   
    39   19   22 ar  
    40   19   51 1   
    41   20   21 ar  
    42   20   52 1   
    43   21   22 ar  
    44   21   53 1   
    45   22   23 1   
    46   23   24 1   
    47   23   54 1   
    48   23   55 1   
    49   24   25 1   
    50   24   33 1   
    51   25   26 2   
    52   25   29 1   
    53   26   27 1   
    54   27   28 2   
    55   27   56 1   
    56   28   29 1   
    57   29   30 2   
    58   30   31 1   
    59   30   32 1   
    60   31   57 1   
    61   31   58 1   
    62   32   33 2   
    63   33   59 1   
@<TRIPOS>SUBSTRUCTURE
     1 U85         1 TEMP              0 ****  ****    0 ROOT
