@<TRIPOS>MOLECULE
U89
   84    81     1     0     0
SMALL
bcc


@<TRIPOS>ATOM
      1 N          -0.7070    1.8180   -0.0930 ns        1 U89     -0.311000
      2 CA          0.3610    2.4140    0.5770 c2        1 U89     -0.047000
      3 CB          0.8110    2.0350    1.7910 c2        1 U89     -0.215000
      4 CG          0.2850    0.9180    2.6010 c3        1 U89     -0.179000
      5 CD         -1.1620    1.1130    3.0500 c2        1 U89      0.332000
      6 OE1        -2.1120    0.8150    2.2550 o         1 U89     -0.594000
      7 OE2        -1.4040    1.5340    4.2200 o         1 U89     -0.594000
      8 C           2.0750   -1.3080   -0.0420 c1        1 U89      0.411000
      9 OT1         0.9910   -1.6910    0.2560 o         1 U89     -0.207000
     10 OT2         3.1710   -0.9480   -0.3410 o         1 U89     -0.207000
     11 C1        -19.0370   -2.7170   -5.1930 cy        1 U89      0.168000
     12 C2        -15.3930   -4.6920   -4.8560 c3        1 U89     -0.228000
     13 C3        -14.4750   -3.6510   -4.2680 c3        1 U89     -0.168000
     14 C4        -13.1020   -4.2600   -3.9850 c3        1 U89     -0.029000
     15 N5        -12.1540   -3.3190   -3.4450 ns        1 U89     -0.371000
     16 C6        -11.0880   -3.7180   -2.6760 c2        1 U89      0.318000
     17 O6        -10.9220   -4.9070   -2.3350 o         1 U89     -0.376000
     18 C7        -10.1280   -2.6520   -2.1860 c3        1 U89     -0.328000
     19 S          -9.7820   -1.4810   -3.4620 ss        1 U89      0.130000
     20 C8         -9.0350   -0.1410   -2.5870 c3        1 U89     -0.308000
     21 C9         -7.5170   -0.1430   -2.6190 c2        1 U89      0.307000
     22 O9         -6.9300   -0.2480   -3.7170 o         1 U89     -0.368000
     23 C11        -7.4240    0.1700   -0.1440 c3        1 U89     -0.048000
     24 C12        -7.8870   -1.1400    0.4730 c3        1 U89     -0.233000
     25 C13        -6.9360    1.4490    2.8200 c1        1 U89     -0.266000
     26 C14        -6.7110    1.8640    4.0930 c2        1 U89     -0.348000
     27 C15        -7.7800    2.2470    5.0160 c2        1 U89      0.347000
     28 O15        -9.0010    2.2570    4.7710 o         1 U89     -0.377000
     29 N16        -7.4230    2.6430    6.3360 ns        1 U89     -0.369000
     30 C17        -6.0740    2.7150    6.7030 c2        1 U89      0.262000
     31 N18        -5.7710    3.2480    7.9870 nv        1 U89     -0.332000
     32 N19        -5.0560    2.3560    5.9100 n2        1 U89     -0.313000
     33 C20        -5.3350    1.9420    4.5930 c2        1 U89      0.277000
     34 N21        -4.3130    1.6100    3.8070 nv        1 U89     -0.214000
     35 C22        -5.3750    0.0090   -1.4630 c2        1 U89      0.052000
     36 C23        -4.6500    0.6860   -2.6070 c3        1 U89     -0.012000
     37 C24        -3.3900    1.2280   -2.1870 c1        1 U89     -0.066000
     38 C25        -2.3470    1.6850   -1.8190 c1        1 U89     -0.207000
     39 C26        -3.9620   -1.1120    0.4270 c2        1 U89     -0.122000
     40 C27        -4.6850   -0.5990   -0.5180 c1        1 U89     -0.210000
     41 C28        -1.1120    2.2470   -1.3470 c2        1 U89      0.421000
     42 O28        -0.4370    3.0470   -2.0330 o         1 U89     -0.389000
     43 OP4       -18.5730   -3.9170   -5.7710 os        1 U89     -0.766500
     44 P         -20.0640   -4.2950   -6.5290 p5        1 U89      1.888000
     45 OP1       -19.9970   -4.1090   -7.9820 o         1 U89     -0.805500
     46 OP2       -20.7410   -5.4150   -5.8670 o         1 U89     -0.805500
     47 OP3       -20.3420   -2.8170   -5.7140 os        1 U89     -0.766500
     48 HN         -1.3040   -1.0750    1.0410 ha        1 U89      0.002000
     49 HA         -1.3230    1.2280    0.4510 hn        1 U89      0.291000
     50 HB1         0.8420    3.2430    0.0190 h4        1 U89      0.142000
     51 HB2         1.6460    2.6000    2.2320 ha        1 U89      0.114000
     52 HG1         0.9180    0.7870    3.5170 hc        1 U89      0.080000
     53 HG2         0.3340   -0.0360    2.0060 hc        1 U89      0.080000
     54 H11       -16.4010   -4.2520   -5.0770 hc        1 U89      0.091667
     55 H12       -18.4890   -1.8180   -5.5760 h2        1 U89      0.045000
     56 H21       -19.0180   -2.7460   -4.0740 h2        1 U89      0.045000
     57 H22       -14.9720   -5.0960   -5.8090 hc        1 U89      0.091667
     58 H31       -15.5300   -5.5430   -4.1460 hc        1 U89      0.091667
     59 H32       -14.3760   -2.7920   -4.9830 hc        1 U89      0.080000
     60 H41       -14.9190   -3.2480   -3.3210 hc        1 U89      0.080000
     61 H42       -12.6910   -4.6910   -4.9440 h1        1 U89      0.090000
     62 HN5       -13.2130   -5.1130   -3.2540 h1        1 U89      0.090000
     63 H71       -10.5820   -2.1520   -1.2930 h1        1 U89      0.133000
     64 H72        -9.1900   -3.1640   -1.8520 h1        1 U89      0.133000
     65 H81        -9.4540   -0.0870   -1.5540 h1        1 U89      0.135000
     66 H82        -9.3570    0.7800   -3.1430 h1        1 U89      0.135000
     67 H111       -8.2980    0.8790   -0.2210 h1        1 U89      0.121000
     68 H112       -6.6810    0.6480    0.5740 h1        1 U89      0.121000
     69 H121       -8.3090   -0.9190    1.4840 hc        1 U89      0.079000
     70 H122       -8.6710   -1.6400   -0.1450 hc        1 U89      0.079000
     71 H131       -7.0290   -1.8450    0.5930 hc        1 U89      0.079000
     72 H132       -7.9580    1.3860    2.4310 ha        1 U89      0.064000
     73 HN6        -8.1370    2.9690    6.9470 hn        1 U89      0.229000
     74 HN81       -6.3630    2.9150    8.7160 hn        1 U89      0.203500
     75 HN82       -4.8000    3.2060    8.2190 hn        1 U89      0.203500
     76 HN11       -3.3370    1.6360    4.0940 hn        1 U89      0.301500
     77 HN12       -4.5060    1.3020    2.8690 hn        1 U89      0.301500
     78 H23        -5.2810    1.5140   -3.0400 hc        1 U89      0.126500
     79 H24        -4.4980   -0.0710   -3.4300 hc        1 U89      0.126500
     80 H26        -3.6200   -2.1580    0.4010 ha        1 U89      0.155000
     81 H27        -3.6170   -0.5200    1.2980 ha        1 U89      0.155000
     82 HN3        -1.2970   -1.6960    0.7670 ha        1 U89      0.002000
     83 H52       -12.2010   -2.3780   -3.7610 hn        1 U89      0.234000
     84 N10        -6.7990    0.0690   -1.4480 n         1 U89     -0.267000
@<TRIPOS>BOND
     1    1    2 1   
     2    1   41 1   
     3    1   49 1   
     4    2    3 1   
     5    2   50 1   
     6    3    4 1   
     7    3   51 1   
     8    4    5 1   
     9    4   52 1   
    10    4   53 1   
    11    5    6 1   
    12    5    7 1   
    13    8    9 1   
    14    8   10 1   
    15   11   43 1   
    16   11   47 1   
    17   11   55 1   
    18   11   56 1   
    19   12   13 1   
    20   12   54 1   
    21   12   57 1   
    22   12   58 1   
    23   13   14 1   
    24   13   59 1   
    25   13   60 1   
    26   14   15 1   
    27   14   61 1   
    28   14   62 1   
    29   15   16 1   
    30   15   83 1   
    31   16   17 1   
    32   16   18 1   
    33   18   19 1   
    34   18   63 1   
    35   18   64 1   
    36   19   20 1   
    37   20   21 1   
    38   20   65 1   
    39   20   66 1   
    40   21   22 1   
    41   21   84 1   
    42   23   24 1   
    43   23   67 1   
    44   23   68 1   
    45   23   84 1   
    46   24   69 1   
    47   24   70 1   
    48   24   71 1   
    49   25   26 1   
    50   25   72 1   
    51   26   27 1   
    52   26   33 1   
    53   27   28 1   
    54   27   29 1   
    55   29   30 1   
    56   29   73 1   
    57   30   31 1   
    58   30   32 1   
    59   31   74 1   
    60   31   75 1   
    61   32   33 1   
    62   33   34 1   
    63   34   76 1   
    64   34   77 1   
    65   35   36 1   
    66   35   40 1   
    67   35   84 1   
    68   36   37 1   
    69   36   78 1   
    70   36   79 1   
    71   37   38 1   
    72   38   41 1   
    73   39   40 1   
    74   39   80 1   
    75   39   81 1   
    76   41   42 1   
    77   43   44 1   
    78   44   45 1   
    79   44   46 1   
    80   44   47 1   
    81   48   82 1   
@<TRIPOS>SUBSTRUCTURE
     1 U89         1 TEMP              0 ****  ****    0 ROOT
