@<TRIPOS>MOLECULE
U89
   82    83     1     0     0
SMALL
bcc


@<TRIPOS>ATOM
      1 N           2.1120    0.0320   -7.0660 n         1 U89     -0.476900
      2 CA          2.1450    0.0140   -8.5140 c3        1 U89     -0.026300
      3 CB          0.7310    0.0620   -9.1190 c3        1 U89     -0.071400
      4 CG         -0.1880   -1.0480   -8.6580 c3        1 U89     -0.173400
      5 CD         -1.1550   -0.6180   -7.5620 c         1 U89      0.902600
      6 OE1        -0.7330   -0.3770   -6.3870 o         1 U89     -0.878800
      7 OE2        -2.3990   -0.5380   -7.8240 o         1 U89     -0.878800
      8 C           2.9380    1.2060   -9.1530 c         1 U89      0.915600
      9 OT1         2.9070    2.3510   -8.6260 o         1 U89     -0.852300
     10 OT2         3.5500    0.9450  -10.2310 o         1 U89     -0.852300
     11 C1          1.3350   -0.6320   11.0880 c3        1 U89      0.203400
     12 C2          1.3640    0.4030    9.9560 c3        1 U89     -0.097400
     13 C3          1.0590   -0.2330    8.6170 c3        1 U89     -0.092400
     14 C4          1.0850    0.8220    7.5100 c3        1 U89      0.080000
     15 N5          0.8440    0.2960    6.1860 n         1 U89     -0.551900
     16 C6          0.0490    0.9290    5.2650 c         1 U89      0.672100
     17 O6         -0.4320    2.0660    5.4640 o         1 U89     -0.623100
     18 C7         -0.2680    0.1940    3.9740 c3        1 U89     -0.121300
     19 S           1.0560    0.3540    2.8110 ss        1 U89     -0.196200
     20 C8          0.2320   -0.3330    1.3960 c3        1 U89     -0.107300
     21 C9          1.1070   -0.3350    0.1560 c         1 U89      0.678100
     22 O9          2.2400    0.1810    0.1570 o         1 U89     -0.580100
     23 C11        -0.7640   -1.4080   -1.1060 c3        1 U89      0.092000
     24 C12        -1.6800   -0.4150   -1.8280 c3        1 U89     -0.112400
     25 C13        -2.9810   -1.1050   -2.2010 c3        1 U89      0.016800
     26 C14        -3.9810   -0.1770   -2.7760 cc        1 U89     -0.432400
     27 C15        -4.9790    0.3370   -1.8810 c         1 U89      0.726700
     28 O15        -5.1080    0.0930   -0.6580 o         1 U89     -0.702500
     29 N16        -5.9500    1.2210   -2.4260 n         1 U89     -0.504400
     30 C17        -5.9380    1.5070   -3.7940 cc        1 U89      0.639800
     31 N18        -7.0070    2.3330   -4.2960 nh        1 U89     -0.876800
     32 N19        -5.0240    1.0400   -4.6450 nd        1 U89     -0.707300
     33 C20        -4.0140    0.1750   -4.1530 cd        1 U89      0.463600
     34 N21        -3.1420   -0.3210   -5.0580 nh        1 U89     -0.776600
     35 C22         1.3260   -0.9430   -2.2160 ca        1 U89      0.034600
     36 C23         1.5850   -2.1450   -2.9080 ca        1 U89     -0.141000
     37 C24         2.0950   -2.1090   -4.2010 ca        1 U89     -0.088000
     38 C25         2.3580   -0.8870   -4.8270 ca        1 U89     -0.095600
     39 C26         2.2000    0.3010   -4.1100 ca        1 U89     -0.088000
     40 C27         1.6950    0.2790   -2.8110 ca        1 U89     -0.141000
     41 C28         2.7310   -0.8990   -6.2840 c         1 U89      0.657700
     42 O28         3.5770   -1.7320   -6.7000 o         1 U89     -0.679100
     43 OP4         1.6160   -0.0220   12.2880 os        1 U89     -0.567200
     44 P           1.5670   -1.1900   13.5770 p5        1 U89      1.313900
     45 OP1         2.6260   -2.1720   13.1440 o         1 U89     -0.938500
     46 OP2         1.8930   -0.3480   14.7810 o         1 U89     -0.938500
     47 OP3         0.1500   -1.6970   13.4830 o         1 U89     -0.938500
     48 HN          1.3290    0.5160   -6.6710 hn        1 U89      0.337500
     49 HA          2.6590   -0.9360   -8.8430 h1        1 U89      0.059700
     50 HB1         0.2700    1.0580   -8.8880 hc        1 U89      0.042200
     51 HB2         0.8650    0.0040  -10.2310 hc        1 U89      0.042200
     52 HG1        -0.7930   -1.4130   -9.5290 hc        1 U89      0.024700
     53 HG2         0.4110   -1.9140   -8.2740 hc        1 U89      0.024700
     54 H11         0.3170   -1.1150   11.1320 h1        1 U89      0.005200
     55 H12         2.0960   -1.4390   10.8810 h1        1 U89      0.005200
     56 H21         2.3730    0.8860    9.9300 hc        1 U89      0.025200
     57 H22         0.6150    1.2050   10.1780 hc        1 U89      0.025200
     58 H31         0.0520   -0.7230    8.6570 hc        1 U89      0.036200
     59 H32         1.8150   -1.0340    8.4050 hc        1 U89      0.036200
     60 H41         2.0970    1.3230    7.5060 h1        1 U89      0.051700
     61 H42         0.3140    1.6140    7.7310 h1        1 U89      0.051700
     62 HN5         1.1660   -0.6230    5.9980 hn        1 U89      0.308500
     63 H71        -1.2030    0.6470    3.5560 h1        1 U89      0.077200
     64 H72        -0.4770   -0.8860    4.1740 h1        1 U89      0.077200
     65 H81        -0.6950    0.2580    1.1790 h1        1 U89      0.080700
     66 H82        -0.0740   -1.3810    1.6430 h1        1 U89      0.080700
     67 H111       -1.1960   -1.6320   -0.0920 h1        1 U89      0.045700
     68 H112       -0.7600   -2.3750   -1.6900 h1        1 U89      0.045700
     69 H121       -1.1790   -0.0260   -2.7540 hc        1 U89      0.059200
     70 H122       -1.8920    0.4600   -1.1630 hc        1 U89      0.059200
     71 H131       -3.4160   -1.5760   -1.2750 hc        1 U89      0.040200
     72 H132       -2.7650   -1.9410   -2.9200 hc        1 U89      0.040200
     73 HN6        -6.6740    1.5580   -1.8360 hn        1 U89      0.317500
     74 HN81       -6.9550    2.4290   -5.2920 hn        1 U89      0.383800
     75 HN82       -6.9970    3.2320   -3.8560 hn        1 U89      0.383800
     76 HN11       -3.1450   -0.0570   -6.0380 hn        1 U89      0.488800
     77 HN12       -2.2780   -0.7210   -4.7530 hn        1 U89      0.488800
     78 H23         1.3580   -3.1150   -2.4420 ha        1 U89      0.128500
     79 H24         2.2750   -3.0430   -4.7550 ha        1 U89      0.147000
     80 H26         2.4460    1.2670   -4.5800 ha        1 U89      0.147000
     81 H27         1.5730    1.2200   -2.2550 ha        1 U89      0.128500
     82 N10         0.6210   -0.9960   -0.9710 n         1 U89     -0.383000
@<TRIPOS>BOND
     1    1    2 1   
     2    1   41 1   
     3    1   48 1   
     4    2    3 1   
     5    2    8 1   
     6    2   49 1   
     7    3    4 1   
     8    3   50 1   
     9    3   51 1   
    10    4    5 1   
    11    4   52 1   
    12    4   53 1   
    13    5    6 1   
    14    5    7 1   
    15    8    9 1   
    16    8   10 1   
    17   11   12 1   
    18   11   43 1   
    19   11   54 1   
    20   11   55 1   
    21   12   13 1   
    22   12   56 1   
    23   12   57 1   
    24   13   14 1   
    25   13   58 1   
    26   13   59 1   
    27   14   15 1   
    28   14   60 1   
    29   14   61 1   
    30   15   16 1   
    31   15   62 1   
    32   16   17 2   
    33   16   18 1   
    34   18   19 1   
    35   18   63 1   
    36   18   64 1   
    37   19   20 1   
    38   20   21 1   
    39   20   65 1   
    40   20   66 1   
    41   21   22 2   
    42   21   82 1   
    43   23   24 1   
    44   23   67 1   
    45   23   68 1   
    46   23   82 1   
    47   24   25 1   
    48   24   69 1   
    49   24   70 1   
    50   25   26 1   
    51   25   71 1   
    52   25   72 1   
    53   26   27 1   
    54   26   33 2   
    55   27   28 2   
    56   27   29 1   
    57   29   30 1   
    58   29   73 1   
    59   30   31 1   
    60   30   32 2   
    61   31   74 1   
    62   31   75 1   
    63   32   33 1   
    64   33   34 1   
    65   34   76 1   
    66   34   77 1   
    67   35   36 ar  
    68   35   40 ar  
    69   35   82 1   
    70   36   37 ar  
    71   36   78 1   
    72   37   38 ar  
    73   37   79 1   
    74   38   39 ar  
    75   38   41 1   
    76   39   40 ar  
    77   39   80 1   
    78   40   81 1   
    79   41   42 2   
    80   43   44 1   
    81   44   45 1   
    82   44   46 1   
    83   44   47 1   
@<TRIPOS>SUBSTRUCTURE
     1 U89         1 TEMP              0 ****  ****    0 ROOT
