@<TRIPOS>MOLECULE
U8D
   55    57     1     0     0
SMALL
bcc


@<TRIPOS>ATOM
      1 N1          3.1330    0.1510    0.9660 na        1 U8D     -0.066400
      2 C2          3.6590   -0.8280    0.0870 cc        1 U8D     -0.043300
      3 C3          2.6220   -1.4870   -0.5730 cd        1 U8D     -0.153400
      4 C4          1.3750   -0.8530   -0.1710 ca        1 U8D     -0.050800
      5 C5          0.0450   -1.0770   -0.4980 ca        1 U8D     -0.183000
      6 C6         -0.9420   -0.2660    0.0960 ca        1 U8D      0.170100
      7 C7         -0.5830    0.7570    1.0080 ca        1 U8D     -0.197000
      8 C8          0.7430    0.9890    1.3420 ca        1 U8D     -0.112000
      9 C9          1.7310    0.1900    0.7580 ca        1 U8D     -0.114200
     10 C10         5.1140   -1.0960   -0.0260 c3        1 U8D     -0.025200
     11 C11         2.7230   -2.6150   -1.5050 c3        1 U8D     -0.074200
     12 O12        -2.2220   -0.5460   -0.2710 os        1 U8D     -0.316900
     13 C13         3.8850    1.2750    1.4440 c3        1 U8D      0.084600
     14 C14         4.8790    4.3690   -1.3730 ca        1 U8D     -0.133000
     15 C15         3.5480    3.9940   -1.1910 ca        1 U8D     -0.134500
     16 C16         3.2230    2.9830   -0.2870 ca        1 U8D     -0.115000
     17 C17         4.2310    2.3400    0.4380 ca        1 U8D     -0.115300
     18 C18         5.5650    2.7120    0.2470 ca        1 U8D     -0.115000
     19 C19         5.8870    3.7270   -0.6540 ca        1 U8D     -0.134500
     20 C20         5.6420   -1.8910    1.1450 c3        1 U8D     -0.090100
     21 C21         2.5450   -3.9630   -0.8180 c         1 U8D      0.660100
     22 O22         3.3900   -4.8780   -0.9610 o         1 U8D     -0.662100
     23 N23         1.4200   -4.1630   -0.0690 n         1 U8D     -0.659000
     24 C24        -3.2710    0.2510    0.3330 c3        1 U8D      0.129400
     25 C25        -4.6010   -0.2520   -0.1980 c3        1 U8D     -0.056400
     26 P26        -7.1960   -0.2590   -0.3770 p5        1 U8D      1.211700
     27 O27        -7.0840   -1.6990    0.0740 o         1 U8D     -0.953500
     28 O28        -6.9620   -0.0350   -1.8540 o         1 U8D     -0.953500
     29 O29        -8.3430    0.5180    0.2220 o         1 U8D     -0.953500
     30 C30        -5.7230    0.5220    0.3910 c3        1 U8D     -0.275600
     31 H5         -0.2550   -1.8530   -1.2150 ha        1 U8D      0.151000
     32 H7         -1.3690    1.3810    1.4590 ha        1 U8D      0.154000
     33 H8          1.0040    1.7840    2.0540 ha        1 U8D      0.119000
     34 H10         5.2980   -1.6660   -0.9770 hc        1 U8D      0.050700
     35 H10A        5.6750   -0.1230   -0.1060 hc        1 U8D      0.050700
     36 H11         1.9310   -2.5210   -2.2980 hc        1 U8D      0.072700
     37 H11A        3.7230   -2.6290   -2.0150 hc        1 U8D      0.072700
     38 H13         3.2790    1.7590    2.2660 h1        1 U8D      0.059700
     39 H13A        4.8370    0.8720    1.8980 h1        1 U8D      0.059700
     40 H14         5.1340    5.1660   -2.0860 ha        1 U8D      0.123000
     41 H15         2.7500    4.4920   -1.7630 ha        1 U8D      0.129000
     42 H16         2.1710    2.6770   -0.1470 ha        1 U8D      0.142500
     43 H18         6.3640    2.2020    0.8050 ha        1 U8D      0.142500
     44 H19         6.9370    4.0170   -0.7990 ha        1 U8D      0.129000
     45 H20         5.1240   -2.8780    1.2130 hc        1 U8D      0.036033
     46 H20A        6.7370   -2.0720    1.0200 hc        1 U8D      0.036033
     47 H20B        5.4790   -1.3420    2.1030 hc        1 U8D      0.036033
     48 HN23        0.7850   -3.4200    0.0960 hn        1 U8D      0.320000
     49 HN2A        1.2800   -5.0260    0.3940 hn        1 U8D      0.320000
     50 H24        -3.2060    0.1330    1.4460 h1        1 U8D      0.013200
     51 H24A       -3.0990    1.3240    0.0550 h1        1 U8D      0.013200
     52 H25        -4.6500   -0.1570   -1.3160 hc        1 U8D      0.083200
     53 H25A       -4.7480   -1.3380    0.0510 hc        1 U8D      0.083200
     54 H30        -5.8030    0.4140    1.4890 hc        1 U8D      0.015700
     55 H30A       -5.7110    1.5930    0.1150 hc        1 U8D      0.015700
@<TRIPOS>BOND
     1    1    2 1   
     2    1    9 1   
     3    1   13 1   
     4    2    3 2   
     5    2   10 1   
     6    3    4 1   
     7    3   11 1   
     8    4    5 ar  
     9    4    9 ar  
    10    5    6 ar  
    11    5   31 1   
    12    6    7 ar  
    13    6   12 1   
    14    7    8 ar  
    15    7   32 1   
    16    8    9 ar  
    17    8   33 1   
    18   10   20 1   
    19   10   34 1   
    20   10   35 1   
    21   11   21 1   
    22   11   36 1   
    23   11   37 1   
    24   12   24 1   
    25   13   17 1   
    26   13   38 1   
    27   13   39 1   
    28   14   15 ar  
    29   14   19 ar  
    30   14   40 1   
    31   15   16 ar  
    32   15   41 1   
    33   16   17 ar  
    34   16   42 1   
    35   17   18 ar  
    36   18   19 ar  
    37   18   43 1   
    38   19   44 1   
    39   20   45 1   
    40   20   46 1   
    41   20   47 1   
    42   21   22 2   
    43   21   23 1   
    44   23   48 1   
    45   23   49 1   
    46   24   25 1   
    47   24   50 1   
    48   24   51 1   
    49   25   30 1   
    50   25   52 1   
    51   25   53 1   
    52   26   27 1   
    53   26   28 1   
    54   26   29 1   
    55   26   30 1   
    56   30   54 1   
    57   30   55 1   
@<TRIPOS>SUBSTRUCTURE
     1 U8D         1 TEMP              0 ****  ****    0 ROOT
