@<TRIPOS>MOLECULE
U8D
   56    58     1     0     0
SMALL
bcc


@<TRIPOS>ATOM
      1 N1          0.0000    0.0000    0.0000 na        1 U8D      0.403600
      2 C2          1.3690    0.0000    0.0000 cc        1 U8D     -0.219300
      3 C3          1.8260    0.0000    1.2620 cd        1 U8D     -0.136400
      4 C4          0.6560    0.0010    2.1440 ca        1 U8D     -0.033800
      5 C5          0.4850    0.0010    3.5280 ca        1 U8D     -0.118000
      6 C6         -0.7900    0.0020    4.0600 ca        1 U8D      0.154100
      7 C7         -1.8990    0.0020    3.2190 ca        1 U8D     -0.181000
      8 C8         -1.7430    0.0010    1.8510 ca        1 U8D     -0.074000
      9 C9         -0.4680    0.0010    1.2970 ca        1 U8D     -0.247200
     10 C10         2.2340   -0.0020   -1.2330 c3        1 U8D      0.051800
     11 C11         3.2710   -0.0010    1.6920 c3        1 U8D      0.078800
     12 O12        -0.9610    0.0020    5.4080 os        1 U8D     -0.304900
     13 C13        -0.8410    0.0060   -1.1990 c3        1 U8D      0.015600
     14 C14        -1.9680   -4.0000   -2.1660 ca        1 U8D     -0.098000
     15 C15        -2.7130   -3.2720   -1.2570 ca        1 U8D     -0.101000
     16 C16        -2.3480   -1.9760   -0.9440 ca        1 U8D     -0.086000
     17 C17        -1.2380   -1.4070   -1.5410 ca        1 U8D     -0.121300
     18 C18        -0.4940   -2.1350   -2.4500 ca        1 U8D     -0.086000
     19 C19        -0.8580   -3.4310   -2.7630 ca        1 U8D     -0.101000
     20 C20         2.4200    1.4350   -1.7270 c3        1 U8D     -0.003100
     21 C21         3.7530    1.4200    1.8350 c         1 U8D      0.009100
     22 O22         2.9980    2.3420    1.6090 o         1 U8D     -0.607100
     23 N23         5.0230    1.6660    2.2120 nz        1 U8D      0.287600
     24 C24        -2.3070    0.0030    5.8920 c3        1 U8D      0.184400
     25 C25        -2.2990    0.0030    7.4210 c3        1 U8D      0.007600
     26 P26        -3.7300    0.0040    9.7620 p5        1 U8D      0.537700
     27 O27        -5.2400    0.1380   10.3050 o         1 U8D     -0.549500
     28 O28        -3.0870   -1.3710   10.2960 o         1 U8D     -0.549500
     29 O29        -2.9270    1.1480   10.2500 o         1 U8D     -0.549500
     30 C30        -3.7390    0.0040    7.9380 c3        1 U8D     -0.066600
     31 H5          1.3480    0.0010    4.1830 ha        1 U8D      0.110000
     32 H7         -2.8950    0.0020    3.6450 ha        1 U8D      0.128000
     33 H8         -2.6130    0.0590    1.2080 ha        1 U8D      0.092000
     34 H10         3.2010   -0.4300   -0.9960 hc        1 U8D      0.013200
     35 H10A        1.7590   -0.5910   -2.0080 hc        1 U8D      0.013200
     36 H11         3.3640   -0.5120    2.6430 hc        1 U8D      0.005200
     37 H11A        3.8680   -0.5120    0.9470 hc        1 U8D      0.005200
     38 H13        -1.7310    0.5960   -1.0140 h1        1 U8D      0.034700
     39 H13A       -0.2890    0.4350   -2.0260 h1        1 U8D      0.034700
     40 H14        -2.2540   -5.0150   -2.4110 ha        1 U8D      0.100000
     41 H15        -3.5820   -3.7180   -0.7890 ha        1 U8D      0.102500
     42 H16        -2.9720   -1.3830   -0.2860 ha        1 U8D      0.110000
     43 H18         0.3760   -1.6890   -2.9170 ha        1 U8D      0.110000
     44 H19        -0.2740   -4.0010   -3.4750 ha        1 U8D      0.102500
     45 H20         1.8070    2.1030   -1.1340 hc        1 U8D      0.006033
     46 H20A        2.1220    1.5000   -2.7670 hc        1 U8D      0.006033
     47 H20B        3.4610    1.7180   -1.6310 hc        1 U8D      0.006033
     48 HN23        5.1150    1.5110    3.1970 hn        1 U8D      0.152133
     49 HN2A        5.6420    1.0530    1.7190 hn        1 U8D      0.152133
     50 H24        -2.8180    0.8890    5.5340 h1        1 U8D     -0.008800
     51 H24A       -2.8200   -0.8800    5.5330 h1        1 U8D     -0.008800
     52 H25        -1.7860    0.8870    7.7800 hc        1 U8D      0.028700
     53 H25A       -1.7870   -0.8820    7.7790 hc        1 U8D      0.028700
     54 H30        -4.2500    0.8890    7.5800 hc        1 U8D      0.013200
     55 H30A       -4.2520   -0.8800    7.5800 hc        1 U8D      0.013200
     56 H233        5.2560    2.6160    2.0010 hn        1 U8D      0.152133
@<TRIPOS>BOND
     1    1    2 1   
     2    1    9 1   
     3    1   13 1   
     4    2    3 2   
     5    2   10 1   
     6    3    4 1   
     7    3   11 1   
     8    4    5 ar  
     9    4    9 ar  
    10    5    6 ar  
    11    5   31 1   
    12    6    7 ar  
    13    6   12 1   
    14    7    8 ar  
    15    7   32 1   
    16    8    9 ar  
    17    8   33 1   
    18   10   20 1   
    19   10   34 1   
    20   10   35 1   
    21   11   21 1   
    22   11   36 1   
    23   11   37 1   
    24   12   24 1   
    25   13   17 1   
    26   13   38 1   
    27   13   39 1   
    28   14   15 ar  
    29   14   19 ar  
    30   14   40 1   
    31   15   16 ar  
    32   15   41 1   
    33   16   17 ar  
    34   16   42 1   
    35   17   18 ar  
    36   18   19 ar  
    37   18   43 1   
    38   19   44 1   
    39   20   45 1   
    40   20   46 1   
    41   20   47 1   
    42   21   22 2   
    43   21   23 1   
    44   23   48 1   
    45   23   49 1   
    46   23   56 1   
    47   24   25 1   
    48   24   50 1   
    49   24   51 1   
    50   25   30 1   
    51   25   52 1   
    52   25   53 1   
    53   26   27 1   
    54   26   28 1   
    55   26   29 1   
    56   26   30 1   
    57   30   54 1   
    58   30   55 1   
@<TRIPOS>SUBSTRUCTURE
     1 U8D         1 TEMP              0 ****  ****    0 ROOT
