@<TRIPOS>MOLECULE
U8U
   40    41     1     0     0
SMALL
bcc


@<TRIPOS>ATOM
      1 N1          0.0280    2.5620    0.2710 n         1 U8U     -0.251400
      2 C2         -0.1700    3.6220    1.1570 c         1 U8U      0.568400
      3 S2          0.6160    3.8170    2.6030 s         1 U8U     -0.786400
      4 N3         -1.1310    4.5590    0.8210 n         1 U8U     -0.530500
      5 C4         -1.9270    4.4880   -0.3570 c         1 U8U      0.660300
      6 O4         -2.7500    5.4220   -0.5210 o         1 U8U     -0.698100
      7 C5         -1.6850    3.3420   -1.1980 ce        1 U8U     -0.494500
      8 C6         -0.7180    2.4050   -0.8780 c1        1 U8U     -0.094900
      9 C          -2.5230    3.2080   -2.4260 c3        1 U8U      0.267000
     10 N          -2.1810    2.1380   -3.3470 n3        1 U8U     -0.813200
     11 CA         -0.9590    2.3700   -4.0820 c3        1 U8U      0.144100
     12 C1'         1.0930    1.6070    0.5540 c3        1 U8U      0.267500
     13 O2'         0.2880   -0.5900    1.2920 oh        1 U8U     -0.589800
     14 C2'         0.7480    0.1310    0.1740 c3        1 U8U      0.086100
     15 O3'         2.8340   -1.0320    0.6130 oh        1 U8U     -0.608800
     16 C3'         2.0720   -0.4100   -0.4120 c3        1 U8U      0.071100
     17 C4'         2.7690    0.8510   -0.9520 c3        1 U8U      0.086100
     18 O4'         2.3010    1.9530   -0.1560 os        1 U8U     -0.427600
     19 C5'         2.5040    1.0950   -2.4460 c3        1 U8U      0.185400
     20 O5'         3.6380    0.7670   -3.1900 os        1 U8U     -0.584200
     21 P           3.5490   -0.5680   -4.1570 p5        1 U8U      1.427800
     22 OP1         4.8970   -0.7980   -4.7200 o         1 U8U     -0.842500
     23 OP2         2.7370    0.1050   -5.4050 oh        1 U8U     -0.779400
     24 OP3         2.6910   -1.5520   -3.4650 o         1 U8U     -0.842500
     25 HN3        -1.2680    5.3120    1.4610 hn        1 U8U      0.324500
     26 H6          3.3290    0.4810   -6.0450 ho        1 U8U      0.420000
     27 HC1        -2.5050    4.1870   -2.9860 h1        1 U8U      0.020200
     28 HC2        -3.5940    3.0280   -2.1120 h1        1 U8U      0.020200
     29 HN1        -2.0740    1.2880   -2.8170 hn        1 U8U      0.360800
     30 HA1        -0.7960    1.5080   -4.7810 h1        1 U8U      0.027033
     31 HA2        -0.0520    2.4680   -3.4220 h1        1 U8U      0.027033
     32 HA3        -1.0620    3.3090   -4.6850 h1        1 U8U      0.027033
     33 H1'         1.3560    1.6940    1.6560 h2        1 U8U      0.098700
     34 HO2'        1.0540   -0.7940    1.8450 ho        1 U8U      0.393000
     35 H2'        -0.0840    0.0860   -0.5840 h1        1 U8U      0.140700
     36 HO3'        3.2100   -0.3250    1.1520 ho        1 U8U      0.388000
     37 H3'         1.9250   -1.2010   -1.1990 h1        1 U8U      0.159700
     38 H4'         3.8790    0.8160   -0.7720 h1        1 U8U      0.073700
     39 H5'         2.2950    2.1920   -2.5900 h1        1 U8U      0.049700
     40 H5''        1.6190    0.4950   -2.7940 h1        1 U8U      0.049700
@<TRIPOS>BOND
     1    1    2 1   
     2    1    8 2   
     3    1   12 1   
     4    2    3 2   
     5    2    4 1   
     6    4    5 1   
     7    4   25 1   
     8    5    6 2   
     9    5    7 1   
    10    7    8 2   
    11    7    9 1   
    12    9   10 1   
    13    9   27 1   
    14    9   28 1   
    15   10   11 1   
    16   10   29 1   
    17   11   30 1   
    18   11   31 1   
    19   11   32 1   
    20   12   14 1   
    21   12   18 1   
    22   12   33 1   
    23   13   14 1   
    24   13   34 1   
    25   14   16 1   
    26   14   35 1   
    27   15   16 1   
    28   15   36 1   
    29   16   17 1   
    30   16   37 1   
    31   17   18 1   
    32   17   19 1   
    33   17   38 1   
    34   19   20 1   
    35   19   39 1   
    36   19   40 1   
    37   20   21 1   
    38   21   22 1   
    39   21   23 1   
    40   21   24 1   
    41   23   26 1   
@<TRIPOS>SUBSTRUCTURE
     1 U8U         1 TEMP              0 ****  ****    0 ROOT
