@<TRIPOS>MOLECULE
U8U
   40    41     1     0     0
SMALL
bcc


@<TRIPOS>ATOM
      1 N1          0.5350   -0.6150   -0.4940 n         1 U8U     -0.295000
      2 C2          1.9330   -0.2000   -0.4380 c         1 U8U      0.584400
      3 S2          2.6710    0.4380   -1.7990 s         1 U8U     -0.704400
      4 N3          2.6920   -0.3360    0.8130 n         1 U8U     -0.541500
      5 C4          2.0460   -0.8180    1.9920 c         1 U8U      0.706700
      6 O4          2.6650   -0.9100    3.0300 o         1 U8U     -0.688500
      7 C5          0.6240   -1.1830    1.9500 cc        1 U8U     -0.264400
      8 C6         -0.1350   -1.0260    0.7000 cd        1 U8U      0.057600
      9 C          -0.0480   -1.7990    3.1850 c3        1 U8U      0.190000
     10 N           0.5590   -3.0820    3.4750 n3        1 U8U     -0.826200
     11 CA         -0.2590   -3.7970    4.4160 c3        1 U8U      0.163100
     12 C1'        -0.1130   -0.7750   -1.7680 c3        1 U8U      0.248500
     13 O2'        -2.4280   -1.2070   -2.2640 oh        1 U8U     -0.607800
     14 C2'        -1.6160   -0.3000   -1.6820 c3        1 U8U      0.113100
     15 O3'        -2.3590    0.8280   -3.7380 oh        1 U8U     -0.651800
     16 C3'        -1.6710    1.0110   -2.4320 c3        1 U8U      0.074100
     17 C4'        -0.3940    1.3500   -2.6250 c3        1 U8U      0.066100
     18 O4'         0.4310   -0.0120   -2.6450 os        1 U8U     -0.414600
     19 C5'         0.0830    2.2270   -1.5050 c3        1 U8U      0.225400
     20 O5'        -0.4190    3.5480   -1.6900 os        1 U8U     -0.575200
     21 P           0.6150    4.7580   -1.6970 p5        1 U8U      1.329900
     22 OP1        -0.0900    6.0230   -2.1510 o         1 U8U     -0.915500
     23 OP2         1.7420    4.4460   -2.6410 o         1 U8U     -0.915500
     24 OP3         1.1640    4.9600   -0.3050 o         1 U8U     -0.915500
     25 HN3         3.5750   -0.0740    0.8470 hn        1 U8U      0.338500
     26 H6         -1.0810   -1.2680    0.6700 h4        1 U8U      0.323000
     27 HC1        -1.0140   -1.9240    3.0060 h1        1 U8U      0.094700
     28 HC2         0.0690   -1.2020    3.9520 h1        1 U8U      0.094700
     29 HN1         1.3860   -2.9530    3.8290 hn        1 U8U      0.351800
     30 HA1         0.2230   -4.5940    4.7290 h1        1 U8U      0.014367
     31 HA2        -0.4620   -3.2180    5.1770 h1        1 U8U      0.014367
     32 HA3        -1.0880   -4.0680    3.9840 h1        1 U8U      0.014367
     33 H1'        -0.0690   -1.7130   -2.0580 h2        1 U8U      0.127700
     34 HO2'       -3.1890   -1.2640   -1.8030 ho        1 U8U      0.414000
     35 H2'        -1.8750   -0.1650   -0.7470 h1        1 U8U      0.088700
     36 HO3'       -3.1080    1.2970   -3.7440 ho        1 U8U      0.479000
     37 H3'        -2.1250    1.6880   -1.8990 h1        1 U8U      0.162700
     38 H4'        -0.2970    1.8130   -3.4790 h1        1 U8U      0.023700
     39 H5'        -0.2400    1.8700   -0.6480 h1        1 U8U      0.007700
     40 H5''        1.0660    2.2490   -1.5020 h1        1 U8U      0.007700
@<TRIPOS>BOND
     1    1    2 1   
     2    1    8 1   
     3    1   12 1   
     4    2    3 2   
     5    2    4 1   
     6    4    5 1   
     7    4   25 1   
     8    5    6 2   
     9    5    7 1   
    10    7    8 2   
    11    7    9 1   
    12    8   26 1   
    13    9   10 1   
    14    9   27 1   
    15    9   28 1   
    16   10   11 1   
    17   10   29 1   
    18   11   30 1   
    19   11   31 1   
    20   11   32 1   
    21   12   14 1   
    22   12   18 1   
    23   12   33 1   
    24   13   14 1   
    25   13   34 1   
    26   14   16 1   
    27   14   35 1   
    28   15   16 1   
    29   15   36 1   
    30   16   17 1   
    31   16   37 1   
    32   17   18 1   
    33   17   19 1   
    34   17   38 1   
    35   19   20 1   
    36   19   39 1   
    37   19   40 1   
    38   20   21 1   
    39   21   22 1   
    40   21   23 1   
    41   21   24 1   
@<TRIPOS>SUBSTRUCTURE
     1 U8U         1 TEMP              0 ****  ****    0 ROOT
