@<TRIPOS>MOLECULE
U94
   49    50     1     0     0
SMALL
bcc


@<TRIPOS>ATOM
      1 O1         -7.4770    0.0620   -1.3600 o         1 U94     -0.824800
      2 C2         -6.8340    1.0220   -0.8700 c         1 U94      0.892600
      3 C3         -5.5100    0.7270   -0.1080 c3        1 U94     -0.026900
      4 O4         -7.1440    2.2490   -0.9490 o         1 U94     -0.824800
      5 C5         -4.3410    0.9520   -1.0790 c3        1 U94      0.121100
      6 C6         -2.9620    0.5720   -0.4570 c3        1 U94      0.091700
      7 C7         -1.8780    0.9660   -1.4750 c3        1 U94     -0.054100
      8 O8         -5.3720    1.5790    1.0140 oh        1 U94     -0.619800
      9 O9         -4.2330    2.3160   -1.4580 oh        1 U94     -0.640800
     10 N10        -2.9080   -0.8290   -0.0980 n         1 U94     -0.535900
     11 C11        -2.6570   -1.2630    1.1820 c         1 U94      0.629100
     12 O12        -2.1680   -0.5330    2.0710 o         1 U94     -0.625100
     13 C13        -2.9700   -2.7240    1.5140 c3        1 U94      0.046400
     14 O14        -2.7430   -3.6210    0.4400 os        1 U94     -0.415600
     15 C15        -1.3670   -3.8310    0.1590 c3        1 U94      0.107700
     16 C16        -0.4710    0.7020   -1.0810 ca        1 U94     -0.036300
     17 C17        -0.0350    0.7890    0.2460 ca        1 U94     -0.135000
     18 C18         1.3060    0.5930    0.5660 ca        1 U94     -0.113500
     19 C19         2.2440    0.3020   -0.4350 cp        1 U94     -0.083000
     20 C20         1.8080    0.2060   -1.7640 ca        1 U94     -0.113500
     21 C21         0.4690    0.4060   -2.0800 ca        1 U94     -0.135000
     22 C22         3.6510    0.0990   -0.0990 cp        1 U94      0.011000
     23 C23         4.2680    0.8980    0.8750 ca        1 U94     -0.121500
     24 C24         5.6130    0.6970    1.1870 ca        1 U94      0.025400
     25 C25         6.3660   -0.2900    0.5460 ca        1 U94     -0.134000
     26 C26         5.7410   -1.0800   -0.4220 ca        1 U94      0.025400
     27 C27         4.3960   -0.8960   -0.7490 ca        1 U94     -0.121500
     28 CL28        6.6400   -2.2910   -1.2140 cl        1 U94     -0.100900
     29 CL29        6.3560    1.6720    2.3690 cl        1 U94     -0.100900
     30 H3         -5.5080   -0.3180    0.2920 h1        1 U94      0.058700
     31 H5         -4.5200    0.3420   -2.0100 h1        1 U94      0.038700
     32 H6         -2.8380    1.1900    0.4830 h1        1 U94      0.101700
     33 H7         -2.0980    0.4560   -2.4520 hc        1 U94      0.069700
     34 H7A        -1.9930    2.0740   -1.6480 hc        1 U94      0.069700
     35 HO8        -5.8410    2.4000    0.7950 ho        1 U94      0.420000
     36 HO9        -5.1270    2.6990   -1.4100 ho        1 U94      0.451000
     37 HN10       -3.3830   -1.4590   -0.7060 hn        1 U94      0.314500
     38 H13        -2.3700   -3.0190    2.4150 h1        1 U94      0.076200
     39 H13A       -4.0700   -2.8180    1.7280 h1        1 U94      0.076200
     40 H15        -0.8650   -2.8680   -0.1030 h1        1 U94      0.037033
     41 H15A       -0.8580   -4.3020    1.0360 h1        1 U94      0.037033
     42 H15B       -1.3670   -4.5270   -0.7160 h1        1 U94      0.037033
     43 H17        -0.7630    0.9890    1.0530 ha        1 U94      0.152500
     44 H18         1.6270    0.6560    1.6170 ha        1 U94      0.127500
     45 H20         2.5310   -0.0170   -2.5620 ha        1 U94      0.127500
     46 H21         0.1410    0.3330   -3.1280 ha        1 U94      0.152500
     47 H23         3.6870    1.6840    1.3830 ha        1 U94      0.157000
     48 H25         7.4260   -0.4420    0.7980 ha        1 U94      0.155000
     49 H27         3.9150   -1.5320   -1.5080 ha        1 U94      0.157000
@<TRIPOS>BOND
     1    1    2 1   
     2    2    3 1   
     3    2    4 1   
     4    3    5 1   
     5    3    8 1   
     6    3   30 1   
     7    5    6 1   
     8    5    9 1   
     9    5   31 1   
    10    6    7 1   
    11    6   10 1   
    12    6   32 1   
    13    7   16 1   
    14    7   33 1   
    15    7   34 1   
    16    8   35 1   
    17    9   36 1   
    18   10   11 1   
    19   10   37 1   
    20   11   12 2   
    21   11   13 1   
    22   13   14 1   
    23   13   38 1   
    24   13   39 1   
    25   14   15 1   
    26   15   40 1   
    27   15   41 1   
    28   15   42 1   
    29   16   17 ar  
    30   16   21 ar  
    31   17   18 ar  
    32   17   43 1   
    33   18   19 ar  
    34   18   44 1   
    35   19   20 ar  
    36   19   22 1   
    37   20   21 ar  
    38   20   45 1   
    39   21   46 1   
    40   22   23 ar  
    41   22   27 ar  
    42   23   24 ar  
    43   23   47 1   
    44   24   25 ar  
    45   24   29 1   
    46   25   26 ar  
    47   25   48 1   
    48   26   27 ar  
    49   26   28 1   
    50   27   49 1   
@<TRIPOS>SUBSTRUCTURE
     1 U94         1 TEMP              0 ****  ****    0 ROOT
