@<TRIPOS>MOLECULE
U94
   49    44     1     0     0
SMALL
bcc


@<TRIPOS>ATOM
      1 O1         -2.7640   -0.0140   -5.0710 o         1 U94     -0.559000
      2 C2         -2.0410    0.8500   -4.5300 c2        1 U94      0.313000
      3 C3         -1.3600    0.5370   -3.2090 c3        1 U94     -0.085000
      4 O4         -1.7320    1.9070   -5.1690 o         1 U94     -0.559000
      5 C5         -2.3680    0.6430   -2.0820 c3        1 U94      0.000000
      6 C6         -1.6510    0.7220   -0.7680 c3        1 U94      0.028000
      7 C7         -1.9020   -0.5660    0.0270 c3        1 U94     -0.149000
      8 O8         -0.8410   -0.7660   -3.2500 oh        1 U94     -0.357000
      9 O9         -3.2220   -0.5140   -2.0920 oh        1 U94     -0.375000
     10 N10        -2.1370    1.8490   -0.0300 n         1 U94     -0.343000
     11 C11        -1.3740    3.0090    0.0500 c2        1 U94      0.263000
     12 O12        -0.1170    2.9710   -0.2130 o         1 U94     -0.390000
     13 C13        -2.0140    4.3050    0.5370 c3        1 U94     -0.051000
     14 O14        -1.3540    5.4330   -0.0810 os        1 U94     -0.279000
     15 C15        -2.0240    6.6790    0.1120 c3        1 U94     -0.085000
     16 C16        -0.5530   -1.1570    0.4950 c2        1 U94     -0.021000
     17 C17         0.3110   -1.7760   -0.4430 c2        1 U94     -0.123000
     18 C18         1.4580   -2.4240   -0.0070 c1        1 U94     -0.108000
     19 C19         1.7620   -2.4660    1.3670 c1        1 U94     -0.036000
     20 C20         0.8980   -1.8480    2.3020 c1        1 U94     -0.117500
     21 C21        -0.2490   -1.2000    1.8640 c1        1 U94     -0.137000
     22 C22         2.9950   -3.0620    1.8060 c1        1 U94     -0.036000
     23 C23         2.9830   -4.3050    2.4150 c1        1 U94     -0.123000
     24 C24         4.1810   -4.8710    2.8800 c1        1 U94     -0.054000
     25 C25         5.3780   -4.1840    2.7290 c2        1 U94     -0.134000
     26 C26         5.3920   -2.9330    2.1170 c1        1 U94     -0.053000
     27 C27         4.2040   -2.3690    1.6550 c1        1 U94     -0.117500
     28 CL28        6.8930   -2.0470    1.9700 cl        1 U94     -0.021000
     29 CL29        4.1860   -6.4830    3.5280 cl        1 U94     -0.024000
     30 H3         -0.5920    1.2090   -3.0490 h1        1 U94      0.107000
     31 H5         -2.8820    1.4120   -2.2020 h1        1 U94      0.082000
     32 H6         -0.6960    0.8240   -0.9270 h1        1 U94      0.121000
     33 H7         -2.4730   -0.3600    0.8270 hc        1 U94      0.125500
     34 H7A        -2.3610   -1.2170   -0.5460 hc        1 U94      0.125500
     35 HO8        -0.4800   -0.9040   -4.0120 ho        1 U94      0.221000
     36 HO9        -4.0860   -0.2540   -2.2670 ho        1 U94      0.248000
     37 HN10       -2.8660    1.8000    0.3760 hn        1 U94      0.235000
     38 H13        -1.9280    4.3640    1.4710 h1        1 U94      0.110000
     39 H13A       -2.9430    4.3080    0.3010 h1        1 U94      0.110000
     40 H15        -1.6220    7.3510   -0.4540 h1        1 U94      0.081667
     41 H15A       -2.9140    6.5880   -0.1060 h1        1 U94      0.081667
     42 H15B       -1.9500    6.9330    0.9870 h1        1 U94      0.081667
     43 H17         0.0940   -1.7490   -1.4060 ha        1 U94      0.148000
     44 H18         2.0430   -2.8430   -0.6410 ha        1 U94      0.128000
     45 H20         1.1120   -1.8790    3.2910 ha        1 U94      0.142000
     46 H21        -0.8920   -0.7420    2.5610 ha        1 U94      0.134000
     47 H23         2.1220   -4.7750    2.5650 ha        1 U94      0.155000
     48 H25         6.1730   -4.5590    3.0390 ha        1 U94      0.154000
     49 H27         4.2030   -1.4260    1.2850 ha        1 U94      0.142000
@<TRIPOS>BOND
     1    1    2 1   
     2    2    3 1   
     3    2    4 1   
     4    3    5 1   
     5    3    8 1   
     6    3   30 1   
     7    5    6 1   
     8    5    9 1   
     9    5   31 1   
    10    6    7 1   
    11    6   10 1   
    12    6   32 1   
    13    7   16 1   
    14    7   33 1   
    15    7   34 1   
    16    8   35 1   
    17    9   36 1   
    18   10   11 1   
    19   10   37 1   
    20   11   12 1   
    21   11   13 1   
    22   13   14 1   
    23   13   38 1   
    24   13   39 1   
    25   14   15 1   
    26   15   40 1   
    27   15   41 1   
    28   15   42 1   
    29   16   17 1   
    30   16   21 1   
    31   17   18 1   
    32   17   43 1   
    33   18   44 1   
    34   19   20 1   
    35   20   45 1   
    36   21   46 1   
    37   22   27 1   
    38   23   24 1   
    39   23   47 1   
    40   24   25 1   
    41   25   26 1   
    42   25   48 1   
    43   26   28 1   
    44   27   49 1   
@<TRIPOS>SUBSTRUCTURE
     1 U94         1 TEMP              0 ****  ****    0 ROOT
