@<TRIPOS>MOLECULE
U94
   50    51     1     0     0
SMALL
bcc


@<TRIPOS>ATOM
      1 O1         -0.1830   -1.6250    0.3680 o         1 U94     -0.785800
      2 C2          0.2070   -0.5650    0.8920 c         1 U94      0.907600
      3 C3          0.8160   -0.6300    2.3410 c3        1 U94     -0.066900
      4 O4          0.2280    0.6040    0.4080 o         1 U94     -0.785800
      5 C5          2.3380   -0.6980    2.1640 c3        1 U94      0.123100
      6 C6          3.1490   -0.9280    3.4620 c3        1 U94      0.131500
      7 C7          2.9370   -2.3610    3.9650 c3        1 U94     -0.063100
      8 O8          0.4610    0.5360    3.0660 oh        1 U94     -0.683800
      9 O9          2.8470    0.5080    1.6130 oh        1 U94     -0.663800
     10 N10         2.8060    0.0800    4.5280 n4        1 U94     -0.675800
     11 C11         3.4300    1.4270    4.2650 c         1 U94      0.543100
     12 O12         4.6350    1.5120    4.4520 o         1 U94     -0.449100
     13 C13         2.4790    2.5180    3.7990 c3        1 U94      0.071400
     14 O14         3.0140    3.7790    4.1040 os        1 U94     -0.391600
     15 C15         3.9490    4.2720    3.1460 c3        1 U94      0.098700
     16 C16         3.7070   -2.6370    5.2070 ca        1 U94     -0.129300
     17 C17         5.0870   -2.8640    5.1470 ca        1 U94     -0.129000
     18 C18         5.8070   -3.1410    6.3070 ca        1 U94     -0.110500
     19 C19         5.1570   -3.1950    7.5490 cp        1 U94     -0.023000
     20 C20         3.7740   -2.9720    7.6060 ca        1 U94     -0.110500
     21 C21         3.0570   -2.6960    6.4450 ca        1 U94     -0.129000
     22 C22         5.9120   -3.4880    8.7670 cp        1 U94     -0.031000
     23 C23         6.9120   -4.4690    8.7550 ca        1 U94     -0.113500
     24 C24         7.6270   -4.7430    9.9240 ca        1 U94      0.025400
     25 C25         7.3630   -4.0500   11.1090 ca        1 U94     -0.112000
     26 C26         6.3630   -3.0730   11.1080 ca        1 U94      0.025400
     27 C27         5.6360   -2.7890    9.9500 ca        1 U94     -0.113500
     28 CL28        6.0280   -2.2200   12.5370 cl        1 U94     -0.074400
     29 CL29        8.8360   -5.9350    9.9060 cl        1 U94     -0.074400
     30 H3          0.4260   -1.5070    2.9130 h1        1 U94      0.070700
     31 H5          2.5770   -1.5550    1.4690 h1        1 U94      0.090700
     32 H6          4.2470   -0.7730    3.2280 hx        1 U94      0.108700
     33 H7          1.8420   -2.5570    4.1260 hc        1 U94      0.093700
     34 H7A         3.2760   -3.0500    3.1430 hc        1 U94      0.093700
     35 HO8         0.1440    1.1910    2.4180 ho        1 U94      0.455000
     36 HO9         2.2470    0.7650    0.8840 ho        1 U94      0.478000
     37 HN10        3.1430   -0.2830    5.4280 hn        1 U94      0.464800
     38 H13         2.3000    2.3580    2.6950 h1        1 U94      0.125200
     39 H13A        1.5000    2.4640    4.3530 h1        1 U94      0.125200
     40 H15         3.4730    4.3430    2.1380 h1        1 U94      0.056033
     41 H15A        4.2140    5.2870    3.5340 h1        1 U94      0.056033
     42 H15B        4.8490    3.6110    3.1120 h1        1 U94      0.056033
     43 H17         5.6060   -2.8320    4.1760 ha        1 U94      0.141000
     44 H18         6.8930   -3.3150    6.2490 ha        1 U94      0.148500
     45 H20         3.2500   -3.0320    8.5730 ha        1 U94      0.148500
     46 H21         1.9660   -2.5550    6.5020 ha        1 U94      0.141000
     47 H23         7.1240   -5.0280    7.8300 ha        1 U94      0.153500
     48 H25         7.9310   -4.2710   12.0260 ha        1 U94      0.167000
     49 H27         4.8540   -2.0140    9.9620 ha        1 U94      0.153500
     50 H102        1.7800    0.1830    4.5620 hn        1 U94      0.464800
@<TRIPOS>BOND
     1    1    2 1   
     2    2    3 1   
     3    2    4 1   
     4    3    5 1   
     5    3    8 1   
     6    3   30 1   
     7    5    6 1   
     8    5    9 1   
     9    5   31 1   
    10    6    7 1   
    11    6   10 1   
    12    6   32 1   
    13    7   16 1   
    14    7   33 1   
    15    7   34 1   
    16    8   35 1   
    17    9   36 1   
    18   10   11 1   
    19   10   37 1   
    20   10   50 1   
    21   11   12 2   
    22   11   13 1   
    23   13   14 1   
    24   13   38 1   
    25   13   39 1   
    26   14   15 1   
    27   15   40 1   
    28   15   41 1   
    29   15   42 1   
    30   16   17 ar  
    31   16   21 ar  
    32   17   18 ar  
    33   17   43 1   
    34   18   19 ar  
    35   18   44 1   
    36   19   20 ar  
    37   19   22 1   
    38   20   21 ar  
    39   20   45 1   
    40   21   46 1   
    41   22   23 ar  
    42   22   27 ar  
    43   23   24 ar  
    44   23   47 1   
    45   24   25 ar  
    46   24   29 1   
    47   25   26 ar  
    48   25   48 1   
    49   26   27 ar  
    50   26   28 1   
    51   27   49 1   
@<TRIPOS>SUBSTRUCTURE
     1 U94         1 TEMP              0 ****  ****    0 ROOT
