@<TRIPOS>MOLECULE
U94
   50    51     1     0     0
SMALL
bcc


@<TRIPOS>ATOM
      1 O1          0.2840   -0.8370   -0.2330 o         1 U94     -0.786300
      2 C2          0.8740    0.1760    0.2150 c         1 U94      0.914600
      3 C3          1.2800    0.1420    1.7310 c3        1 U94     -0.067900
      4 O4          1.2150    1.2190   -0.3930 o         1 U94     -0.786300
      5 C5          1.7030   -1.2630    2.1660 c3        1 U94      0.157100
      6 C6          2.6340   -1.2660    3.4140 c3        1 U94      0.123500
      7 C7          2.7000   -2.6900    3.9750 c3        1 U94     -0.064100
      8 O8          2.3020    1.0830    2.0000 oh        1 U94     -0.692800
      9 O9          2.4630   -1.9610    1.1990 oh        1 U94     -0.623800
     10 N10         2.1760   -0.2810    4.4590 n4        1 U94     -0.666800
     11 C11         2.9790    1.0030    4.4870 c         1 U94      0.547100
     12 O12         4.1940    0.9080    4.4440 o         1 U94     -0.427100
     13 C13         2.1570    2.2820    4.5800 c3        1 U94      0.067400
     14 O14         2.9010    3.2760    5.2380 os        1 U94     -0.392600
     15 C15         3.8090    3.9890    4.3990 c3        1 U94      0.098700
     16 C16         3.5710   -2.7980    5.1750 ca        1 U94     -0.121300
     17 C17         4.9640   -2.8030    5.0400 ca        1 U94     -0.130500
     18 C18         5.7800   -2.9180    6.1620 ca        1 U94     -0.109500
     19 C19         5.2160   -3.0320    7.4420 cp        1 U94     -0.027000
     20 C20         3.8200   -3.0320    7.5750 ca        1 U94     -0.109500
     21 C21         3.0060   -2.9170    6.4510 ca        1 U94     -0.130500
     22 C22         6.0720   -3.1560    8.6210 cp        1 U94     -0.028000
     23 C23         7.2170   -3.9640    8.5770 ca        1 U94     -0.114000
     24 C24         8.0290   -4.0770    9.7080 ca        1 U94      0.024900
     25 C25         7.7190   -3.3940   10.8880 ca        1 U94     -0.113000
     26 C26         6.5750   -2.5910   10.9200 ca        1 U94      0.024900
     27 C27         5.7510   -2.4680    9.7990 ca        1 U94     -0.114000
     28 CL28        6.1830   -1.7520   12.3430 cl        1 U94     -0.075400
     29 CL29        9.4120   -5.0590    9.6510 cl        1 U94     -0.075400
     30 H3          0.3800    0.4600    2.3290 h1        1 U94      0.025700
     31 H5          0.7670   -1.8530    2.3880 h1        1 U94      0.050700
     32 H6          3.6660   -0.9440    3.0750 hx        1 U94      0.138700
     33 H7          3.1050   -3.3270    3.1360 hc        1 U94      0.093700
     34 H7A         1.6670   -3.0660    4.2040 hc        1 U94      0.093700
     35 HO8         2.5420    1.5040    1.1510 ho        1 U94      0.467000
     36 HO9         1.9760   -1.9040    0.3550 ho        1 U94      0.477000
     37 HN10        1.1960   -0.0450    4.2740 hn        1 U94      0.449800
     38 H13         1.2430    2.1350    5.2180 h1        1 U94      0.114700
     39 H13A        1.8710    2.5690    3.5250 h1        1 U94      0.114700
     40 H15         4.5880    3.2950    3.9970 h1        1 U94      0.059367
     41 H15A        4.2640    4.7440    5.0880 h1        1 U94      0.059367
     42 H15B        3.2570    4.4890    3.5660 h1        1 U94      0.059367
     43 H17         5.4150   -2.7170    4.0390 ha        1 U94      0.140500
     44 H18         6.8750   -2.9160    6.0450 ha        1 U94      0.147000
     45 H20         3.3670   -3.1410    8.5720 ha        1 U94      0.147000
     46 H21         1.9130   -2.9560    6.5690 ha        1 U94      0.140500
     47 H23         7.4680   -4.5130    7.6550 ha        1 U94      0.153000
     48 H25         8.3640   -3.4870   11.7760 ha        1 U94      0.167000
     49 H27         4.8560   -1.8280    9.8360 ha        1 U94      0.153000
     50 H102        2.2530   -0.7260    5.3820 hn        1 U94      0.449800
@<TRIPOS>BOND
     1    1    2 1   
     2    2    3 1   
     3    2    4 1   
     4    3    5 1   
     5    3    8 1   
     6    3   30 1   
     7    5    6 1   
     8    5    9 1   
     9    5   31 1   
    10    6    7 1   
    11    6   10 1   
    12    6   32 1   
    13    7   16 1   
    14    7   33 1   
    15    7   34 1   
    16    8   35 1   
    17    9   36 1   
    18   10   11 1   
    19   10   37 1   
    20   10   50 1   
    21   11   12 2   
    22   11   13 1   
    23   13   14 1   
    24   13   38 1   
    25   13   39 1   
    26   14   15 1   
    27   15   40 1   
    28   15   41 1   
    29   15   42 1   
    30   16   17 ar  
    31   16   21 ar  
    32   17   18 ar  
    33   17   43 1   
    34   18   19 ar  
    35   18   44 1   
    36   19   20 ar  
    37   19   22 1   
    38   20   21 ar  
    39   20   45 1   
    40   21   46 1   
    41   22   23 ar  
    42   22   27 ar  
    43   23   24 ar  
    44   23   47 1   
    45   24   25 ar  
    46   24   29 1   
    47   25   26 ar  
    48   25   48 1   
    49   26   27 ar  
    50   26   28 1   
    51   27   49 1   
@<TRIPOS>SUBSTRUCTURE
     1 U94         1 TEMP              0 ****  ****    0 ROOT
