@<TRIPOS>MOLECULE
U94
   50    51     1     0     0
SMALL
bcc


@<TRIPOS>ATOM
      1 O1         -0.5040    0.0840    0.2280 o         1 U94     -0.779800
      2 C2          0.7370    0.1450    0.3180 c         1 U94      0.914600
      3 C3          1.3560    0.1690    1.7650 c3        1 U94     -0.079900
      4 O4          1.6090    0.1890   -0.5930 o         1 U94     -0.779800
      5 C5          1.7430   -1.2500    2.1830 c3        1 U94      0.144100
      6 C6          2.6540   -1.2650    3.4520 c3        1 U94      0.103500
      7 C7          2.6840   -2.6870    4.0200 c3        1 U94     -0.064100
      8 O8          2.5050    0.9960    1.8020 oh        1 U94     -0.679800
      9 O9          2.5000   -1.9480    1.2170 oh        1 U94     -0.616800
     10 N10         2.2090   -0.2670    4.4880 ny        1 U94     -0.668800
     11 C11         2.9270    1.0620    4.4010 c         1 U94      0.548100
     12 O12         4.1470    1.0330    4.4400 o         1 U94     -0.432100
     13 C13         2.0440    2.2990    4.2980 c3        1 U94      0.068400
     14 O14         2.5830    3.3200    5.0990 os        1 U94     -0.395600
     15 C15         3.5960    4.0980    4.4630 c3        1 U94      0.098700
     16 C16         3.5630   -2.8080    5.2120 ca        1 U94     -0.122300
     17 C17         4.9540   -2.8580    5.0630 ca        1 U94     -0.130500
     18 C18         5.7780   -2.9850    6.1780 ca        1 U94     -0.109500
     19 C19         5.2250   -3.0660    7.4650 cp        1 U94     -0.027000
     20 C20         3.8310   -3.0220    7.6120 ca        1 U94     -0.109500
     21 C21         3.0090   -2.8950    6.4950 ca        1 U94     -0.130500
     22 C22         6.0890   -3.2020    8.6360 cp        1 U94     -0.029000
     23 C23         7.2080   -4.0450    8.5900 ca        1 U94     -0.114000
     24 C24         8.0280   -4.1690    9.7140 ca        1 U94      0.024900
     25 C25         7.7520   -3.4630   10.8890 ca        1 U94     -0.113000
     26 C26         6.6340   -2.6250   10.9220 ca        1 U94      0.024900
     27 C27         5.8020   -2.4900    9.8080 ca        1 U94     -0.114000
     28 Cl28        6.2830   -1.7570   12.3390 cl        1 U94     -0.075400
     29 Cl29        9.3800   -5.1940    9.6550 cl        1 U94     -0.075400
     30 H3          0.6120    0.6160    2.4750 h1        1 U94      0.038700
     31 H5          0.8100   -1.8500    2.3810 h1        1 U94      0.068700
     32 H6          3.6980   -0.9650    3.1300 hx        1 U94      0.129700
     33 H7          3.0620   -3.3410    3.1820 hc        1 U94      0.094200
     34 H7A         1.6430   -3.0310    4.2600 hc        1 U94      0.094200
     35 HO8         2.8290    1.0770    0.8850 ho        1 U94      0.461000
     36 HO9         2.5260   -1.4200    0.3960 ho        1 U94      0.473000
     37 HN10        2.3900   -0.6690    5.4180 hn        1 U94      0.449300
     38 H13         1.0140    2.1170    4.7090 h1        1 U94      0.118700
     39 H13A        1.9890    2.5720    3.2020 h1        1 U94      0.118700
     40 H15         4.4750    3.4540    4.2110 h1        1 U94      0.058700
     41 H15A        3.8670    4.8600    5.2370 h1        1 U94      0.058700
     42 H15B        3.1900    4.5890    3.5450 h1        1 U94      0.058700
     43 H17         5.3970   -2.8000    4.0560 ha        1 U94      0.140000
     44 H18         6.8710   -3.0180    6.0490 ha        1 U94      0.147000
     45 H20         3.3850   -3.1050    8.6150 ha        1 U94      0.147000
     46 H21         1.9160   -2.8990    6.6250 ha        1 U94      0.140000
     47 H23         7.4320   -4.6130    7.6740 ha        1 U94      0.153000
     48 H25         8.4040   -3.5650   11.7710 ha        1 U94      0.167000
     49 H27         4.9270   -1.8230    9.8470 ha        1 U94      0.153000
     50 H102        1.2020   -0.1130    4.3800 hn        1 U94      0.449300
@<TRIPOS>BOND
     1    1    2 1   
     2    2    3 1   
     3    2    4 1   
     4    3    5 1   
     5    3    8 1   
     6    3   30 1   
     7    5    6 1   
     8    5    9 1   
     9    5   31 1   
    10    6    7 1   
    11    6   10 1   
    12    6   32 1   
    13    7   16 1   
    14    7   33 1   
    15    7   34 1   
    16    8   35 1   
    17    9   36 1   
    18   10   11 1   
    19   10   37 1   
    20   10   50 1   
    21   11   12 2   
    22   11   13 1   
    23   13   14 1   
    24   13   38 1   
    25   13   39 1   
    26   14   15 1   
    27   15   40 1   
    28   15   41 1   
    29   15   42 1   
    30   16   17 ar  
    31   16   21 ar  
    32   17   18 ar  
    33   17   43 1   
    34   18   19 ar  
    35   18   44 1   
    36   19   20 ar  
    37   19   22 1   
    38   20   21 ar  
    39   20   45 1   
    40   21   46 1   
    41   22   23 ar  
    42   22   27 ar  
    43   23   24 ar  
    44   23   47 1   
    45   24   25 ar  
    46   24   29 1   
    47   25   26 ar  
    48   25   48 1   
    49   26   27 ar  
    50   26   28 1   
    51   27   49 1   
@<TRIPOS>SUBSTRUCTURE
     1 U94         1 TEMP              0 ****  ****    0 ROOT
