@<TRIPOS>MOLECULE
U98
   31    32     1     0     0
SMALL
bcc


@<TRIPOS>ATOM
      1 NAA         3.0820   -1.5030    1.7680 n3        1 U98     -1.024700
      2 FAB        -4.8140   -1.5700    0.2370 f         1 U98     -0.235633
      3 OAC         4.5960   -1.7220   -0.1550 o         1 U98     -0.664800
      4 SAD         3.2510   -1.4550    0.1810 sy        1 U98      1.541200
      5 OAE         2.2610   -2.2600   -0.4290 o         1 U98     -0.664800
      6 FAF        -5.4420    0.2560   -0.7460 f         1 U98     -0.235633
      7 CAH        -3.1600    0.2110    0.1160 ca        1 U98     -0.149300
      8 CAI        -1.8630   -0.2300   -0.1380 ca        1 U98     -0.117000
      9 CAJ        -0.7680    0.4290    0.4640 ca        1 U98      0.126600
     10 CAL         1.6050    0.7380   -0.1380 ca        1 U98      0.741200
     11 CAM         2.9120    0.1550   -0.2000 ca        1 U98     -0.541800
     12 CAN         3.9710    0.9860   -0.6020 ca        1 U98      0.031000
     13 FAO        -4.0650   -1.0930   -1.7390 f         1 U98     -0.235633
     14 CAP        -3.4000    1.3070    0.9450 ca        1 U98     -0.094000
     15 CAQ        -2.3200    1.9620    1.5340 ca        1 U98     -0.121000
     16 CAR        -1.0150    1.5330    1.3070 ca        1 U98     -0.090000
     17 NAS         1.3830    2.0630   -0.4290 nb        1 U98     -0.726000
     18 CAT         2.4300    2.8070   -0.7930 ca        1 U98      0.489200
     19 CAU         3.7490    2.3200   -0.9060 ca        1 U98     -0.305300
     20 HNAA        2.2070   -1.5300    2.2290 hn        1 U98      0.452800
     21 HNAB        3.8460   -1.4960    2.3970 hn        1 U98      0.452800
     22 HAI        -1.7070   -1.0930   -0.8070 ha        1 U98      0.159000
     23 HNAK        0.5570   -1.0020   -0.1290 hn        1 U98      0.458800
     24 HAN         4.9880    0.5570   -0.6770 ha        1 U98      0.171000
     25 HAP        -4.4310    1.6500    1.1240 ha        1 U98      0.154000
     26 HAQ        -2.4990    2.8290    2.1880 ha        1 U98      0.145000
     27 HAR        -0.1800    2.0660    1.7870 ha        1 U98      0.152000
     28 HAT         2.1960    3.8650   -1.0210 h4        1 U98      0.030100
     29 HAU         4.5630    2.9820   -1.2260 ha        1 U98      0.157000
     30 NAK         0.5410   -0.0830    0.2890 nh        1 U98     -0.740300
     31 CAG        -4.3350   -0.5260   -0.5180 c3        1 U98      0.687200
@<TRIPOS>BOND
     1    1    4 1   
     2    1   20 1   
     3    1   21 1   
     4    2   31 1   
     5    3    4 2   
     6    4    5 2   
     7    4   11 1   
     8    6   31 1   
     9    7    8 ar  
    10    7   14 ar  
    11    7   31 1   
    12    8    9 ar  
    13    8   22 1   
    14    9   16 ar  
    15    9   30 1   
    16   10   11 ar  
    17   10   17 ar  
    18   10   30 1   
    19   11   12 ar  
    20   12   19 ar  
    21   12   24 1   
    22   13   31 1   
    23   14   15 ar  
    24   14   25 1   
    25   15   16 ar  
    26   15   26 1   
    27   16   27 1   
    28   17   18 ar  
    29   18   19 ar  
    30   18   28 1   
    31   19   29 1   
    32   23   30 1   
@<TRIPOS>SUBSTRUCTURE
     1 U98         1 TEMP              0 ****  ****    0 ROOT
