@<TRIPOS>MOLECULE
U98
   32    31     1     0     0
SMALL
bcc


@<TRIPOS>ATOM
      1 NAA         0.4320    0.3340   -1.0230 n4        1 U98     -0.572000
      2 FAB        -0.4300   -5.1240    6.2650 f         1 U98     -0.146000
      3 OAC         2.2200    1.0470    0.5810 o         1 U98     -0.884500
      4 SAD         1.4510   -0.0960    0.4600 s6        1 U98      2.871000
      5 OAE         0.4810   -0.4080    1.4120 o         1 U98     -0.884500
      6 FAF         1.0060   -6.7050    5.8390 f         1 U98     -0.146000
      7 CAH         0.4460   -5.2230    3.9920 c2        1 U98     -0.015000
      8 CAI         1.4190   -4.6820    3.2330 c2        1 U98     -0.160000
      9 CAJ         1.2570   -4.4970    1.7820 c2        1 U98     -0.017000
     10 CAL         2.1160   -2.7330    0.2800 c2        1 U98      0.349000
     11 CAM         2.2070   -1.3600   -0.0680 c2        1 U98     -1.312000
     12 CAN         1.7110   -1.6030   -2.4450 c1        1 U98      0.106000
     13 FAO         1.6750   -4.6440    6.0230 f         1 U98     -0.146000
     14 CAP        -0.8300   -5.6590    3.4800 c2        1 U98     -0.456000
     15 CAQ        -1.1030   -5.9410    2.2150 c1        1 U98      0.231000
     16 CAR         0.9400   -5.5260    0.9660 c2        1 U98     -0.166000
     17 NAS         2.8320   -3.6760   -0.5320 n3        1 U98     -0.220000
     18 CAT         2.9630   -3.6820   -1.8490 c1        1 U98      0.117000
     19 CAU         2.2950   -2.7330   -2.7380 c2        1 U98     -0.437000
     20 HNAA        0.7550   -0.2750   -1.8370 hn        1 U98      0.268667
     21 HNAB       -0.5590    0.1760   -0.8760 hn        1 U98      0.268667
     22 HAI         2.3730   -4.3470    3.6790 ha        1 U98      0.181000
     23 HNAK        0.9400   -2.4580    1.9350 hn        1 U98      0.300000
     24 HAN         3.1200   -1.1330   -0.6750 h4        1 U98      0.238000
     25 HAP        -1.6500   -5.7720    4.2290 ha        1 U98      0.230000
     26 HAQ         0.7340   -5.4270   -0.1090 ha        1 U98      0.167000
     27 HAR         0.9190   -6.5640    1.3440 ha        1 U98      0.167000
     28 HAT         3.2650   -4.4470   -0.0460 hn        1 U98      0.295000
     29 HAU         2.3480   -3.0820   -3.8010 ha        1 U98      0.257000
     30 HAA3        0.5550    1.3070   -1.2930 hn        1 U98      0.268667
     31 NAK         1.3870   -3.1460    1.3430 n3        1 U98     -0.210000
     32 CAG         0.6700   -5.4190    5.5030 c3        1 U98      0.459000
@<TRIPOS>BOND
     1    1    4 1   
     2    1   20 1   
     3    1   21 1   
     4    1   30 1   
     5    2   32 1   
     6    3    4 1   
     7    4    5 1   
     8    4   11 1   
     9    6   32 1   
    10    7    8 1   
    11    7   14 1   
    12    7   32 1   
    13    8    9 1   
    14    8   22 1   
    15    9   16 1   
    16    9   31 1   
    17   10   11 1   
    18   10   17 1   
    19   10   31 1   
    20   11   24 1   
    21   12   19 1   
    22   13   32 1   
    23   14   15 1   
    24   14   25 1   
    25   16   26 1   
    26   16   27 1   
    27   17   18 1   
    28   17   28 1   
    29   18   19 1   
    30   19   29 1   
    31   23   31 1   
@<TRIPOS>SUBSTRUCTURE
     1 U98         1 TEMP              0 ****  ****    0 ROOT
