@<TRIPOS>MOLECULE
U98
   32    31     1     0     0
SMALL
bcc


@<TRIPOS>ATOM
      1 NAA         0.4280    0.3090   -1.0630 nz        1 U98     -0.572000
      2 FAB        -0.4460   -5.0790    6.2770 f         1 U98     -0.146000
      3 OAC         2.2070    1.0440    0.5420 o         1 U98     -0.884500
      4 SAD         1.4420   -0.1030    0.4290 s6        1 U98      2.871000
      5 OAE         0.4690   -0.4080    1.3800 o         1 U98     -0.884500
      6 FAF         0.9990   -6.6580    5.8730 f         1 U98     -0.146000
      7 CAH         0.4410   -5.1970    4.0090 c2        1 U98     -0.015000
      8 CAI         1.4150   -4.6600    3.2490 c2        1 U98     -0.160000
      9 CAJ         1.2590   -4.4900    1.7960 c2        1 U98     -0.017000
     10 CAL         2.1180   -2.7380    0.2790 c2        1 U98      0.349000
     11 CAM         2.2050   -1.3690   -0.0830 c2        1 U98     -1.312000
     12 CAN         1.7200   -1.6380   -2.4590 c1        1 U98      0.106000
     13 FAO         1.6590   -4.5920    6.0400 f         1 U98     -0.146000
     14 CAP        -0.8310   -5.6430    3.4970 c2        1 U98     -0.456000
     15 CAQ        -1.0980   -5.9400    2.2330 c1        1 U98      0.231000
     16 CAR         0.9490   -5.5290    0.9880 c2        1 U98     -0.166000
     17 NAS         2.8400   -3.6880   -0.5200 n7        1 U98     -0.220000
     18 CAT         2.9770   -3.7070   -1.8370 c1        1 U98      0.117000
     19 CAU         2.3100   -2.7690   -2.7380 c2        1 U98     -0.437000
     20 HNAA        0.7580   -0.3070   -1.8690 hn        1 U98      0.268667
     21 HNAB       -0.5630    0.1490   -0.9190 hn        1 U98      0.268667
     22 HAI         2.3650   -4.3170    3.6950 ha        1 U98      0.181000
     23 HNAK        0.9340   -2.4510    1.9260 hn        1 U98      0.300000
     24 HAN         3.1200   -1.1440   -0.6880 h4        1 U98      0.238000
     25 HAP        -1.6540   -5.7520    4.2430 ha        1 U98      0.230000
     26 HAQ         0.7480   -5.4410   -0.0880 ha        1 U98      0.167000
     27 HAR         0.9300   -6.5630    1.3770 ha        1 U98      0.167000
     28 HAT         3.2740   -4.4510   -0.0240 hn        1 U98      0.295000
     29 HAU         2.3690   -3.1290   -3.7970 ha        1 U98      0.257000
     30 HAA3        0.5490    1.2790   -1.3420 hn        1 U98      0.268667
     31 NAK         1.3850   -3.1430    1.3430 n7        1 U98     -0.210000
     32 CAG         0.6590   -5.3770    5.5230 c3        1 U98      0.459000
@<TRIPOS>BOND
     1    1    4 1   
     2    1   20 1   
     3    1   21 1   
     4    1   30 1   
     5    2   32 1   
     6    3    4 1   
     7    4    5 1   
     8    4   11 1   
     9    6   32 1   
    10    7    8 1   
    11    7   14 1   
    12    7   32 1   
    13    8    9 1   
    14    8   22 1   
    15    9   16 1   
    16    9   31 1   
    17   10   11 1   
    18   10   17 1   
    19   10   31 1   
    20   11   24 1   
    21   12   19 1   
    22   13   32 1   
    23   14   15 1   
    24   14   25 1   
    25   16   26 1   
    26   16   27 1   
    27   17   18 1   
    28   17   28 1   
    29   18   19 1   
    30   19   29 1   
    31   23   31 1   
@<TRIPOS>SUBSTRUCTURE
     1 U98         1 TEMP              0 ****  ****    0 ROOT
