@<TRIPOS>MOLECULE
U98
   33    33     1     0     0
SMALL
bcc


@<TRIPOS>ATOM
      1 NAA         0.6790    0.5430   -1.1850 n4        1 U98     -0.530000
      2 FAB         1.4770   -4.9600    6.1860 f         1 U98     -0.130333
      3 OAC         2.2410    0.6280    0.7830 o         1 U98     -0.828500
      4 SAD         1.2840   -0.2640    0.3830 s6        1 U98      2.817000
      5 OAE         0.1020   -0.5170    1.0620 o         1 U98     -0.828500
      6 FAF         2.3900   -6.5570    5.0030 f         1 U98     -0.130333
      7 CAH         0.7990   -5.1250    3.8470 c2        1 U98      0.054000
      8 CAI         1.1630   -4.7670    2.5950 c2        1 U98     -0.237000
      9 CAJ         0.2050   -4.6090    1.5080 c2        1 U98     -0.138000
     10 CAL         1.4090   -3.0000    0.0280 c2        1 U98      0.147000
     11 CAM         1.8530   -1.6790   -0.2130 c2        1 U98     -0.988000
     12 CAN         3.0470   -1.5360   -1.0180 c2        1 U98     -0.057000
     13 FAO         2.9910   -4.4820    4.6950 f         1 U98     -0.130333
     14 CAP        -0.5500   -5.3920    4.2600 c2        1 U98     -0.473000
     15 CAQ        -1.5620   -5.6840    3.4570 c1        1 U98      0.276000
     16 CAR        -0.6910   -5.5330    1.1100 c2        1 U98     -0.085000
     17 NAS         2.0790   -4.0700   -0.5370 n3        1 U98     -0.104000
     18 CAT         3.1770   -3.9380   -1.3240 c1        1 U98      0.092000
     19 CAU         3.6840   -2.6140   -1.5620 c2        1 U98     -0.146000
     20 HNAA        0.8890    0.0170   -2.0340 hn        1 U98      0.277000
     21 HNAB       -0.3340    0.6950   -1.1630 hn        1 U98      0.277000
     22 HAI         2.2310   -4.6000    2.3600 ha        1 U98      0.179000
     23 HNAK        0.1950   -2.5630    1.6680 hn        1 U98      0.283000
     24 HAN         3.4630   -0.5170   -1.1520 ha        1 U98      0.183000
     25 HAP        -0.7500   -5.3850    5.3640 ha        1 U98      0.257000
     26 HAQ        -1.4610   -5.3840    0.3350 ha        1 U98      0.198000
     27 HAR        -0.6760   -6.5570    1.5420 ha        1 U98      0.198000
     28 HAT         1.7820   -5.0190   -0.3450 hn        1 U98      0.312000
     29 HAU         4.6020   -2.5250   -2.1760 ha        1 U98      0.233000
     30 HAA3        1.1090    1.4710   -1.2980 hn        1 U98      0.277000
     31 HAK2       -0.6320   -3.1210    0.3210 hn        1 U98      0.283000
     32 NAK         0.2190   -3.2530    0.8910 n4        1 U98      0.003000
     33 CAG         1.9010   -5.2820    4.9270 c3        1 U98      0.459000
@<TRIPOS>BOND
     1    1    4 1   
     2    1   20 1   
     3    1   21 1   
     4    1   30 1   
     5    2   33 1   
     6    3    4 1   
     7    4    5 1   
     8    4   11 1   
     9    6   33 1   
    10    7    8 1   
    11    7   14 1   
    12    7   33 1   
    13    8    9 1   
    14    8   22 1   
    15    9   16 1   
    16    9   32 1   
    17   10   11 1   
    18   10   17 1   
    19   10   32 1   
    20   11   12 1   
    21   12   19 1   
    22   12   24 1   
    23   13   33 1   
    24   14   15 1   
    25   14   25 1   
    26   16   26 1   
    27   16   27 1   
    28   17   18 1   
    29   17   28 1   
    30   18   19 1   
    31   19   29 1   
    32   23   32 1   
    33   31   32 1   
@<TRIPOS>SUBSTRUCTURE
     1 U98         1 TEMP              0 ****  ****    0 ROOT
