@<TRIPOS>MOLECULE
UA1
   71    70     1     0     0
SMALL
bcc


@<TRIPOS>ATOM
      1 O50         1.0770   -3.3110   -1.5090 o         1 UA1     -0.257500
      2 C49         1.3470   -2.7630   -0.4790 c1        1 UA1      0.511000
      3 O51         1.6690   -2.2500    0.5400 o         1 UA1     -0.257500
      4 C52         0.1100    0.6820    3.5620 c2        1 UA1      0.391000
      5 C55         0.1010    2.0470    3.0560 c3        1 UA1     -0.305000
      6 C54         1.2660   -0.1760    3.3410 c3        1 UA1     -0.305000
      7 C53        -1.0480    0.1650    4.2810 c3        1 UA1     -0.305000
      8 N32         2.0320   -0.3020   -1.9370 n3        1 UA1     -0.383000
      9 C31         1.1100    0.0990   -2.9530 c3        1 UA1      0.018000
     10 C34         1.5810    1.2120   -3.9110 c3        1 UA1     -0.123000
     11 C37         1.9550    2.4290   -3.1490 ca        1 UA1     -0.170000
     12 C39         3.3010    2.6780   -2.8390 ca        1 UA1     -0.076500
     13 C42         1.3280    4.5180   -2.0920 ca        1 UA1     -0.182500
     14 C38         2.6770    4.7540   -1.7850 ca        1 UA1      0.110000
     15 O47         3.1050    5.8610   -1.1030 oh        1 UA1     -0.234000
     16 C41         3.6710    3.8290   -2.1580 ca        1 UA1     -0.182500
     17 C40         0.9770    3.3560   -2.7720 ca        1 UA1     -0.076500
     18 C28         0.9040   -1.1700   -3.8400 c2        1 UA1      0.295000
     19 O30         1.6730   -1.6380   -4.6710 o         1 UA1     -0.289000
     20 N19        -0.3620   -1.9530   -3.5860 n4        1 UA1     -0.127000
     21 C11        -0.4620   -3.3010   -4.2320 c3        1 UA1     -0.087000
     22 C20         0.1450   -3.2970   -5.6390 c2        1 UA1      0.238000
     23 N22         1.3310   -4.1960   -5.8690 n4        1 UA1     -0.090000
     24 C23         1.4590   -4.6390   -7.2810 c3        1 UA1     -0.198000
     25 O21        -0.2730   -2.6460   -6.5820 o         1 UA1     -0.138000
     26 C66        -1.9340   -3.8050   -4.3960 c3        1 UA1     -0.117000
     27 C7         -2.7170   -3.3380   -3.2300 ca        1 UA1     -0.168000
     28 C4         -3.3410   -2.0800   -3.2880 ca        1 UA1     -0.118500
     29 C2         -3.5760   -1.3850   -2.1110 ca        1 UA1     -0.131500
     30 C3         -2.6700   -4.0300   -2.0150 ca        1 UA1     -0.118500
     31 C6         -2.9210   -3.3480   -0.8290 ca        1 UA1     -0.131500
     32 C5         -3.1710   -1.9570   -0.8790 ca        1 UA1      0.096000
     33 N9         -2.8250   -1.1230    0.1920 nh        1 UA1     -0.859000
     34 S14        -1.3680   -0.3330    0.0600 s6        1 UA1      2.880000
     35 O15        -0.4850   -1.2060   -0.7200 o         1 UA1     -1.092667
     36 O16        -1.4990    0.8620   -0.6670 o         1 UA1     -1.092667
     37 O17        -0.8770   -0.1320    1.3880 o         1 UA1     -1.092667
     38 H551       -0.4050    2.0110    2.0380 hc        1 UA1      0.168556
     39 H552        1.1280    2.4670    2.9070 hc        1 UA1      0.168556
     40 H553       -0.5010    2.7430    3.6970 hc        1 UA1      0.168556
     41 H541        1.3990   -0.9430    4.1470 hc        1 UA1      0.168556
     42 H542        2.2170    0.3990    3.2050 hc        1 UA1      0.168556
     43 H543        1.0660   -0.7410    2.3720 hc        1 UA1      0.168556
     44 H531       -0.7750   -0.5970    5.0550 hc        1 UA1      0.168556
     45 H532       -1.6930   -0.3560    3.5050 hc        1 UA1      0.168556
     46 H533       -1.6690    0.9710    4.7500 hc        1 UA1      0.168556
     47 HN32        2.8960    0.2010   -1.9720 hn        1 UA1      0.208000
     48 H31         0.1080    0.3930   -2.5020 h1        1 UA1      0.164000
     49 H341        2.4560    0.8480   -4.5150 hc        1 UA1      0.110500
     50 H342        0.7430    1.4420   -4.6200 hc        1 UA1      0.110500
     51 H39         4.0790    1.9660   -3.1570 ha        1 UA1      0.138500
     52 H42         0.5570    5.2510   -1.8100 ha        1 UA1      0.160500
     53 HO47        2.3620    6.4800   -1.0200 ho        1 UA1      0.234000
     54 H41         4.7240    4.0400   -1.9180 ha        1 UA1      0.160500
     55 H40        -0.0820    3.1700   -3.0120 ha        1 UA1      0.138500
     56 HN19       -1.1690   -1.3740   -3.8680 hn        1 UA1      0.310000
     57 H11         0.0880   -4.0110   -3.5390 hx        1 UA1      0.181000
     58 HN22        2.1730   -3.6530   -5.6060 hn        1 UA1      0.273000
     59 H231        0.5720   -5.2690   -7.5600 hx        1 UA1      0.163333
     60 H232        1.5020   -3.7390   -7.9560 hx        1 UA1      0.163333
     61 H233        2.4040   -5.2390   -7.3870 hx        1 UA1      0.163333
     62 H661       -2.3670   -3.4100   -5.3540 hc        1 UA1      0.135500
     63 H662       -1.9010   -4.9250   -4.4530 hc        1 UA1      0.135500
     64 H4         -3.6140   -1.6370   -4.2590 ha        1 UA1      0.153500
     65 H2         -4.0060   -0.3690   -2.1360 ha        1 UA1      0.173500
     66 H3         -2.3760   -5.0910   -1.9880 ha        1 UA1      0.153500
     67 H6         -2.8370   -3.8680    0.1380 ha        1 UA1      0.173500
     68 HN9        -3.4250   -1.1230    0.9770 hn        1 UA1      0.257000
     69 H322        1.6160   -0.2940   -1.0260 hn        1 UA1      0.208000
     70 H192       -0.4320   -2.0780   -2.5310 hn        1 UA1      0.310000
     71 H222        1.2690   -5.0150   -5.2540 hn        1 UA1      0.273000
@<TRIPOS>BOND
     1    1    2 1   
     2    2    3 1   
     3    4    5 1   
     4    4    6 1   
     5    4    7 1   
     6    5   38 1   
     7    5   39 1   
     8    5   40 1   
     9    6   41 1   
    10    6   42 1   
    11    6   43 1   
    12    7   44 1   
    13    7   45 1   
    14    7   46 1   
    15    8    9 1   
    16    8   47 1   
    17    8   69 1   
    18    9   10 1   
    19    9   18 1   
    20    9   48 1   
    21   10   11 1   
    22   10   49 1   
    23   10   50 1   
    24   11   12 1   
    25   11   17 1   
    26   12   16 1   
    27   12   51 1   
    28   13   14 1   
    29   13   17 1   
    30   13   52 1   
    31   14   15 1   
    32   14   16 1   
    33   15   53 1   
    34   16   54 1   
    35   17   55 1   
    36   18   19 1   
    37   18   20 1   
    38   20   21 1   
    39   20   56 1   
    40   20   70 1   
    41   21   22 1   
    42   21   26 1   
    43   21   57 1   
    44   22   23 1   
    45   22   25 1   
    46   23   24 1   
    47   23   58 1   
    48   23   71 1   
    49   24   59 1   
    50   24   60 1   
    51   24   61 1   
    52   26   27 1   
    53   26   62 1   
    54   26   63 1   
    55   27   28 1   
    56   27   30 1   
    57   28   29 1   
    58   28   64 1   
    59   29   32 1   
    60   29   65 1   
    61   30   31 1   
    62   30   66 1   
    63   31   32 1   
    64   31   67 1   
    65   32   33 1   
    66   33   34 1   
    67   33   68 1   
    68   34   35 1   
    69   34   36 1   
    70   34   37 1   
@<TRIPOS>SUBSTRUCTURE
     1 UA1         1 TEMP              0 ****  ****    0 ROOT
