@<TRIPOS>MOLECULE
UA1
   68    63     1     0     0
SMALL
bcc


@<TRIPOS>ATOM
      1 O50         1.3810    0.4540    1.9730 o         1 UA1     -0.420000
      2 C49         0.8000    0.7580    2.9970 c1        1 UA1      0.403000
      3 O51         1.2350    0.2250    4.2500 o         1 UA1     -0.284000
      4 C52         2.4060   -0.5810    4.1590 c3        1 UA1      0.117000
      5 C55         3.5790    0.2800    3.7340 c3        1 UA1     -0.234333
      6 C54         2.7010   -1.2100    5.5280 c3        1 UA1     -0.234333
      7 C53         2.1830   -1.6810    3.1330 c3        1 UA1     -0.234333
      8 N32        -0.3360    1.6690    2.9480 n3        1 UA1     -0.339000
      9 C31        -1.0270    1.8740    1.7230 c3        1 UA1      0.022000
     10 C34        -0.2100    2.8120    0.8200 c3        1 UA1     -0.131000
     11 C37        -0.3510    4.2580    1.3190 c2        1 UA1     -0.102000
     12 C39         0.7320    4.8890    1.9180 c2        1 UA1     -0.077000
     13 C42         0.6630    6.2540    2.2310 c1        1 UA1     -0.215000
     14 C38        -0.4920    6.9790    1.9420 c1        1 UA1      0.072000
     15 O47        -0.5750    8.3280    2.2940 oh        1 UA1     -0.257000
     16 C41        -1.5830    6.3450    1.3400 c1        1 UA1     -0.160000
     17 C40        -1.5170    4.9890    1.0280 c1        1 UA1     -0.095000
     18 C28        -1.2200    0.5380    1.0240 c2        1 UA1      0.267000
     19 O30        -1.0990   -0.4800    1.6370 o         1 UA1     -0.370000
     20 N19        -1.5790    0.5000   -0.3820 n         1 UA1     -0.347000
     21 C11        -1.1310   -0.5940   -1.2130 c3        1 UA1      0.000000
     22 C20         0.3290   -0.7420   -1.0820 c2        1 UA1      0.282000
     23 N22         0.9160   -2.0400   -1.0880 n         1 UA1     -0.350000
     24 C23         2.3420   -2.1880   -1.3050 c3        1 UA1     -0.080000
     25 O21         1.0240    0.2410   -0.8630 o         1 UA1     -0.417000
     26 C66        -1.4850   -0.3050   -2.6670 c3        1 UA1     -0.102000
     27 C7         -1.5490   -1.6460   -3.4630 c2        1 UA1     -0.205000
     28 C4         -2.7850   -2.1340   -3.9130 c2        1 UA1     -0.095000
     29 C2         -2.8380   -3.2940   -4.6990 c1        1 UA1     -0.206000
     30 C3         -0.3740   -2.3140   -3.7970 c1        1 UA1     -0.078000
     31 C6         -0.4260   -3.4760   -4.5860 c1        1 UA1     -0.248000
     32 C5         -1.6620   -3.9630   -5.0350 c1        1 UA1      0.179000
     33 N9         -1.7140   -5.1330   -5.8410 n3        1 UA1     -0.766000
     34 S14        -2.7950   -6.3190   -5.4950 s4        1 UA1      2.051800
     35 O15        -2.4070   -7.0240   -4.2290 os        1 UA1     -1.052000
     36 O16        -4.2110   -5.7700   -5.4090 o         1 UA1     -0.661900
     37 O17        -2.9260   -7.2880   -6.6440 o         1 UA1     -0.661900
     38 H551        4.4160   -0.2400    3.8130 hc        1 UA1      0.092444
     39 H552        3.6300    1.0720    4.3130 hc        1 UA1      0.092444
     40 H553        3.4560    0.5630    2.8000 hc        1 UA1      0.092444
     41 H541        2.8930   -0.4840    6.1960 hc        1 UA1      0.092444
     42 H542        3.5000   -1.8180    5.4530 hc        1 UA1      0.092444
     43 H543        1.9180   -1.7320    5.8250 hc        1 UA1      0.092444
     44 H531        1.2130   -1.8240    3.0110 hc        1 UA1      0.092444
     45 H532        2.5950   -2.5020    3.4430 hc        1 UA1      0.092444
     46 H533        2.5790   -1.4200    2.2890 hc        1 UA1      0.092444
     47 HN32       -0.6690    2.0240    3.7210 hn        1 UA1      0.242000
     48 H31        -1.9010    2.2760    1.9050 h1        1 UA1      0.132000
     49 H341       -0.5390    2.7520   -0.0890 hc        1 UA1      0.119000
     50 H342        0.7300    2.5510    0.8440 hc        1 UA1      0.119000
     51 H39         1.5350    4.3850    2.1190 ha        1 UA1      0.152000
     52 H42         1.4010    6.6830    2.6390 ha        1 UA1      0.130000
     53 HO47       -0.1780    8.8250    1.6640 ho        1 UA1      0.214000
     54 H41        -2.3640    6.8650    1.0790 ha        1 UA1      0.146000
     55 H40        -2.2600    4.5570    0.6170 ha        1 UA1      0.137000
     56 HN19       -2.0800    1.1800   -0.7480 hn        1 UA1      0.250000
     57 H11        -1.5720   -1.4240   -0.9280 h1        1 UA1      0.147000
     58 HN22        0.3960   -2.7840   -0.9000 hn        1 UA1      0.249000
     59 H231        2.5670   -3.1250   -1.3340 h1        1 UA1      0.081333
     60 H232        2.5890   -1.7650   -2.1580 h1        1 UA1      0.081333
     61 H233        2.8380   -1.7510   -0.5630 h1        1 UA1      0.081333
     62 H661       -2.3480    0.1360   -2.7090 hc        1 UA1      0.090500
     63 H662       -0.8020    0.2750   -3.0590 hc        1 UA1      0.090500
     64 H4         -3.5880   -1.6780   -3.6840 ha        1 UA1      0.122000
     65 H2         -3.7010   -3.6330   -5.0120 ha        1 UA1      0.178000
     66 H3          0.4640   -1.9830   -3.4920 ha        1 UA1      0.112000
     67 H6          0.3860   -3.9370   -4.8170 ha        1 UA1      0.120000
     68 HN9        -1.1010   -5.2530   -6.5240 hn        1 UA1      0.206000
@<TRIPOS>BOND
     1    1    2 1   
     2    2    8 1   
     3    3    4 1   
     4    4    5 1   
     5    4    6 1   
     6    4    7 1   
     7    5   38 1   
     8    5   39 1   
     9    5   40 1   
    10    6   41 1   
    11    6   42 1   
    12    6   43 1   
    13    7   44 1   
    14    7   45 1   
    15    7   46 1   
    16    8    9 1   
    17    8   47 1   
    18    9   10 1   
    19    9   18 1   
    20    9   48 1   
    21   10   11 1   
    22   10   49 1   
    23   10   50 1   
    24   11   12 1   
    25   11   17 1   
    26   12   13 1   
    27   12   51 1   
    28   13   52 1   
    29   14   15 1   
    30   14   16 1   
    31   15   53 1   
    32   16   54 1   
    33   17   55 1   
    34   18   19 1   
    35   18   20 1   
    36   20   21 1   
    37   20   56 1   
    38   21   22 1   
    39   21   26 1   
    40   21   57 1   
    41   22   23 1   
    42   22   25 1   
    43   23   24 1   
    44   23   58 1   
    45   24   59 1   
    46   24   60 1   
    47   24   61 1   
    48   26   27 1   
    49   26   62 1   
    50   26   63 1   
    51   27   28 1   
    52   27   30 1   
    53   28   29 1   
    54   28   64 1   
    55   29   65 1   
    56   30   66 1   
    57   31   32 1   
    58   31   67 1   
    59   32   33 1   
    60   33   34 1   
    61   33   68 1   
    62   34   36 1   
    63   34   37 1   
@<TRIPOS>SUBSTRUCTURE
     1 UA1         1 TEMP              0 ****  ****    0 ROOT
