@<TRIPOS>MOLECULE
UA1
   72    72     1     0     0
SMALL
bcc


@<TRIPOS>ATOM
      1 O50        -0.3800    0.0790   -0.9420 o         1 UA1     -0.566000
      2 C49         0.6880    0.3450   -0.3840 c         1 UA1      0.680100
      3 O51         0.9860    0.6820    0.8360 os        1 UA1     -0.407900
      4 C52        -0.1230    0.8220    1.9450 c3        1 UA1      0.251800
      5 C55         0.7560    1.2170    3.1060 c3        1 UA1     -0.144433
      6 C54        -0.7620   -0.5300    2.0910 c3        1 UA1     -0.144433
      7 C53        -1.0570    1.9080    1.4870 c3        1 UA1     -0.144433
      8 N32         1.9440    0.2810   -1.2520 n4        1 UA1     -0.669800
      9 C31         1.6170    0.4410   -2.7040 c3        1 UA1      0.070500
     10 C34         2.9110    0.5300   -3.5630 c3        1 UA1     -0.014100
     11 C37         3.8420    1.5190   -2.9760 ca        1 UA1     -0.288300
     12 C39         3.5750    2.8960   -3.0910 ca        1 UA1     -0.070500
     13 C42         4.4820    3.8360   -2.6370 ca        1 UA1     -0.180500
     14 C38         5.7050    3.4000   -2.0710 ca        1 UA1      0.212100
     15 O47         6.5470    4.3760   -1.6510 oh        1 UA1     -0.445100
     16 C41         5.9870    2.0240   -1.9620 ca        1 UA1     -0.180500
     17 C40         5.0600    1.0980   -2.4200 ca        1 UA1     -0.070500
     18 C28         0.7810   -0.7430   -3.2020 c         1 UA1      0.539100
     19 O30         1.1200   -1.9140   -3.1660 o         1 UA1     -0.393100
     20 N19        -0.5670   -0.4230   -3.7940 n4        1 UA1     -0.677800
     21 C11        -1.0880   -1.4370   -4.7910 c3        1 UA1      0.057500
     22 C20        -2.0300   -2.4400   -4.1040 c         1 UA1      0.525100
     23 N22        -2.2210   -3.7670   -4.7360 n4        1 UA1     -0.638800
     24 C23        -1.2770   -4.7870   -4.2080 c3        1 UA1      0.088100
     25 O21        -2.6300   -2.1850   -3.0650 o         1 UA1     -0.401100
     26 C66        -1.8290   -0.7150   -5.9490 c3        1 UA1     -0.033100
     27 C7         -2.4650   -1.7000   -6.8530 ca        1 UA1     -0.245300
     28 C4         -1.6850   -2.4910   -7.7130 ca        1 UA1     -0.089500
     29 C2         -2.2770   -3.4580   -8.5110 ca        1 UA1     -0.159500
     30 C3         -3.8640   -1.7830   -6.9280 ca        1 UA1     -0.089500
     31 C6         -4.4720   -2.7380   -7.7300 ca        1 UA1     -0.159500
     32 C5         -3.6820   -3.6520   -8.4710 ca        1 UA1      0.148600
     33 N9         -4.2600   -4.8070   -9.0180 nh        1 UA1     -0.868200
     34 S14        -4.2470   -6.4960   -6.9910 s4        1 UA1      1.835000
     35 O15        -3.5540   -5.6520   -6.1410 o         1 UA1     -0.579067
     36 O16        -5.5870   -6.4120   -6.9750 o         1 UA1     -0.579067
     37 O17        -3.5120   -7.3490   -7.7210 o         1 UA1     -0.698867
     38 H551        0.1000    1.3580    4.0050 hc        1 UA1      0.088367
     39 H552        1.2910    2.1760    2.9020 hc        1 UA1      0.088367
     40 H553        1.5070    0.4210    3.3340 hc        1 UA1      0.088367
     41 H541        0.0000   -1.3120    2.3310 hc        1 UA1      0.088367
     42 H542       -1.3160   -0.8190    1.1650 hc        1 UA1      0.088367
     43 H543       -1.4940   -0.4890    2.9410 hc        1 UA1      0.088367
     44 H531       -1.8050    2.1020    2.3010 hc        1 UA1      0.088367
     45 H532       -1.6120    1.6030    0.5680 hc        1 UA1      0.088367
     46 H533       -0.5050    2.8600    1.2930 hc        1 UA1      0.088367
     47 HN32        2.4280   -0.6120   -1.0830 hn        1 UA1      0.502300
     48 H31         1.0550    1.4210   -2.7990 hx        1 UA1      0.139700
     49 H341        3.3870   -0.4850   -3.6340 hc        1 UA1      0.095700
     50 H342        2.5980    0.8480   -4.5950 hc        1 UA1      0.095700
     51 H39         2.6460    3.2370   -3.5730 ha        1 UA1      0.135500
     52 H42         4.2910    4.9180   -2.7290 ha        1 UA1      0.184500
     53 HO47        7.3870    3.9830   -1.3530 ho        1 UA1      0.460000
     54 H41         6.9490    1.6880   -1.5420 ha        1 UA1      0.184500
     55 H40         5.3070    0.0250   -2.3710 ha        1 UA1      0.135500
     56 HN19       -1.2350   -0.3380   -2.9950 hn        1 UA1      0.499800
     57 H11        -0.1940   -1.9910   -5.2160 hx        1 UA1      0.145700
     58 HN22       -2.1280   -3.7120   -5.7710 hn        1 UA1      0.512800
     59 H231       -0.2210   -4.4850   -4.4290 hx        1 UA1      0.121033
     60 H232       -1.4280   -4.9090   -3.1010 hx        1 UA1      0.121033
     61 H233       -1.5150   -5.7620   -4.7280 hx        1 UA1      0.121033
     62 H661       -1.0760   -0.1060   -6.5240 hc        1 UA1      0.101700
     63 H662       -2.6050   -0.0150   -5.5330 hc        1 UA1      0.101700
     64 H4         -0.5960   -2.3350   -7.7750 ha        1 UA1      0.154500
     65 H2         -1.6500   -4.0690   -9.1840 ha        1 UA1      0.185500
     66 H3         -4.4970   -1.0810   -6.3580 ha        1 UA1      0.154500
     67 H6         -5.5750   -2.7810   -7.7830 ha        1 UA1      0.185500
     68 HN9        -5.2300   -4.6980   -9.2640 hn        1 UA1      0.438800
     69 H322        2.6040    1.0450   -0.9920 hn        1 UA1      0.502300
     70 H192       -0.5250    0.4930   -4.2660 hn        1 UA1      0.499800
     71 H222       -3.1920   -4.1120   -4.5610 hn        1 UA1      0.512800
     72 H92        -3.7330   -5.2070   -9.7770 hn        1 UA1      0.438800
@<TRIPOS>BOND
     1    1    2 2   
     2    2    3 1   
     3    2    8 1   
     4    3    4 1   
     5    4    5 1   
     6    4    6 1   
     7    4    7 1   
     8    5   38 1   
     9    5   39 1   
    10    5   40 1   
    11    6   41 1   
    12    6   42 1   
    13    6   43 1   
    14    7   44 1   
    15    7   45 1   
    16    7   46 1   
    17    8    9 1   
    18    8   47 1   
    19    8   69 1   
    20    9   10 1   
    21    9   18 1   
    22    9   48 1   
    23   10   11 1   
    24   10   49 1   
    25   10   50 1   
    26   11   12 ar  
    27   11   17 ar  
    28   12   13 ar  
    29   12   51 1   
    30   13   14 ar  
    31   13   52 1   
    32   14   15 1   
    33   14   16 ar  
    34   15   53 1   
    35   16   17 ar  
    36   16   54 1   
    37   17   55 1   
    38   18   19 2   
    39   18   20 1   
    40   20   21 1   
    41   20   56 1   
    42   20   70 1   
    43   21   22 1   
    44   21   26 1   
    45   21   57 1   
    46   22   23 1   
    47   22   25 2   
    48   23   24 1   
    49   23   58 1   
    50   23   71 1   
    51   24   59 1   
    52   24   60 1   
    53   24   61 1   
    54   26   27 1   
    55   26   62 1   
    56   26   63 1   
    57   27   28 ar  
    58   27   30 ar  
    59   28   29 ar  
    60   28   64 1   
    61   29   32 ar  
    62   29   65 1   
    63   30   31 ar  
    64   30   66 1   
    65   31   32 ar  
    66   31   67 1   
    67   32   33 1   
    68   33   68 1   
    69   33   72 1   
    70   34   35 1   
    71   34   36 1   
    72   34   37 2   
@<TRIPOS>SUBSTRUCTURE
     1 UA1         1 TEMP              0 ****  ****    0 ROOT
