@<TRIPOS>MOLECULE
UA1
   68    69     1     0     0
SMALL
bcc


@<TRIPOS>ATOM
      1 O50        -0.9730    6.8100    2.7340 o         1 UA1     -0.605000
      2 C49        -1.2280    5.8300    2.0120 c         1 UA1      0.749100
      3 O51        -2.1360    5.8780    0.9950 os        1 UA1     -0.430900
      4 C52        -2.5450    7.1670    0.4500 c3        1 UA1      0.193800
      5 C55        -1.3430    7.9620   -0.0250 c3        1 UA1     -0.122767
      6 C54        -3.4110    6.7630   -0.7420 c3        1 UA1     -0.122767
      7 C53        -3.3580    7.9260    1.4840 c3        1 UA1     -0.122767
      8 N32        -0.6440    4.5690    2.1200 n         1 UA1     -0.537900
      9 C31        -0.0800    4.1470    3.3750 c3        1 UA1      0.041700
     10 C34        -0.8510    3.0050    4.0640 c3        1 UA1     -0.050100
     11 C37        -2.2160    3.4090    4.4890 ca        1 UA1     -0.118300
     12 C39        -2.3890    4.3670    5.4950 ca        1 UA1     -0.085000
     13 C42        -3.6640    4.7290    5.9210 ca        1 UA1     -0.181000
     14 C38        -4.7810    4.1200    5.3320 ca        1 UA1      0.119100
     15 O47        -6.0720    4.4170    5.7110 oh        1 UA1     -0.502100
     16 C41        -4.6270    3.1560    4.3240 ca        1 UA1     -0.181000
     17 C40        -3.3440    2.8110    3.9110 ca        1 UA1     -0.085000
     18 C28         1.3890    3.6750    3.1970 c         1 UA1      0.648100
     19 O30         1.7500    2.5550    3.6240 o         1 UA1     -0.653100
     20 N19         2.2830    4.5630    2.6500 n         1 UA1     -0.524900
     21 C11         3.6310    4.1660    2.3110 c3        1 UA1      0.035700
     22 C20         4.5930    4.3410    3.5160 c         1 UA1      0.646100
     23 N22         4.3910    3.5100    4.5930 n         1 UA1     -0.575900
     24 C23         5.1850    3.5650    5.7750 c3        1 UA1      0.083300
     25 O21         5.5230    5.1720    3.4940 o         1 UA1     -0.625100
     26 C66         4.2100    4.9550    1.1210 c3        1 UA1     -0.018100
     27 C7          3.3340    4.8810   -0.0730 ca        1 UA1     -0.197300
     28 C4          3.3030    3.7360   -0.8730 ca        1 UA1     -0.082500
     29 C2          2.4790    3.6610   -1.9860 ca        1 UA1     -0.220000
     30 C3          2.5240    5.9680   -0.4290 ca        1 UA1     -0.082500
     31 C6          1.6960    5.9170   -1.5360 ca        1 UA1     -0.220000
     32 C5          1.6390    4.7500   -2.3510 ca        1 UA1      0.256600
     33 N9          0.8040    4.6800   -3.4380 nh        1 UA1     -0.725500
     34 S14        -0.2970    5.8640   -4.0560 s6        1 UA1      1.533700
     35 O15        -1.0020    6.3860   -2.9390 o         1 UA1     -0.734533
     36 O16         0.4820    6.8440   -4.7080 o         1 UA1     -0.734533
     37 O17        -1.1070    5.1000   -4.9350 o         1 UA1     -0.734533
     38 H551       -0.8330    7.4130   -0.8600 hc        1 UA1      0.056811
     39 H552       -1.6890    8.9500   -0.4120 hc        1 UA1      0.056811
     40 H553       -0.6250    8.1310    0.8120 hc        1 UA1      0.056811
     41 H541       -4.1840    6.0250   -0.4270 hc        1 UA1      0.056811
     42 H542       -2.7680    6.3140   -1.5440 hc        1 UA1      0.056811
     43 H543       -3.9100    7.6750   -1.1450 hc        1 UA1      0.056811
     44 H531       -2.7070    8.2510    2.3310 hc        1 UA1      0.056811
     45 H532       -3.8130    8.8260    1.0080 hc        1 UA1      0.056811
     46 H533       -4.1730    7.2770    1.8840 hc        1 UA1      0.056811
     47 HN32       -0.9990    3.8570    1.5200 hn        1 UA1      0.326500
     48 H31        -0.0540    5.0380    4.0780 h1        1 UA1      0.102700
     49 H341       -0.2560    2.6920    4.9660 hc        1 UA1      0.070700
     50 H342       -0.8930    2.1170    3.3800 hc        1 UA1      0.070700
     51 H39        -1.5080    4.8460    5.9500 ha        1 UA1      0.136500
     52 H42        -3.7930    5.4900    6.7030 ha        1 UA1      0.139500
     53 HO47       -6.0330    5.1510    6.3400 ho        1 UA1      0.415000
     54 H41        -5.5150    2.6950    3.8710 ha        1 UA1      0.139500
     55 H40        -3.2170    2.0600    3.1160 ha        1 UA1      0.136500
     56 HN19        1.9350    5.3700    2.1770 hn        1 UA1      0.342500
     57 H11         3.6280    3.0650    2.0380 h1        1 UA1      0.077700
     58 HN22        3.6270    2.8700    4.5740 hn        1 UA1      0.338500
     59 H231        4.5520    3.8500    6.6590 h1        1 UA1      0.035367
     60 H232        6.0070    4.3210    5.6590 h1        1 UA1      0.035367
     61 H233        5.6420    2.5580    5.9790 h1        1 UA1      0.035367
     62 H661        5.2190    4.5180    0.8980 hc        1 UA1      0.063700
     63 H662        4.3730    6.0220    1.4290 hc        1 UA1      0.063700
     64 H4          3.9410    2.8770   -0.6150 ha        1 UA1      0.113500
     65 H2          2.4770    2.7440   -2.5930 ha        1 UA1      0.141000
     66 H3          2.5470    6.8840    0.1820 ha        1 UA1      0.113500
     67 H6          1.0600    6.7830   -1.7870 ha        1 UA1      0.141000
     68 HN9         0.8420    3.8120   -3.9210 hn        1 UA1      0.412800
@<TRIPOS>BOND
     1    1    2 2   
     2    2    3 1   
     3    2    8 1   
     4    3    4 1   
     5    4    5 1   
     6    4    6 1   
     7    4    7 1   
     8    5   38 1   
     9    5   39 1   
    10    5   40 1   
    11    6   41 1   
    12    6   42 1   
    13    6   43 1   
    14    7   44 1   
    15    7   45 1   
    16    7   46 1   
    17    8    9 1   
    18    8   47 1   
    19    9   10 1   
    20    9   18 1   
    21    9   48 1   
    22   10   11 1   
    23   10   49 1   
    24   10   50 1   
    25   11   12 ar  
    26   11   17 ar  
    27   12   13 ar  
    28   12   51 1   
    29   13   14 ar  
    30   13   52 1   
    31   14   15 1   
    32   14   16 ar  
    33   15   53 1   
    34   16   17 ar  
    35   16   54 1   
    36   17   55 1   
    37   18   19 2   
    38   18   20 1   
    39   20   21 1   
    40   20   56 1   
    41   21   22 1   
    42   21   26 1   
    43   21   57 1   
    44   22   23 1   
    45   22   25 2   
    46   23   24 1   
    47   23   58 1   
    48   24   59 1   
    49   24   60 1   
    50   24   61 1   
    51   26   27 1   
    52   26   62 1   
    53   26   63 1   
    54   27   28 ar  
    55   27   30 ar  
    56   28   29 ar  
    57   28   64 1   
    58   29   32 ar  
    59   29   65 1   
    60   30   31 ar  
    61   30   66 1   
    62   31   32 ar  
    63   31   67 1   
    64   32   33 1   
    65   33   34 1   
    66   33   68 1   
    67   34   35 1   
    68   34   36 1   
    69   34   37 1   
@<TRIPOS>SUBSTRUCTURE
     1 UA1         1 TEMP              0 ****  ****    0 ROOT
