@<TRIPOS>MOLECULE
UA1
   71    72     1     0     0
SMALL
bcc


@<TRIPOS>ATOM
      1 O50        -0.5720   -0.3920   -0.8490 o         1 UA1     -0.535000
      2 C49         0.4880    0.0330   -0.3900 c         1 UA1      0.669100
      3 O51         0.8170    0.4580    0.8040 os        1 UA1     -0.402900
      4 C52        -0.2130    0.4470    1.9550 c3        1 UA1      0.231800
      5 C55         0.6480    1.0000    3.0700 c3        1 UA1     -0.139767
      6 C54        -0.6320   -0.9830    2.1780 c3        1 UA1     -0.139767
      7 C53        -1.3430    1.3620    1.5620 c3        1 UA1     -0.139767
      8 N32         1.6810    0.1050   -1.3310 ny        1 UA1     -0.666800
      9 C31         1.2520    0.0580   -2.7670 c3        1 UA1      0.068500
     10 C34         2.4570    0.2710   -3.7200 c3        1 UA1     -0.024100
     11 C37         3.2350    1.4640   -3.3150 ca        1 UA1     -0.259300
     12 C39         2.9460    2.7220   -3.8600 ca        1 UA1     -0.079500
     13 C42         3.7220    3.8290   -3.5380 ca        1 UA1     -0.176500
     14 C38         4.8160    3.6770   -2.6670 ca        1 UA1      0.198100
     15 O47         5.6260    4.7020   -2.2910 oh        1 UA1     -0.454100
     16 C41         5.1260    2.4090   -2.1220 ca        1 UA1     -0.176500
     17 C40         4.3400    1.3200   -2.4560 ca        1 UA1     -0.079500
     18 C28         0.6200   -1.3050   -3.0760 c         1 UA1      0.521100
     19 O30         1.1790   -2.3740   -2.8850 o         1 UA1     -0.377100
     20 N19        -0.7650   -1.3080   -3.6390 ny        1 UA1     -0.667800
     21 C11        -1.0760   -2.5070   -4.5130 c3        1 UA1      0.032500
     22 C20        -1.8120   -3.5880   -3.7020 c         1 UA1      0.532100
     23 N22        -1.8460   -4.9550   -4.2350 ny        1 UA1     -0.649800
     24 C23        -2.5000   -5.9360   -3.3290 c3        1 UA1      0.095100
     25 O21        -2.3580   -3.3220   -2.6310 o         1 UA1     -0.454100
     26 C66        -1.9060   -2.0890   -5.7710 c3        1 UA1      0.004900
     27 C7         -1.8820   -3.2450   -6.6800 ca        1 UA1     -0.329300
     28 C4         -3.0490   -3.9330   -7.0550 ca        1 UA1     -0.077000
     29 C2         -2.9640   -5.2120   -7.5780 ca        1 UA1     -0.222500
     30 C3         -0.6390   -3.7170   -7.1570 ca        1 UA1     -0.077000
     31 C6         -0.5300   -4.9950   -7.6430 ca        1 UA1     -0.222500
     32 C5         -1.6870   -5.8510   -7.6650 ca        1 UA1      0.279600
     33 N9         -1.5140   -7.1960   -7.5910 nu        1 UA1     -0.686500
     34 S14        -0.3060   -7.8210   -6.4640 s6        1 UA1      1.562700
     35 O15         0.9420   -7.4620   -6.9630 o         1 UA1     -0.722533
     36 O16        -0.6210   -7.0070   -5.2960 o         1 UA1     -0.722533
     37 O17        -0.6470   -9.1540   -6.2910 o         1 UA1     -0.722533
     38 H551        0.0220    1.0540    3.9980 hc        1 UA1      0.084256
     39 H552        1.5260    0.3380    3.2660 hc        1 UA1      0.084256
     40 H553        1.0140    2.0260    2.8230 hc        1 UA1      0.084256
     41 H541        0.2540   -1.6360    2.3680 hc        1 UA1      0.084256
     42 H542       -1.2050   -1.3760    1.3030 hc        1 UA1      0.084256
     43 H543       -1.2960   -1.0260    3.0800 hc        1 UA1      0.084256
     44 H531       -1.9110    0.9510    0.6920 hc        1 UA1      0.084256
     45 H532       -2.0480    1.4550    2.4290 hc        1 UA1      0.084256
     46 H533       -0.9640    2.3830    1.3110 hc        1 UA1      0.084256
     47 HN32        2.3220   -0.6760   -1.1240 hn        1 UA1      0.500800
     48 H31         0.5140    0.9060   -2.9100 hx        1 UA1      0.135700
     49 H341        2.0410    0.4000   -4.7560 hc        1 UA1      0.101700
     50 H342        3.1050   -0.6480   -3.7180 hc        1 UA1      0.101700
     51 H39         2.1100    2.8410   -4.5670 ha        1 UA1      0.137000
     52 H42         3.4980    4.8130   -3.9800 ha        1 UA1      0.180000
     53 HO47        5.3830    5.5060   -2.7840 ho        1 UA1      0.454000
     54 H41         6.0040    2.3090   -1.4630 ha        1 UA1      0.180000
     55 H40         4.6220    0.3230   -2.0830 ha        1 UA1      0.137000
     56 HN19       -0.9160   -0.4590   -4.2010 hn        1 UA1      0.492800
     57 H11        -0.0830   -2.9320   -4.8720 hx        1 UA1      0.158700
     58 HN22       -2.3370   -4.9620   -5.1550 hn        1 UA1      0.530300
     59 H231       -2.2840   -6.9620   -3.7620 hx        1 UA1      0.121367
     60 H232       -2.0540   -5.8620   -2.3040 hx        1 UA1      0.121367
     61 H233       -3.6020   -5.7390   -3.2820 hx        1 UA1      0.121367
     62 H661       -1.4110   -1.1990   -6.2460 hc        1 UA1      0.078700
     63 H662       -2.9480   -1.8070   -5.4720 hc        1 UA1      0.078700
     64 H4         -4.0360   -3.4670   -6.9050 ha        1 UA1      0.135000
     65 H2         -3.8710   -5.7520   -7.8890 ha        1 UA1      0.190000
     66 H3          0.2460   -3.0640   -7.1250 ha        1 UA1      0.135000
     67 H6          0.4440   -5.4010   -7.9820 ha        1 UA1      0.190000
     68 HN9        -2.2490   -7.7720   -7.9300 hn        1 UA1      0.450800
     69 H322        2.2100    0.9890   -1.1800 hn        1 UA1      0.500800
     70 H192       -1.4240   -1.2840   -2.8310 hn        1 UA1      0.492800
     71 H222       -0.8750   -5.3350   -4.4530 hn        1 UA1      0.530300
@<TRIPOS>BOND
     1    1    2 2   
     2    2    3 1   
     3    2    8 1   
     4    3    4 1   
     5    4    5 1   
     6    4    6 1   
     7    4    7 1   
     8    5   38 1   
     9    5   39 1   
    10    5   40 1   
    11    6   41 1   
    12    6   42 1   
    13    6   43 1   
    14    7   44 1   
    15    7   45 1   
    16    7   46 1   
    17    8    9 1   
    18    8   47 1   
    19    8   69 1   
    20    9   10 1   
    21    9   18 1   
    22    9   48 1   
    23   10   11 1   
    24   10   49 1   
    25   10   50 1   
    26   11   12 ar  
    27   11   17 ar  
    28   12   13 ar  
    29   12   51 1   
    30   13   14 ar  
    31   13   52 1   
    32   14   15 1   
    33   14   16 ar  
    34   15   53 1   
    35   16   17 ar  
    36   16   54 1   
    37   17   55 1   
    38   18   19 2   
    39   18   20 1   
    40   20   21 1   
    41   20   56 1   
    42   20   70 1   
    43   21   22 1   
    44   21   26 1   
    45   21   57 1   
    46   22   23 1   
    47   22   25 2   
    48   23   24 1   
    49   23   58 1   
    50   23   71 1   
    51   24   59 1   
    52   24   60 1   
    53   24   61 1   
    54   26   27 1   
    55   26   62 1   
    56   26   63 1   
    57   27   28 ar  
    58   27   30 ar  
    59   28   29 ar  
    60   28   64 1   
    61   29   32 ar  
    62   29   65 1   
    63   30   31 ar  
    64   30   66 1   
    65   31   32 ar  
    66   31   67 1   
    67   32   33 1   
    68   33   34 1   
    69   33   68 1   
    70   34   35 1   
    71   34   36 1   
    72   34   37 1   
@<TRIPOS>SUBSTRUCTURE
     1 UA1         1 TEMP              0 ****  ****    0 ROOT
