@<TRIPOS>MOLECULE
UA2
   34    36     1     0     0
SMALL
bcc


@<TRIPOS>ATOM
      1 C2          0.0100    0.0510    0.0790 ca        1 UA2      0.638900
      2 C4          2.0310    0.0480    1.1200 ca        1 UA2      0.457100
      3 C5          1.3440    0.0050    2.4030 ca        1 UA2     -0.323800
      4 C6         -0.0870   -0.0180    2.4100 ca        1 UA2      0.650200
      5 O5'         8.5710   -1.3180    1.5060 oh        1 UA2     -0.599800
      6 C5'         8.0450   -0.0010    1.5290 c3        1 UA2      0.140400
      7 C4'         6.9380    0.0530    0.4650 c3        1 UA2      0.167500
      8 N4'         5.7270   -0.6470    0.8920 n7        1 UA2     -0.825200
      9 C3'         6.5500    1.5260    0.1740 c3        1 UA2      0.096100
     10 O3'         7.0990    1.8620   -1.0870 oh        1 UA2     -0.600800
     11 C2'         5.0020    1.5600    0.1410 c3        1 UA2      0.105100
     12 O2'         4.5440    2.0440   -1.0990 oh        1 UA2     -0.585800
     13 C1'         4.5450    0.0960    0.4340 c3        1 UA2      0.220700
     14 C9          3.4500    0.0630    1.4320 cc        1 UA2     -0.260000
     15 N3          1.3520    0.0650   -0.0550 nb        1 UA2     -0.675000
     16 N1         -0.7450    0.0040    1.2180 nb        1 UA2     -0.750000
     17 C8          3.5600    0.0270    2.8240 cd        1 UA2     -0.055100
     18 N7          2.3000   -0.0390    3.4170 na        1 UA2     -0.168400
     19 N6         -0.7750    0.0180    3.6360 nv        1 UA2     -0.915500
     20 H2         -0.5770    0.0730   -0.8640 h5        1 UA2      0.052100
     21 HO5'        9.1850   -1.3820    2.2460 ho        1 UA2      0.400000
     22 H5'1        7.6510    0.2480    2.5490 h1        1 UA2      0.030200
     23 H5'2        8.8510    0.7310    1.2500 h1        1 UA2      0.030200
     24 H4'         7.3690   -0.3970   -0.4810 h1        1 UA2      0.070700
     25 HN4'        5.7190   -1.5910    0.5640 hn        1 UA2      0.383800
     26 H3'         6.9490    2.2220    0.9580 h1        1 UA2      0.050700
     27 HO3'        6.7050    2.7070   -1.3470 ho        1 UA2      0.419000
     28 H2'         4.5870    2.2770    0.8970 h1        1 UA2      0.094700
     29 HO2'        4.7850    1.3970   -1.7770 ho        1 UA2      0.412000
     30 H1'         4.1370   -0.3370   -0.5310 h1        1 UA2      0.060700
     31 H8          4.4690    0.0080    3.4330 h4        1 UA2      0.182000
     32 HN7         2.1090    0.1140    4.3720 hn        1 UA2      0.302700
     33 HN61       -1.7700   -0.0390    3.5560 hn        1 UA2      0.397800
     34 HN62       -0.4080   -0.6270    4.3020 hn        1 UA2      0.397800
@<TRIPOS>BOND
     1    1   15 ar  
     2    1   16 ar  
     3    1   20 1   
     4    2    3 ar  
     5    2   14 1   
     6    2   15 ar  
     7    3    4 ar  
     8    3   18 1   
     9    4   16 ar  
    10    4   19 1   
    11    5    6 1   
    12    5   21 1   
    13    6    7 1   
    14    6   22 1   
    15    6   23 1   
    16    7    8 1   
    17    7    9 1   
    18    7   24 1   
    19    8   13 1   
    20    8   25 1   
    21    9   10 1   
    22    9   11 1   
    23    9   26 1   
    24   10   27 1   
    25   11   12 1   
    26   11   13 1   
    27   11   28 1   
    28   12   29 1   
    29   13   14 1   
    30   13   30 1   
    31   14   17 2   
    32   17   18 1   
    33   17   31 1   
    34   18   32 1   
    35   19   33 1   
    36   19   34 1   
@<TRIPOS>SUBSTRUCTURE
     1 UA2         1 TEMP              0 ****  ****    0 ROOT
