@<TRIPOS>MOLECULE
UA2
   34    36     1     0     0
SMALL
bcc


@<TRIPOS>ATOM
      1 C2         -3.2240   -1.7990    0.0540 ca        1 UA2      0.643900
      2 C4         -1.5890   -0.2210    0.1250 ca        1 UA2      0.447100
      3 C5         -2.5680    0.7830   -0.2610 ca        1 UA2     -0.323800
      4 C6         -3.9230    0.3680   -0.4640 ca        1 UA2      0.657200
      5 O5'         4.7480    2.0550    0.4390 oh        1 UA2     -0.603800
      6 C5'         4.0990    1.2660   -0.5450 c3        1 UA2      0.139400
      7 C4'         3.2520    0.2270    0.2020 c3        1 UA2      0.135500
      8 N4'         2.0490    0.8120    0.7960 n3        1 UA2     -0.818200
      9 C3'         2.8010   -0.8950   -0.7750 c3        1 UA2      0.145100
     10 O3'         3.7010   -1.9740   -0.7810 oh        1 UA2     -0.584800
     11 C2'         1.3690   -1.2630   -0.3250 c3        1 UA2      0.109100
     12 O2'         1.4270   -2.5160    0.3270 oh        1 UA2     -0.612800
     13 C1'         0.9440   -0.1480    0.6850 c3        1 UA2      0.213700
     14 C9         -0.3270    0.4860    0.2630 cc        1 UA2     -0.264000
     15 N3         -1.9230   -1.5280    0.2830 nb        1 UA2     -0.701000
     16 N1         -4.2350   -0.9480   -0.2930 nb        1 UA2     -0.751000
     17 C8         -0.5780    1.8250   -0.0430 cd        1 UA2     -0.052100
     18 N7         -1.9310    2.0220   -0.3220 na        1 UA2     -0.168400
     19 N6         -4.8760    1.2990   -0.9080 nh        1 UA2     -0.918500
     20 H2         -3.5330   -2.8600    0.1690 h5        1 UA2      0.052100
     21 HO5'        5.2420    2.7340   -0.0350 ho        1 UA2      0.399000
     22 H5'1        3.4690    1.9130   -1.2110 h1        1 UA2      0.033200
     23 H5'2        4.8640    0.7240   -1.1650 h1        1 UA2      0.033200
     24 H4'         3.9180   -0.2340    0.9920 h1        1 UA2      0.055700
     25 HN4'        2.2110    1.0750    1.7470 hn        1 UA2      0.377800
     26 H3'         2.7920   -0.5240   -1.8360 h1        1 UA2      0.082700
     27 HO3'        3.5780   -2.4760    0.0360 ho        1 UA2      0.423000
     28 H2'         0.6680   -1.3070   -1.1980 h1        1 UA2      0.067700
     29 HO2'        0.5150   -2.7930    0.4820 ho        1 UA2      0.433000
     30 H1'         0.7470   -0.6530    1.6830 h1        1 UA2      0.057700
     31 H8          0.1260    2.6640   -0.0570 h4        1 UA2      0.188000
     32 HN7        -2.3120    2.8220   -0.7570 hn        1 UA2      0.302700
     33 HN61       -4.8240    2.1700   -0.4270 hn        1 UA2      0.401300
     34 HN62       -5.8080    0.9480   -0.9760 hn        1 UA2      0.401300
@<TRIPOS>BOND
     1    1   15 ar  
     2    1   16 ar  
     3    1   20 1   
     4    2    3 ar  
     5    2   14 1   
     6    2   15 ar  
     7    3    4 ar  
     8    3   18 1   
     9    4   16 ar  
    10    4   19 1   
    11    5    6 1   
    12    5   21 1   
    13    6    7 1   
    14    6   22 1   
    15    6   23 1   
    16    7    8 1   
    17    7    9 1   
    18    7   24 1   
    19    8   13 1   
    20    8   25 1   
    21    9   10 1   
    22    9   11 1   
    23    9   26 1   
    24   10   27 1   
    25   11   12 1   
    26   11   13 1   
    27   11   28 1   
    28   12   29 1   
    29   13   14 1   
    30   13   30 1   
    31   14   17 2   
    32   17   18 1   
    33   17   31 1   
    34   18   32 1   
    35   19   33 1   
    36   19   34 1   
@<TRIPOS>SUBSTRUCTURE
     1 UA2         1 TEMP              0 ****  ****    0 ROOT
