@<TRIPOS>MOLECULE
UA2
   35    37     1     0     0
SMALL
bcc


@<TRIPOS>ATOM
      1 C2          0.0020    0.2340    0.0570 ca        1 UA2      0.646900
      2 C4          2.0240    0.0520    1.1060 ca        1 UA2      0.484100
      3 C5          1.3200   -0.0730    2.4140 ca        1 UA2     -0.246800
      4 C6         -0.0830   -0.0110    2.3600 ca        1 UA2      0.435200
      5 O5'         8.5600   -1.1250    1.6740 oh        1 UA2     -0.596800
      6 C5'         7.9940    0.1670    1.5520 c3        1 UA2      0.140400
      7 C4'         6.9320    0.0780    0.4430 c3        1 UA2      0.135500
      8 N4'         5.7390   -0.6500    0.8810 n3        1 UA2     -0.820200
      9 C3'         6.4970    1.5010   -0.0090 c3        1 UA2      0.097100
     10 O3'         6.7220    1.6600   -1.3970 oh        1 UA2     -0.600800
     11 C2'         4.9680    1.5650    0.2160 c3        1 UA2      0.157100
     12 O2'         4.2500    2.1650   -0.8260 oh        1 UA2     -0.575800
     13 C1'         4.5450    0.0730    0.4370 c3        1 UA2      0.191700
     14 C9          3.4430   -0.0260    1.4280 cc        1 UA2     -0.205000
     15 N3          1.3610    0.1960   -0.0460 nb        1 UA2     -0.578000
     16 N1         -0.7490    0.1430    1.1820 nb        1 UA2     -0.670000
     17 C8          3.5440   -0.1980    2.8040 cd        1 UA2     -0.026100
     18 N7          2.2720   -0.2180    3.4050 na        1 UA2     -0.194400
     19 N6         -0.8960   -0.1110    3.5860 n4        1 UA2     -0.815300
     20 H2         -0.5660    0.3580   -0.8950 h5        1 UA2      0.097100
     21 HO5'        9.2430   -1.0680    2.3530 ho        1 UA2      0.410000
     22 H5'1        8.7830    0.9050    1.2410 h1        1 UA2      0.028700
     23 H5'2        7.5480    0.4930    2.5290 h1        1 UA2      0.028700
     24 H4'         7.4190   -0.4430   -0.4360 h1        1 UA2      0.074700
     25 HN4'        5.7480   -1.5920    0.5430 hn        1 UA2      0.388800
     26 H3'         7.0210    2.3020    0.5740 h1        1 UA2      0.064700
     27 HO3'        7.6580    1.8590   -1.5170 ho        1 UA2      0.426000
     28 H2'         4.7340    2.1840    1.1240 h1        1 UA2      0.081700
     29 HO2'        4.5880    1.8290   -1.6690 ho        1 UA2      0.433000
     30 H1'         4.1520   -0.3210   -0.5500 h1        1 UA2      0.072700
     31 H8          4.4480   -0.3180    3.4150 h4        1 UA2      0.216000
     32 HN7         2.1060   -0.3710    4.3650 hn        1 UA2      0.309700
     33 HN61       -0.6420    0.6520    4.2210 hn        1 UA2      0.469467
     34 HN62       -0.7210   -1.0150    4.0360 hn        1 UA2      0.469467
     35 H63        -1.9000   -0.0380    3.3590 hn        1 UA2      0.469467
@<TRIPOS>BOND
     1    1   15 ar  
     2    1   16 ar  
     3    1   20 1   
     4    2    3 ar  
     5    2   14 1   
     6    2   15 ar  
     7    3    4 ar  
     8    3   18 1   
     9    4   16 ar  
    10    4   19 1   
    11    5    6 1   
    12    5   21 1   
    13    6    7 1   
    14    6   22 1   
    15    6   23 1   
    16    7    8 1   
    17    7    9 1   
    18    7   24 1   
    19    8   13 1   
    20    8   25 1   
    21    9   10 1   
    22    9   11 1   
    23    9   26 1   
    24   10   27 1   
    25   11   12 1   
    26   11   13 1   
    27   11   28 1   
    28   12   29 1   
    29   13   14 1   
    30   13   30 1   
    31   14   17 2   
    32   17   18 1   
    33   17   31 1   
    34   18   32 1   
    35   19   33 1   
    36   19   34 1   
    37   19   35 1   
@<TRIPOS>SUBSTRUCTURE
     1 UA2         1 TEMP              0 ****  ****    0 ROOT
