@<TRIPOS>MOLECULE
UA2
   34    36     1     0     0
SMALL
bcc


@<TRIPOS>ATOM
      1 C2          0.2030    0.8300    0.2060 ca        1 UA2      0.643900
      2 C4          2.1270    0.1340    1.1970 ca        1 UA2      0.447100
      3 C5          1.4060   -0.0090    2.4520 ca        1 UA2     -0.323800
      4 C6          0.0080    0.2990    2.4720 ca        1 UA2      0.657200
      5 O5'         8.7720   -0.8920    1.6760 oh        1 UA2     -0.603800
      6 C5'         8.0300    0.3130    1.5660 c3        1 UA2      0.139400
      7 C4'         6.9400    0.0710    0.5130 c3        1 UA2      0.135500
      8 N4'         5.8550   -0.7710    1.0170 n3        1 UA2     -0.817200
      9 C3'         6.3210    1.4260    0.0660 c3        1 UA2      0.145100
     10 O3'         6.9720    1.9500   -1.0630 oh        1 UA2     -0.584800
     11 C2'         4.8200    1.1260   -0.1450 c3        1 UA2      0.109100
     12 O2'         4.5740    1.1040   -1.5380 oh        1 UA2     -0.612800
     13 C1'         4.5810   -0.2920    0.4680 c3        1 UA2      0.213700
     14 C9          3.4990   -0.2500    1.4810 cc        1 UA2     -0.264000
     15 N3          1.5160    0.5600    0.0610 nb        1 UA2     -0.701000
     16 N1         -0.5840    0.7190    1.3180 nb        1 UA2     -0.751000
     17 C8          3.5550   -0.5820    2.8360 cd        1 UA2     -0.052100
     18 N7          2.2920   -0.4770    3.4220 na        1 UA2     -0.168400
     19 N6         -0.6990    0.2430    3.6840 nh        1 UA2     -0.918500
     20 H2         -0.3300    1.1850   -0.7010 h5        1 UA2      0.052100
     21 HO5'        9.4250   -0.7500    2.3700 ho        1 UA2      0.399000
     22 H5'1        7.5910    0.5930    2.5590 h1        1 UA2      0.033200
     23 H5'2        8.6990    1.1400    1.2040 h1        1 UA2      0.033200
     24 H4'         7.4460   -0.4020   -0.3820 h1        1 UA2      0.055700
     25 HN4'        6.0130   -1.7320    0.7900 hn        1 UA2      0.377800
     26 H3'         6.4530    2.2090    0.8620 h1        1 UA2      0.082700
     27 HO3'        6.6980    1.4380   -1.8360 ho        1 UA2      0.423000
     28 H2'         4.1780    1.8970    0.3540 h1        1 UA2      0.067700
     29 HO2'        3.6160    1.0500   -1.6510 ho        1 UA2      0.433000
     30 H1'         4.2240   -0.9670   -0.3710 h1        1 UA2      0.057700
     31 H8          4.4190   -0.9120    3.4200 h4        1 UA2      0.188000
     32 HN7         2.1160   -0.4600    4.3920 hn        1 UA2      0.302700
     33 HN61       -1.6790    0.4190    3.6080 hn        1 UA2      0.401300
     34 HN62       -0.4920   -0.5730    4.2180 hn        1 UA2      0.401300
@<TRIPOS>BOND
     1    1   15 ar  
     2    1   16 ar  
     3    1   20 1   
     4    2    3 ar  
     5    2   14 1   
     6    2   15 ar  
     7    3    4 ar  
     8    3   18 1   
     9    4   16 ar  
    10    4   19 1   
    11    5    6 1   
    12    5   21 1   
    13    6    7 1   
    14    6   22 1   
    15    6   23 1   
    16    7    8 1   
    17    7    9 1   
    18    7   24 1   
    19    8   13 1   
    20    8   25 1   
    21    9   10 1   
    22    9   11 1   
    23    9   26 1   
    24   10   27 1   
    25   11   12 1   
    26   11   13 1   
    27   11   28 1   
    28   12   29 1   
    29   13   14 1   
    30   13   30 1   
    31   14   17 2   
    32   17   18 1   
    33   17   31 1   
    34   18   32 1   
    35   19   33 1   
    36   19   34 1   
@<TRIPOS>SUBSTRUCTURE
     1 UA2         1 TEMP              0 ****  ****    0 ROOT
