@<TRIPOS>MOLECULE
UA3
   32    30     1     0     0
SMALL
bcc


@<TRIPOS>ATOM
      1 N1         -0.7960    0.4750   -0.9440 n         1 UA3     -0.188600
      2 C2          0.5950    0.7930   -0.6860 c         1 UA3      0.726100
      3 O2          1.3280    1.4450   -1.4500 o         1 UA3     -0.573100
      4 N3          1.1440    0.3940    0.5590 n         1 UA3     -0.611500
      5 C4          0.4320   -0.3180    1.5260 c         1 UA3      0.666100
      6 O4          0.9760   -0.5460    2.6240 o         1 UA3     -0.630100
      7 C5         -0.9680   -0.7520    1.1690 c3        1 UA3     -0.255300
      8 C6         -1.5410   -0.1650   -0.0610 c1        1 UA3     -0.065100
      9 O5'        -4.1430   -0.2670    1.0990 oh        1 UA3     -0.862500
     10 C5'        -3.5990    2.1040   -1.6510 c2        1 UA3     -0.349000
     11 C4'        -2.5630    2.6360   -2.3040 c2        1 UA3      0.035100
     12 O4'        -1.3900    2.0080   -2.6600 os        1 UA3     -0.239200
     13 C3'        -1.6590   -1.6270   -3.5100 c2        1 UA3      0.276000
     14 O3'        -0.7750   -2.3360   -4.1290 os        1 UA3     -0.351500
     15 C2'        -1.5040   -0.3470   -3.1080 c1        1 UA3     -0.265800
     16 O2'        -0.9560   -3.7440   -0.0640 oh        1 UA3     -0.862500
     17 C1'        -1.2770    0.6520   -2.3150 c2        1 UA3      0.086600
     18 O3P        -0.1740   -4.7750   -4.8920 o         1 UA3     -0.895167
     19 O1P        -2.6100   -3.9840   -4.6140 o         1 UA3     -0.895167
     20 O2P        -1.1380   -4.2220   -2.5740 o         1 UA3     -0.895167
     21 H3          2.0970    0.6260    0.7260 hn        1 UA3      0.319500
     22 H5         -0.9540   -1.8790    0.9770 hc        1 UA3      0.144700
     23 H6         -1.6540   -0.5610    2.0350 hc        1 UA3      0.144700
     24 H5'        -3.7030    0.4720    0.6620 ho        1 UA3      0.427500
     25 H51        -3.7010   -1.0290    0.7040 ho        1 UA3      0.427500
     26 H52        -4.4920    2.6920   -1.4200 ha        1 UA3      0.124500
     27 H4         -3.6090    1.0520   -1.3330 ha        1 UA3      0.124500
     28 H3'        -2.5080    3.6790   -2.6600 h4        1 UA3      0.121000
     29 H2'        -2.6600   -2.1060   -3.3440 h4        1 UA3      0.157000
     30 HB         -0.2540   -3.8940   -0.7110 ho        1 UA3      0.427500
     31 H1'        -1.7440   -3.8450   -0.6140 ho        1 UA3      0.427500
     32 P          -1.2280   -4.1280   -4.0690 p5        1 UA3      1.303900
@<TRIPOS>BOND
     1    1    2 1   
     2    1    8 3   
     3    1   17 1   
     4    2    3 2   
     5    2    4 1   
     6    4    5 1   
     7    4   21 1   
     8    5    6 2   
     9    5    7 1   
    10    7    8 1   
    11    7   22 1   
    12    7   23 1   
    13    9   24 1   
    14    9   25 1   
    15   10   11 2   
    16   10   26 1   
    17   10   27 1   
    18   11   12 1   
    19   11   28 1   
    20   12   17 1   
    21   13   14 1   
    22   13   15 2   
    23   13   29 1   
    24   14   32 1   
    25   15   17 2   
    26   16   30 1   
    27   16   31 1   
    28   18   32 1   
    29   19   32 1   
    30   20   32 1   
@<TRIPOS>SUBSTRUCTURE
     1 UA3         1 TEMP              0 ****  ****    0 ROOT
