@<TRIPOS>MOLECULE
UA3
   32    30     1     0     0
SMALL
bcc


@<TRIPOS>ATOM
      1 N1         -0.8680    0.5100   -0.9270 n         1 UA3     -0.188600
      2 C2          0.5020    0.9310   -0.7170 c         1 UA3      0.726100
      3 O2          1.1540    1.6450   -1.5000 o         1 UA3     -0.573100
      4 N3          1.1270    0.5630    0.5010 ns        1 UA3     -0.611500
      5 C4          0.5090   -0.2100    1.4850 c         1 UA3      0.666100
      6 O4          1.1110   -0.4050    2.5590 o         1 UA3     -0.630100
      7 C5         -0.8660   -0.7460    1.1750 c3        1 UA3     -0.255300
      8 C6         -1.5280   -0.1930   -0.0260 c1        1 UA3     -0.065100
      9 O5'        -4.0690   -0.5010    1.2290 oh        1 UA3     -0.862500
     10 C5'        -3.8130    1.9260   -1.5100 c2        1 UA3     -0.349000
     11 C4'        -2.8460    2.5420   -2.1940 c2        1 UA3      0.035100
     12 O4'        -1.6430    2.0090   -2.6010 os        1 UA3     -0.239200
     13 C3'        -1.6660   -1.6280   -3.4850 c2        1 UA3      0.276000
     14 O3'        -0.7540   -2.2610   -4.1460 os        1 UA3     -0.351500
     15 C2'        -1.5930   -0.3430   -3.0740 c1        1 UA3     -0.265800
     16 O2'        -0.6720   -3.7170   -0.0950 oh        1 UA3     -0.862500
     17 C1'        -1.4130    0.6630   -2.2770 c2        1 UA3      0.086600
     18 O3P         0.0020   -4.6390   -4.9610 o         1 UA3     -0.895167
     19 O1P        -2.4760   -4.0390   -4.5830 o         1 UA3     -0.895167
     20 O2P        -0.9120   -4.1830   -2.6010 o         1 UA3     -0.895167
     21 H3          2.0660    0.8670    0.6360 hn        1 UA3      0.319500
     22 H5         -0.7730   -1.8680    0.9680 hc        1 UA3      0.144700
     23 H6         -1.5310   -0.6170    2.0680 hc        1 UA3      0.144700
     24 H5'        -3.7030    0.2730    0.7860 ho        1 UA3      0.427500
     25 H51        -3.5870   -1.2240    0.8090 ho        1 UA3      0.427500
     26 H52        -3.7310    0.8730   -1.2060 ha        1 UA3      0.124500
     27 H4         -4.7390    2.4410   -1.2390 ha        1 UA3      0.124500
     28 H3'        -2.8840    3.5900   -2.5390 h4        1 UA3      0.121000
     29 H2'        -2.6200   -2.1830   -3.2880 h4        1 UA3      0.157000
     30 HB          0.0140   -3.8060   -0.7700 ho        1 UA3      0.427500
     31 H1'        -1.4700   -3.8720   -0.6160 ho        1 UA3      0.427500
     32 P          -1.0670   -4.0820   -4.0910 p5        1 UA3      1.303900
@<TRIPOS>BOND
     1    1    2 1   
     2    1    8 3   
     3    1   17 1   
     4    2    3 2   
     5    2    4 1   
     6    4    5 1   
     7    4   21 1   
     8    5    6 2   
     9    5    7 1   
    10    7    8 1   
    11    7   22 1   
    12    7   23 1   
    13    9   24 1   
    14    9   25 1   
    15   10   11 2   
    16   10   26 1   
    17   10   27 1   
    18   11   12 1   
    19   11   28 1   
    20   12   17 1   
    21   13   14 1   
    22   13   15 2   
    23   13   29 1   
    24   14   32 1   
    25   15   17 2   
    26   16   30 1   
    27   16   31 1   
    28   18   32 1   
    29   19   32 1   
    30   20   32 1   
@<TRIPOS>SUBSTRUCTURE
     1 UA3         1 TEMP              0 ****  ****    0 ROOT
