@<TRIPOS>MOLECULE
UA3
   32    33     1     0     0
SMALL
bcc


@<TRIPOS>ATOM
      1 N1         -0.3090    0.3700   -2.0000 n         1 UA3     -0.345000
      2 C2         -0.4530    0.9890   -3.2640 c         1 UA3      0.802500
      3 O2         -0.8650    2.1660   -3.4070 o         1 UA3     -0.680500
      4 N3         -0.1510    0.2430   -4.4200 n         1 UA3     -0.597500
      5 C4          0.2850   -1.0940   -4.3750 c         1 UA3      0.723700
      6 O4          0.5350   -1.6660   -5.4580 o         1 UA3     -0.689500
      7 C5          0.3980   -1.6800   -3.0490 cc        1 UA3     -0.393200
      8 C6          0.1110   -0.9420   -1.9340 cd        1 UA3      0.119600
      9 O5'         3.3360    0.2930    1.6250 oh        1 UA3     -0.662800
     10 C5'         2.6250    0.6340    0.4650 c3        1 UA3      0.159400
     11 C4'         1.2540    1.2260    0.7870 c3        1 UA3      0.051100
     12 O4'         0.7080    1.8170   -0.4120 os        1 UA3     -0.443600
     13 C3'         0.2620    0.1540    1.2970 c3        1 UA3      0.185100
     14 O3'         0.0330    0.2390    2.6360 os        1 UA3     -0.537200
     15 C2'        -1.0300    0.4310    0.4700 c3        1 UA3      0.099100
     16 O2'        -1.7420   -0.7370    0.1620 oh        1 UA3     -0.679800
     17 C1'        -0.5180    1.1870   -0.7900 c3        1 UA3      0.282500
     18 O3P        -0.2060   -1.1590    4.8040 o         1 UA3     -0.916167
     19 O1P         1.6220   -1.5950    3.0320 o         1 UA3     -0.916167
     20 O2P        -0.8000   -2.0650    2.4660 o         1 UA3     -0.916167
     21 H3         -0.2540    0.7040   -5.2950 hn        1 UA3      0.325500
     22 H5          0.7140   -2.7260   -2.9840 ha        1 UA3      0.168000
     23 H6          0.1700   -1.3730   -0.9050 h4        1 UA3      0.226000
     24 H5'         2.7760   -0.3220    2.1620 ho        1 UA3      0.502000
     25 H51         3.2570    1.3960   -0.0680 h1        1 UA3      0.006200
     26 H52         2.5030   -0.2630   -0.2030 h1        1 UA3      0.006200
     27 H4          1.3510    2.0620    1.5280 h1        1 UA3      0.076700
     28 H3'         0.6560   -0.8720    1.0170 h1        1 UA3      0.059700
     29 H2'        -1.7030    1.1380    1.0280 h1        1 UA3      0.053700
     30 HB         -1.6150   -1.3530    0.9340 ho        1 UA3      0.512000
     31 H1'        -1.2080    2.0280   -1.0920 h2        1 UA3      0.087700
     32 P           0.1740   -1.3500    3.3750 p5        1 UA3      1.333900
@<TRIPOS>BOND
     1    1    2 1   
     2    1    8 1   
     3    1   17 1   
     4    2    3 2   
     5    2    4 1   
     6    4    5 1   
     7    4   21 1   
     8    5    6 2   
     9    5    7 1   
    10    7    8 2   
    11    7   22 1   
    12    8   23 1   
    13    9   10 1   
    14    9   24 1   
    15   10   11 1   
    16   10   25 1   
    17   10   26 1   
    18   11   12 1   
    19   11   13 1   
    20   11   27 1   
    21   12   17 1   
    22   13   14 1   
    23   13   15 1   
    24   13   28 1   
    25   14   32 1   
    26   15   16 1   
    27   15   17 1   
    28   15   29 1   
    29   16   30 1   
    30   17   31 1   
    31   18   32 1   
    32   19   32 1   
    33   20   32 1   
@<TRIPOS>SUBSTRUCTURE
     1 UA3         1 TEMP              0 ****  ****    0 ROOT
