@<TRIPOS>MOLECULE
UA3
   32    30     1     0     0
SMALL
bcc


@<TRIPOS>ATOM
      1 N1          0.5210   -1.3890    0.9040 n1        1 UA3     -0.746300
      2 C2          1.8870   -1.4750    0.9320 c1        1 UA3      0.846900
      3 O2          2.5160   -1.6040   -0.1200 o         1 UA3     -0.638500
      4 N3          2.5500   -1.5110    2.1320 n2        1 UA3     -0.841800
      5 C4          1.8610   -1.4630    3.2820 c1        1 UA3      0.616900
      6 O4          2.4450   -1.5500    4.3420 o         1 UA3     -0.668900
      7 C5          0.4870   -1.3770    3.2580 c1        1 UA3     -0.316500
      8 C6         -0.1750   -1.3410    2.0570 c1        1 UA3      0.500300
      9 O5'         1.4500    2.5860   -1.0140 oh        1 UA3     -0.662800
     10 C5'         1.1180    1.3010   -0.4800 c3        1 UA3      0.159400
     11 C4'         0.3170    0.5200   -1.5080 c3        1 UA3      0.051100
     12 O4'         0.5820   -1.0670   -1.3330 os        1 UA3     -0.443600
     13 C3'        -0.9270    0.6960   -1.3200 c3        1 UA3      0.185100
     14 O3'        -1.6600    0.6190   -2.6300 os        1 UA3     -0.537200
     15 C2'        -1.3630   -0.4700   -0.3850 c3        1 UA3      0.099100
     16 O2'        -1.5950   -0.0090    0.8610 oh        1 UA3     -0.679800
     17 C1'        -0.1880   -1.4540   -0.3750 c3        1 UA3      0.427600
     18 O3P        -3.5010    2.2720   -1.9520 o         1 UA3     -0.916167
     19 P          -2.5640    1.8820   -3.0870 p5        1 UA3      1.333900
     20 O1P        -1.6670    3.0500   -3.4200 o         1 UA3     -0.916167
     21 O2P        -3.3990    1.4940   -4.3410 o         1 UA3     -0.916167
     22 H3          3.5060   -1.5700    2.1500 hn        1 UA3      0.483400
     23 H5          0.0040   -1.3440    4.0620 ha        1 UA3      0.110500
     24 H6         -1.1550   -1.2800    2.0380 ha        1 UA3      0.168500
     25 H5'         2.0920    2.9850   -0.4840 ho        1 UA3      0.502000
     26 H51         0.6040    1.4100    0.3070 h1        1 UA3      0.006200
     27 H52         1.9070    0.8330   -0.2770 h1        1 UA3      0.006200
     28 H4          0.5610    0.8030   -2.4070 h1        1 UA3      0.076700
     29 H3'        -1.0900    1.5560   -0.8890 h1        1 UA3      0.059700
     30 H2'        -2.1410   -0.8930   -0.7310 h1        1 UA3      0.053700
     31 HB         -2.4840    0.1390    0.9690 ho        1 UA3      0.512000
     32 H1'        -0.5010   -2.3470   -0.5380 h2        1 UA3      0.087700
@<TRIPOS>BOND
     1    1    8 3   
     2    1   17 1   
     3    2    3 2   
     4    2    4 2   
     5    4   22 1   
     6    5    6 1   
     7    5    7 3   
     8    7   23 1   
     9    8   24 1   
    10    9   10 1   
    11    9   25 1   
    12   10   11 1   
    13   10   26 1   
    14   10   27 1   
    15   11   12 1   
    16   11   13 1   
    17   11   28 1   
    18   12   17 1   
    19   13   14 1   
    20   13   15 1   
    21   13   29 1   
    22   14   19 1   
    23   15   16 1   
    24   15   17 1   
    25   15   30 1   
    26   16   31 1   
    27   17   32 1   
    28   18   19 1   
    29   19   20 1   
    30   19   21 1   
@<TRIPOS>SUBSTRUCTURE
     1 UA3         1 TEMP              0 ****  ****    0 ROOT
