@<TRIPOS>MOLECULE
UA4
   62    65     1     0     0
SMALL
bcc


@<TRIPOS>ATOM
      1 C5          1.5050    3.4650   -2.9010 ca        1 UA4      0.908900
      2 C10        -1.7580    1.4680   -4.9650 c3        1 UA4     -0.087100
      3 C13        -0.5740   -2.0750   -0.4760 ca        1 UA4     -0.119000
      4 C15        -0.5050   -2.6470   -2.8640 ca        1 UA4      0.028600
      5 C24        -0.5990   -2.5040   -7.5000 c3        1 UA4      0.129400
      6 C26        -1.0820   -1.5230   -9.5960 c3        1 UA4      0.115700
      7 C28        -4.2400   -5.0610   -3.0480 ca        1 UA4     -0.164000
      8 C31        -5.1900   -3.3910   -1.0140 ca        1 UA4      0.151400
      9 C32        -3.8270   -3.7390   -1.0590 ca        1 UA4     -0.164000
     10 C30        -6.0890   -3.8710   -1.9790 ca        1 UA4     -0.199000
     11 C29        -5.6000   -4.7090   -2.9940 ca        1 UA4      0.151400
     12 F33        -6.4530   -5.1840   -3.9330 f         1 UA4     -0.131900
     13 C27        -3.3620   -4.5690   -2.0790 ca        1 UA4     -0.068300
     14 C18        -1.9110   -4.9880   -2.1240 c3        1 UA4      0.146100
     15 C35        -1.7700   -6.4590   -1.7270 c3        1 UA4     -0.083100
     16 C19        -1.3740   -4.7960   -3.5580 c         1 UA4      0.685500
     17 O21        -1.5490   -5.6760   -4.4200 o         1 UA4     -0.616500
     18 N20        -0.6860   -3.6230   -3.8640 n         1 UA4     -0.359000
     19 O25        -1.4830   -1.6680   -8.2450 os        1 UA4     -0.420600
     20 C16        -0.0770   -1.3350   -3.1390 ca        1 UA4     -0.134000
     21 C14        -0.7570   -2.9950   -1.5120 ca        1 UA4      0.060100
     22 O17        -1.1240   -4.2820   -1.1500 os        1 UA4     -0.311900
     23 C12        -0.1260   -0.7920   -0.7730 ca        1 UA4     -0.141000
     24 C11         0.1180   -0.4150   -2.1000 cp        1 UA4      0.004000
     25 C2          0.5880    0.9320   -2.4020 cp        1 UA4     -0.406600
     26 C1         -0.2150    1.8970   -3.0490 ca        1 UA4      0.530600
     27 C9         -1.6230    1.5530   -3.4650 c3        1 UA4     -0.141700
     28 C3          1.9250    1.3300   -2.0420 ca        1 UA4      0.730200
     29 N7          2.8010    0.4060   -1.4970 nh        1 UA4     -0.952500
     30 N4          2.3860    2.5960   -2.2830 nb        1 UA4     -0.825000
     31 N6          0.2180    3.1470   -3.3150 nb        1 UA4     -0.788000
     32 N8          1.9250    4.7890   -3.0640 nh        1 UA4     -0.930500
     33 H101       -1.5140    2.4460   -5.4440 hc        1 UA4      0.041033
     34 H102       -2.8070    1.1930   -5.2340 hc        1 UA4      0.041033
     35 H103       -1.0730    0.6890   -5.3810 hc        1 UA4      0.041033
     36 H13        -0.7800   -2.3820    0.5600 ha        1 UA4      0.153000
     37 H221       -0.0250   -4.4010   -5.6850 h1        1 UA4      0.069200
     38 H222        0.7620   -2.8380   -5.1590 h1        1 UA4      0.069200
     39 H241        0.4210   -2.0350   -7.4710 h1        1 UA4      0.028700
     40 H242       -0.5250   -3.5110   -7.9900 h1        1 UA4      0.028700
     41 H261       -1.8550   -0.8510  -10.0450 h1        1 UA4      0.034367
     42 H262       -1.0740   -2.5130  -10.1150 h1        1 UA4      0.034367
     43 H263       -0.0690   -1.0530   -9.6590 h1        1 UA4      0.034367
     44 H28        -3.8750   -5.7190   -3.8550 ha        1 UA4      0.172000
     45 H32        -3.1380   -3.3520   -0.2910 ha        1 UA4      0.172000
     46 H30        -7.1530   -3.5980   -1.9410 ha        1 UA4      0.167000
     47 H351       -2.1960   -6.6160   -0.7090 hc        1 UA4      0.064700
     48 H352       -2.3160   -7.0880   -2.4710 hc        1 UA4      0.064700
     49 H353       -0.6910   -6.7450   -1.7190 hc        1 UA4      0.064700
     50 H231       -2.1770   -3.1490   -6.1630 hc        1 UA4      0.067200
     51 H232       -1.3840   -1.5930   -5.6970 hc        1 UA4      0.067200
     52 H16         0.1090   -1.0080   -4.1740 ha        1 UA4      0.153000
     53 H12         0.0170   -0.0630    0.0380 ha        1 UA4      0.144000
     54 H91        -1.9150    0.5730   -3.0010 hc        1 UA4      0.062700
     55 H92        -2.3260    2.3350   -3.0670 hc        1 UA4      0.062700
     56 HN71        3.6540    0.7290   -1.1070 hn        1 UA4      0.429800
     57 HN72        2.3970   -0.4070   -1.0970 hn        1 UA4      0.429800
     58 HN81        1.4120    5.3420   -3.7100 hn        1 UA4      0.427800
     59 HN82        2.9010    4.9600   -3.0090 hn        1 UA4      0.427800
     60 C22        -0.2190   -3.3920   -5.2140 c3        1 UA4      0.092000
     61 F34        -5.6410   -2.5830   -0.0250 f         1 UA4     -0.131900
     62 C23        -1.1900   -2.6190   -6.1060 c3        1 UA4     -0.109400
@<TRIPOS>BOND
     1    1   30 ar  
     2    1   31 ar  
     3    1   32 1   
     4    2   27 1   
     5    2   33 1   
     6    2   34 1   
     7    2   35 1   
     8    3   21 ar  
     9    3   23 ar  
    10    3   36 1   
    11    4   18 1   
    12    4   20 ar  
    13    4   21 ar  
    14    5   19 1   
    15    5   39 1   
    16    5   40 1   
    17    5   62 1   
    18    6   19 1   
    19    6   41 1   
    20    6   42 1   
    21    6   43 1   
    22    7   11 ar  
    23    7   13 ar  
    24    7   44 1   
    25    8    9 ar  
    26    8   10 ar  
    27    8   61 1   
    28    9   13 ar  
    29    9   45 1   
    30   10   11 ar  
    31   10   46 1   
    32   11   12 1   
    33   13   14 1   
    34   14   15 1   
    35   14   16 1   
    36   14   22 1   
    37   15   47 1   
    38   15   48 1   
    39   15   49 1   
    40   16   17 2   
    41   16   18 1   
    42   18   60 1   
    43   20   24 ar  
    44   20   52 1   
    45   21   22 1   
    46   23   24 ar  
    47   23   53 1   
    48   24   25 1   
    49   25   26 ar  
    50   25   28 ar  
    51   26   27 1   
    52   26   31 ar  
    53   27   54 1   
    54   27   55 1   
    55   28   29 1   
    56   28   30 ar  
    57   29   56 1   
    58   29   57 1   
    59   32   58 1   
    60   32   59 1   
    61   37   60 1   
    62   38   60 1   
    63   50   62 1   
    64   51   62 1   
    65   60   62 1   
@<TRIPOS>SUBSTRUCTURE
     1 UA4         1 TEMP              0 ****  ****    0 ROOT
