@<TRIPOS>MOLECULE
UA4
   62    61     1     0     0
SMALL
bcc


@<TRIPOS>ATOM
      1 C5          1.7800    1.3140   -0.9290 c2        1 UA4      0.192000
      2 C10        -1.8210   -0.1410    1.8390 c1        1 UA4     -0.155000
      3 C13         2.1940    2.0310    5.3800 c2        1 UA4     -0.266000
      4 C15         2.5050   -0.3680    4.7780 c3        1 UA4     -0.150000
      5 C24         0.2770   -6.4280    6.0350 c3        1 UA4     -0.125000
      6 C26         0.2330   -8.3300    7.4990 c1        1 UA4     -0.034000
      7 C28         1.1160   -2.2240    8.4160 c2        1 UA4     -0.206000
      8 C31         0.8350   -0.5010   10.6540 c2        1 UA4      0.010000
      9 C32         1.5440    0.0090    9.5100 c1        1 UA4     -0.037000
     10 C30         0.3620   -1.7900   10.7130 c2        1 UA4     -0.102000
     11 C29         0.5170   -2.6580    9.5610 c2        1 UA4      0.078000
     12 F33         0.0340   -3.9190    9.6670 f         1 UA4     -0.085000
     13 C27         1.5870   -0.8230    8.3020 c3        1 UA4     -0.151000
     14 C18         2.9790   -0.6980    7.6340 c3        1 UA4      0.119000
     15 C35         4.0970   -0.7190    8.6710 c3        1 UA4     -0.215000
     16 C19         3.1730   -1.8310    6.6150 c2        1 UA4      0.289000
     17 O21         3.9040   -2.7950    6.8240 o         1 UA4     -0.209000
     18 N20         2.4200   -1.7070    5.3900 n         1 UA4     -0.179000
     19 O25        -0.3820   -7.3520    6.9550 os        1 UA4     -0.099000
     20 C16         1.5130   -0.1760    3.6950 c1        1 UA4      0.010000
     21 C14         2.5380    0.7650    5.7730 c2        1 UA4      0.095000
     22 O17         3.0870    0.6000    7.0150 os        1 UA4     -0.169000
     23 C12         1.7840    2.3010    4.0580 c1        1 UA4     -0.073000
     24 C11         1.2060    1.2010    3.2670 c3        1 UA4     -0.149000
     25 C2          1.4170    1.3080    1.7920 c2        1 UA4     -0.225000
     26 C1          0.4330    0.8090    0.9010 c2        1 UA4      0.204000
     27 C9         -0.7880    0.2960    1.4210 c1        1 UA4     -0.128000
     28 C3          2.5910    1.8830    1.1980 c2        1 UA4      0.193000
     29 N7          3.6220    2.3860    2.0000 nh        1 UA4     -0.331000
     30 N4          2.7660    1.8990   -0.1570 n2        1 UA4     -0.292000
     31 N6          0.5830    0.8000   -0.4440 n2        1 UA4     -0.236000
     32 N8          2.0180    1.2000   -2.2980 nh        1 UA4     -0.328000
     33 H101       -1.3950   -4.8740    7.7420 ha        1 UA4      0.002333
     34 H102       -2.7350   -0.5290    2.2130 ha        1 UA4      0.229000
     35 H103       -1.4780   -5.4230    8.1300 ha        1 UA4      0.002333
     36 H13         2.2910    2.8750    6.0840 ha        1 UA4      0.182000
     37 H221        0.9270   -5.1590    7.6580 hc        1 UA4      0.098667
     38 H222        1.2120   -2.6170    3.9680 ha        1 UA4      0.109000
     39 H241       -0.5610   -5.7740    5.6790 h1        1 UA4      0.101500
     40 H242        0.6900   -7.0230    5.1810 h1        1 UA4      0.101500
     41 H261        0.2170   -9.4260    5.2950 ha        1 UA4      0.002333
     42 H262        1.3190   -8.4760    7.2910 ha        1 UA4      0.013000
     43 H263       -0.2170   -9.8220    5.6350 ha        1 UA4      0.002333
     44 H28         1.2090   -2.9000    7.5460 ha        1 UA4      0.183000
     45 H32         0.8370   -0.2800    7.6230 hc        1 UA4      0.189000
     46 H30        -0.1290   -2.2010   11.6110 ha        1 UA4      0.174000
     47 H351        4.0630   -1.6880    9.2230 hc        1 UA4      0.116333
     48 H352        5.0880   -0.6210    8.1650 hc        1 UA4      0.116333
     49 H353        3.9610    0.1360    9.3800 hc        1 UA4      0.116333
     50 H231        1.7260   -4.8250    6.0560 hc        1 UA4      0.098667
     51 H232        2.1980   -6.2900    7.0310 hc        1 UA4      0.098667
     52 H16         3.5070   -0.3270    4.2130 h1        1 UA4      0.185000
     53 H12         0.0730    1.3050    3.4510 hc        1 UA4      0.199000
     54 H91        -0.6190   -3.0500    5.7290 ha        1 UA4      0.002333
     55 H92        -0.3290   -3.5900    6.0200 ha        1 UA4      0.002333
     56 HN71        4.3670    2.8320    1.5070 hn        1 UA4      0.218000
     57 HN72        3.2920    2.9200    2.7860 hn        1 UA4      0.218000
     58 HN81        1.2370    1.0080   -2.8800 hn        1 UA4      0.229000
     59 HN82        2.7420    1.7600   -2.6830 hn        1 UA4      0.229000
     60 C22         1.7680   -2.7400    4.9180 c1        1 UA4     -0.122000
     61 F34         0.6880    0.3210   11.7210 f         1 UA4     -0.079000
     62 C23         1.3440   -5.6340    6.7350 c3        1 UA4     -0.265000
@<TRIPOS>BOND
     1    1   30 1   
     2    1   31 1   
     3    1   32 1   
     4    2   27 1   
     5    2   34 1   
     6    3   21 1   
     7    3   23 1   
     8    3   36 1   
     9    4   18 1   
    10    4   20 1   
    11    4   21 1   
    12    4   52 1   
    13    5   19 1   
    14    5   39 1   
    15    5   40 1   
    16    5   62 1   
    17    6   19 1   
    18    6   42 1   
    19    7   11 1   
    20    7   13 1   
    21    7   44 1   
    22    8    9 1   
    23    8   10 1   
    24    8   61 1   
    25    9   13 1   
    26   10   11 1   
    27   10   46 1   
    28   11   12 1   
    29   13   14 1   
    30   13   45 1   
    31   14   15 1   
    32   14   16 1   
    33   14   22 1   
    34   15   47 1   
    35   15   48 1   
    36   15   49 1   
    37   16   17 1   
    38   16   18 1   
    39   18   60 1   
    40   20   24 1   
    41   21   22 1   
    42   23   24 1   
    43   24   25 1   
    44   24   53 1   
    45   25   26 1   
    46   25   28 1   
    47   26   27 1   
    48   26   31 1   
    49   28   29 1   
    50   28   30 1   
    51   29   56 1   
    52   29   57 1   
    53   32   58 1   
    54   32   59 1   
    55   33   35 1   
    56   37   62 1   
    57   38   60 1   
    58   41   43 1   
    59   50   62 1   
    60   51   62 1   
    61   54   55 1   
@<TRIPOS>SUBSTRUCTURE
     1 UA4         1 TEMP              0 ****  ****    0 ROOT
