@<TRIPOS>MOLECULE
UA4
   62    61     1     0     0
SMALL
bcc


@<TRIPOS>ATOM
      1 C5         -0.4470    1.3100   -0.9110 c2        1 UA4      0.216000
      2 C10        -0.4660   -3.3300    0.2170 c1        1 UA4     -0.128000
      3 C13         2.6750    0.1700    5.6760 c2        1 UA4     -0.093000
      4 C15         2.6730   -2.0630    6.8020 c2        1 UA4     -0.136000
      5 C24         0.9750   -6.4340    4.4170 cx        1 UA4     -0.039000
      6 C26        -0.0560   -7.1870    3.6520 cx        1 UA4     -0.109000
      7 C28         2.0430   -0.9950   10.8850 c2        1 UA4     -0.187000
      8 C31         1.7250    1.8210   10.8670 c2        1 UA4      0.011000
      9 C32         2.3280    1.2140    9.7070 c1        1 UA4     -0.031000
     10 C30         1.3580    1.0950   11.9740 c2        1 UA4     -0.108000
     11 C29         1.5360   -0.3450   11.9690 c2        1 UA4      0.070000
     12 F33         1.1800   -1.0130   13.0940 f         1 UA4     -0.093000
     13 C27         2.3810   -0.2490    9.6500 c3        1 UA4     -0.163000
     14 C18         3.7150   -0.7140    9.0120 c3        1 UA4      0.124000
     15 C35         4.9140   -0.1840    9.7870 c3        1 UA4     -0.209000
     16 C19         3.7380   -2.2530    8.9720 c2        1 UA4      0.214000
     17 O21         4.2740   -2.9300    9.8560 o         1 UA4     -0.273000
     18 N20         3.0830   -2.9100    7.8670 n         1 UA4     -0.141000
     19 O25        -0.0190   -5.7530    3.6230 os        1 UA4     -0.278000
     20 C16         1.3590   -0.4730    3.5620 c1        1 UA4     -0.195000
     21 C14         3.0250   -0.7520    6.7360 c2        1 UA4      0.052000
     22 O17         3.8490   -0.1660    7.6950 os        1 UA4     -0.174000
     23 C12         1.9990   -0.1740    4.6020 c1        1 UA4     -0.073000
     24 C11         0.6960   -0.8580    2.4900 c2        1 UA4      0.051000
     25 C2          0.3000   -0.0680    1.3610 c2        1 UA4     -0.277000
     26 C1         -0.2190   -0.7230    0.2010 c2        1 UA4      0.225000
     27 C9         -0.3510   -2.1390    0.2140 c1        1 UA4     -0.153000
     28 C3          0.3800    1.3740    1.2850 c2        1 UA4      0.247000
     29 N7          0.8340    2.1260    2.3360 nh        1 UA4     -0.358000
     30 N4         -0.0020    2.0580    0.1560 n2        1 UA4     -0.319000
     31 N6         -0.5950   -0.0800   -0.9200 n2        1 UA4     -0.251000
     32 N8         -0.7420    1.9840   -2.0880 nh        1 UA4     -0.338000
     33 H101        1.5800   -4.2880    2.5190 ha        1 UA4      0.001333
     34 H102       -0.5620   -4.3880    0.2430 ha        1 UA4      0.235000
     35 H103        1.1610   -4.1130    2.0150 ha        1 UA4      0.001333
     36 H13         3.0230    1.2100    5.8220 ha        1 UA4      0.170000
     37 H221        0.5880   -3.2640    4.4120 ha        1 UA4      0.001333
     38 H222        0.6080   -3.7900    4.8410 ha        1 UA4      0.001333
     39 H241        1.2080   -7.2070    6.3970 hc        1 UA4      0.099000
     40 H242       -0.1820   -6.0530    6.1980 hc        1 UA4      0.099000
     41 H261        2.0010   -6.3410    4.0060 h1        1 UA4      0.127000
     42 H262       -0.9370   -7.6120    4.1650 h1        1 UA4      0.112500
     43 H263        0.1940   -7.6720    2.6920 h1        1 UA4      0.112500
     44 H28         2.1880   -2.0870   10.9000 ha        1 UA4      0.165000
     45 H32         1.5550   -0.4760    8.8830 hc        1 UA4      0.195000
     46 H30         0.9410    1.5640   12.8790 ha        1 UA4      0.170000
     47 H351        4.8920   -0.5970   10.8240 hc        1 UA4      0.109667
     48 H352        5.8600   -0.4980    9.2860 hc        1 UA4      0.109667
     49 H353        4.8700    0.9320    9.8140 hc        1 UA4      0.109667
     50 H231        1.5230   -5.4240    6.2450 hc        1 UA4      0.099000
     51 H232        3.2480   -4.8170    8.6350 ha        1 UA4      0.070000
     52 H16         2.0580   -2.5600    6.0280 h4        1 UA4      0.203000
     53 H12         0.4180   -1.9380    2.4470 ha        1 UA4      0.165000
     54 H91        -1.3840   -3.8280    3.2120 ha        1 UA4      0.001333
     55 H92        -1.0790   -3.8140    2.6070 ha        1 UA4      0.001333
     56 HN71        0.8620    3.1140    2.2690 hn        1 UA4      0.245500
     57 HN72        1.0640    1.6950    3.1960 hn        1 UA4      0.245500
     58 HN81       -1.2290    1.4950   -2.8000 hn        1 UA4      0.237000
     59 HN82       -0.8150    2.9720   -2.0600 hn        1 UA4      0.237000
     60 C22         2.8760   -4.2130    7.7800 c1        1 UA4     -0.094000
     61 F34         1.5670    3.1670   10.8610 f         1 UA4     -0.082000
     62 C23         0.8710   -6.2680    5.8940 c3        1 UA4     -0.231000
@<TRIPOS>BOND
     1    1   30 1   
     2    1   31 1   
     3    1   32 1   
     4    2   27 1   
     5    2   34 1   
     6    3   21 1   
     7    3   23 1   
     8    3   36 1   
     9    4   18 1   
    10    4   21 1   
    11    4   52 1   
    12    5    6 1   
    13    5   19 1   
    14    5   41 1   
    15    5   62 1   
    16    6   19 1   
    17    6   42 1   
    18    6   43 1   
    19    7   11 1   
    20    7   13 1   
    21    7   44 1   
    22    8    9 1   
    23    8   10 1   
    24    8   61 1   
    25    9   13 1   
    26   10   11 1   
    27   10   46 1   
    28   11   12 1   
    29   13   14 1   
    30   13   45 1   
    31   14   15 1   
    32   14   16 1   
    33   14   22 1   
    34   15   47 1   
    35   15   48 1   
    36   15   49 1   
    37   16   17 1   
    38   16   18 1   
    39   18   60 1   
    40   20   23 1   
    41   20   24 1   
    42   21   22 1   
    43   24   25 1   
    44   24   53 1   
    45   25   26 1   
    46   25   28 1   
    47   26   27 1   
    48   26   31 1   
    49   28   29 1   
    50   28   30 1   
    51   29   56 1   
    52   29   57 1   
    53   32   58 1   
    54   32   59 1   
    55   33   35 1   
    56   37   38 1   
    57   39   62 1   
    58   40   62 1   
    59   50   62 1   
    60   51   60 1   
    61   54   55 1   
@<TRIPOS>SUBSTRUCTURE
     1 UA4         1 TEMP              0 ****  ****    0 ROOT
