@<TRIPOS>MOLECULE
UA5
   23    19     1     0     0
SMALL
bcc


@<TRIPOS>ATOM
      1 O3          3.2350   -1.2690    3.8570 o         1 UA5     -1.058500
      2 S1          2.3090   -0.2460    3.2420 ss        1 UA5      2.835000
      3 O1          1.8690    0.5240    4.4650 o         1 UA5     -1.058500
      4 O2          3.0450    0.6450    2.2700 os        1 UA5     -1.054000
      5 N1          1.0340   -0.9650    2.5000 n2        1 UA5     -0.777000
      6 C3          0.5660   -0.4720    1.2550 c2        1 UA5      0.170000
      7 C6         -0.3190    0.5950    1.2210 c2        1 UA5     -0.201000
      8 C2         -0.8410    1.0250    0.0110 c1        1 UA5     -0.085000
      9 C5         -0.4790    0.3880   -1.1660 c1        1 UA5     -0.172000
     10 C7         -1.0200    0.8800   -2.4900 c3        1 UA5     -0.099000
     11 C8         -2.2790    0.1160   -2.8360 c3        1 UA5     -0.204000
     12 C4          0.4060   -0.6790   -1.1330 c1        1 UA5     -0.088000
     13 C1          0.9290   -1.1090    0.0780 c1        1 UA5     -0.241000
     14 HN1         0.6180   -1.6750    2.8940 hn        1 UA5      0.203000
     15 H6         -0.5740    1.0440    2.0490 ha        1 UA5      0.170000
     16 H2         -1.4810    1.7620   -0.0100 ha        1 UA5      0.112000
     17 H71        -1.2260    1.8340   -2.4240 hc        1 UA5      0.068000
     18 H72        -0.3510    0.7380   -3.1890 hc        1 UA5      0.068000
     19 H81        -2.7470    0.5700   -3.5680 hc        1 UA5      0.065000
     20 H82        -2.0430   -0.7940   -3.1140 hc        1 UA5      0.065000
     21 H83        -2.8630    0.0760   -2.0500 hc        1 UA5      0.065000
     22 H4          0.6610   -1.1270   -1.9610 ha        1 UA5      0.104000
     23 H1          1.5510   -1.8590    0.1010 ha        1 UA5      0.114000
@<TRIPOS>BOND
     1    1    2 1   
     2    2    3 1   
     3    5    6 1   
     4    5   14 1   
     5    6    7 1   
     6    6   13 1   
     7    7    8 1   
     8    7   15 1   
     9    8   16 1   
    10    9   10 1   
    11    9   12 1   
    12   10   11 1   
    13   10   17 1   
    14   10   18 1   
    15   11   19 1   
    16   11   20 1   
    17   11   21 1   
    18   12   22 1   
    19   13   23 1   
@<TRIPOS>SUBSTRUCTURE
     1 UA5         1 TEMP              0 ****  ****    0 ROOT
