@<TRIPOS>MOLECULE
UA5
   24    23     1     0     0
SMALL
bcc


@<TRIPOS>ATOM
      1 O3          0.4220   -0.1730    1.1500 o         1 UA5     -0.578733
      2 S1          1.4550   -0.5470    0.3590 s4        1 UA5      1.809000
      3 O1          2.7090   -0.6320    0.8740 o         1 UA5     -0.578733
      4 O2          1.2120   -1.0450   -0.8820 o         1 UA5     -0.698533
      5 N1          2.0760    1.6400   -0.6860 nh        1 UA5     -0.869200
      6 C3          1.3360    2.8030   -0.3290 ca        1 UA5      0.060600
      7 C6          1.7210    3.5830    0.7800 ca        1 UA5     -0.145000
      8 C2          0.9500    4.6730    1.1670 ca        1 UA5     -0.103500
      9 C5         -0.2100    5.0190    0.4660 ca        1 UA5     -0.080300
     10 C7         -1.0230    6.1920    0.8910 c3        1 UA5     -0.038100
     11 C8         -1.7800    5.9220    2.1700 c3        1 UA5     -0.091100
     12 C4         -0.5870    4.2510   -0.6400 ca        1 UA5     -0.103500
     13 C1          0.1730    3.1570   -1.0420 ca        1 UA5     -0.145000
     14 HN1         3.0450    1.7360   -0.4350 hn        1 UA5      0.396800
     15 H6          2.6280    3.3320    1.3520 ha        1 UA5      0.140000
     16 H2          1.2560    5.2710    2.0400 ha        1 UA5      0.138500
     17 H71        -0.3430    7.0740    1.0400 hc        1 UA5      0.048200
     18 H72        -1.7490    6.4680    0.0800 hc        1 UA5      0.048200
     19 H81        -2.3570    6.8300    2.4710 hc        1 UA5      0.038700
     20 H82        -1.0750    5.6580    2.9950 hc        1 UA5      0.038700
     21 H83        -2.4950    5.0750    2.0350 hc        1 UA5      0.038700
     22 H4         -1.4970    4.5100   -1.2030 ha        1 UA5      0.138500
     23 H1         -0.1490    2.5670   -1.9140 ha        1 UA5      0.140000
     24 H12         1.9940    1.4450   -1.6690 hn        1 UA5      0.396800
@<TRIPOS>BOND
     1    1    2 1   
     2    2    3 1   
     3    2    4 2   
     4    5    6 1   
     5    5   14 1   
     6    5   24 1   
     7    6    7 ar  
     8    6   13 ar  
     9    7    8 ar  
    10    7   15 1   
    11    8    9 ar  
    12    8   16 1   
    13    9   10 1   
    14    9   12 ar  
    15   10   11 1   
    16   10   17 1   
    17   10   18 1   
    18   11   19 1   
    19   11   20 1   
    20   11   21 1   
    21   12   13 ar  
    22   12   22 1   
    23   13   23 1   
@<TRIPOS>SUBSTRUCTURE
     1 UA5         1 TEMP              0 ****  ****    0 ROOT
