@<TRIPOS>MOLECULE
UA5
   23    23     1     0     0
SMALL
bcc


@<TRIPOS>ATOM
      1 O3          0.3830   -1.3260    0.8440 o         1 UA5     -0.734200
      2 S1          1.3920   -0.4080    0.4620 s6        1 UA5      1.530700
      3 O1          2.5690   -0.4800    1.2550 o         1 UA5     -0.734200
      4 O2          0.9040    0.9110    0.3140 o         1 UA5     -0.734200
      5 N1          1.9660   -0.8980   -1.0950 nh        1 UA5     -0.727500
      6 C3          1.2750   -1.3200   -2.2060 ca        1 UA5      0.251600
      7 C6          1.9350   -1.5620   -3.4410 ca        1 UA5     -0.221500
      8 C2          1.2310   -1.9800   -4.5620 ca        1 UA5     -0.086500
      9 C5         -0.1500   -2.1780   -4.5140 ca        1 UA5     -0.178300
     10 C7         -0.9040   -2.6290   -5.7120 c3        1 UA5     -0.013100
     11 C8         -1.7390   -1.5230   -6.3130 c3        1 UA5     -0.087100
     12 C4         -0.8140   -1.9520   -3.2990 ca        1 UA5     -0.086500
     13 C1         -0.1330   -1.5370   -2.1690 ca        1 UA5     -0.221500
     14 HN1         2.9490   -0.8540   -1.2330 hn        1 UA5      0.407800
     15 H6          3.0220   -1.4160   -3.5150 ha        1 UA5      0.142000
     16 H2          1.7740   -2.1560   -5.5020 ha        1 UA5      0.107500
     17 H71        -0.1910   -3.0180   -6.4890 hc        1 UA5      0.027700
     18 H72        -1.5760   -3.4840   -5.4270 hc        1 UA5      0.027700
     19 H81        -2.3150   -1.9030   -7.1910 hc        1 UA5      0.026367
     20 H82        -1.0890   -0.6810   -6.6520 hc        1 UA5      0.026367
     21 H83        -2.4590   -1.1260   -5.5580 hc        1 UA5      0.026367
     22 H4         -1.9020   -2.1110   -3.2450 ha        1 UA5      0.107500
     23 H1         -0.6780   -1.3880   -1.2200 ha        1 UA5      0.142000
@<TRIPOS>BOND
     1    1    2 1   
     2    2    3 1   
     3    2    4 1   
     4    2    5 1   
     5    5    6 1   
     6    5   14 1   
     7    6    7 ar  
     8    6   13 ar  
     9    7    8 ar  
    10    7   15 1   
    11    8    9 ar  
    12    8   16 1   
    13    9   10 1   
    14    9   12 ar  
    15   10   11 1   
    16   10   17 1   
    17   10   18 1   
    18   11   19 1   
    19   11   20 1   
    20   11   21 1   
    21   12   13 ar  
    22   12   22 1   
    23   13   23 1   
@<TRIPOS>SUBSTRUCTURE
     1 UA5         1 TEMP              0 ****  ****    0 ROOT
