@<TRIPOS>MOLECULE
UA5
   23    23     1     0     0
SMALL
bcc


@<TRIPOS>ATOM
      1 O3          3.1310   -2.7880    4.8320 o         1 UA5     -0.734200
      2 S1          1.7700   -2.5410    5.1330 s6        1 UA5      1.530700
      3 O1          1.5630   -1.8880    6.3790 o         1 UA5     -0.734200
      4 O2          0.9550   -3.6850    4.9670 o         1 UA5     -0.734200
      5 N1          1.2000   -1.3630    4.0000 nh        1 UA5     -0.727500
      6 C3          1.4040   -1.2610    2.6450 ca        1 UA5      0.251600
      7 C6          0.7370   -0.2740    1.8690 ca        1 UA5     -0.221500
      8 C2          0.9400   -0.1820    0.4990 ca        1 UA5     -0.086500
      9 C5          1.8060   -1.0540   -0.1630 ca        1 UA5     -0.178300
     10 C7          2.0270   -0.9520   -1.6290 c3        1 UA5     -0.013100
     11 C8          1.3600   -2.0760   -2.3870 c3        1 UA5     -0.087100
     12 C4          2.4770   -2.0270    0.5920 ca        1 UA5     -0.086500
     13 C1          2.2930   -2.1370    1.9580 ca        1 UA5     -0.221500
     14 HN1         0.6140   -0.6500    4.3680 hn        1 UA5      0.407800
     15 H6          0.0480    0.4290    2.3570 ha        1 UA5      0.142000
     16 H2          0.4070    0.5930   -0.0720 ha        1 UA5      0.107500
     17 H71         1.6370    0.0310   -2.0080 hc        1 UA5      0.027700
     18 H72         3.1310   -0.9710   -1.8400 hc        1 UA5      0.027700
     19 H81         1.7390   -3.0640   -2.0300 hc        1 UA5      0.026367
     20 H82         1.5710   -1.9870   -3.4800 hc        1 UA5      0.026367
     21 H83         0.2550   -2.0500   -2.2350 hc        1 UA5      0.026367
     22 H4          3.1690   -2.7160    0.0840 ha        1 UA5      0.107500
     23 H1          2.8520   -2.8980    2.5310 ha        1 UA5      0.142000
@<TRIPOS>BOND
     1    1    2 1   
     2    2    3 1   
     3    2    4 1   
     4    2    5 1   
     5    5    6 1   
     6    5   14 1   
     7    6    7 ar  
     8    6   13 ar  
     9    7    8 ar  
    10    7   15 1   
    11    8    9 ar  
    12    8   16 1   
    13    9   10 1   
    14    9   12 ar  
    15   10   11 1   
    16   10   17 1   
    17   10   18 1   
    18   11   19 1   
    19   11   20 1   
    20   11   21 1   
    21   12   13 ar  
    22   12   22 1   
    23   13   23 1   
@<TRIPOS>SUBSTRUCTURE
     1 UA5         1 TEMP              0 ****  ****    0 ROOT
