@<TRIPOS>MOLECULE
UA5
   23    23     1     0     0
SMALL
bcc


@<TRIPOS>ATOM
      1 O3          0.4020   -1.3230    0.8430 o         1 UA5     -0.734200
      2 S1          1.4050   -0.4020    0.4560 s6        1 UA5      1.530700
      3 O1          2.5860   -0.4690    1.2440 o         1 UA5     -0.734200
      4 O2          0.9110    0.9160    0.3110 o         1 UA5     -0.734200
      5 N1          1.9740   -0.8880   -1.1040 nu        1 UA5     -0.727500
      6 C3          1.2790   -1.3140   -2.2110 ca        1 UA5      0.251600
      7 C6          1.9350   -1.5520   -3.4500 ca        1 UA5     -0.221500
      8 C2          1.2270   -1.9730   -4.5670 ca        1 UA5     -0.086500
      9 C5         -0.1520   -2.1790   -4.5120 ca        1 UA5     -0.178300
     10 C7         -0.9090   -2.6350   -5.7070 c3        1 UA5     -0.013100
     11 C8         -1.7550   -1.5340   -6.3020 c3        1 UA5     -0.087100
     12 C4         -0.8110   -1.9580   -3.2940 ca        1 UA5     -0.086500
     13 C1         -0.1270   -1.5400   -2.1670 ca        1 UA5     -0.221500
     14 HN1         2.9550   -0.8380   -1.2470 hn        1 UA5      0.407800
     15 H6          3.0210   -1.3990   -3.5290 ha        1 UA5      0.142000
     16 H2          1.7660   -2.1460   -5.5110 ha        1 UA5      0.107500
     17 H71        -0.1980   -3.0180   -6.4870 hc        1 UA5      0.027700
     18 H72        -1.5750   -3.4940   -5.4180 hc        1 UA5      0.027700
     19 H81        -2.4740   -1.1420   -5.5430 hc        1 UA5      0.026367
     20 H82        -2.3330   -1.9180   -7.1780 hc        1 UA5      0.026367
     21 H83        -1.1130   -0.6870   -6.6440 hc        1 UA5      0.026367
     22 H4         -1.8980   -2.1230   -3.2340 ha        1 UA5      0.107500
     23 H1         -0.6680   -1.3940   -1.2150 ha        1 UA5      0.142000
@<TRIPOS>BOND
     1    1    2 1   
     2    2    3 1   
     3    2    4 1   
     4    2    5 1   
     5    5    6 1   
     6    5   14 1   
     7    6    7 ar  
     8    6   13 ar  
     9    7    8 ar  
    10    7   15 1   
    11    8    9 ar  
    12    8   16 1   
    13    9   10 1   
    14    9   12 ar  
    15   10   11 1   
    16   10   17 1   
    17   10   18 1   
    18   11   19 1   
    19   11   20 1   
    20   11   21 1   
    21   12   13 ar  
    22   12   22 1   
    23   13   23 1   
@<TRIPOS>SUBSTRUCTURE
     1 UA5         1 TEMP              0 ****  ****    0 ROOT
