@<TRIPOS>MOLECULE
UAA
   17    17     1     0     0
SMALL
bcc


@<TRIPOS>ATOM
      1 O2          1.8870   -1.8400    3.9640 o         1 UAA     -0.678500
      2 N3          3.4040   -0.2390    3.2950 n         1 UAA     -0.596500
      3 C4          3.7750    0.8130    2.4350 c         1 UAA      0.722700
      4 C5          2.7930    1.2080    1.4370 cc        1 UAA     -0.400200
      5 C6          1.5760    0.5760    1.3470 cd        1 UAA      0.175400
      6 C7          0.5640    0.9910    0.3310 c3        1 UAA     -0.205200
      7 C8         -0.1700   -0.1840   -0.3650 c         1 UAA      0.919600
      8 O8A        -0.6980   -1.0730    0.3660 o         1 UAA     -0.821800
      9 O8B        -0.2290   -0.1560   -1.6190 o         1 UAA     -0.821800
     10 O4          4.9010    1.3290    2.5930 o         1 UAA     -0.675500
     11 C2          2.1640   -0.8930    3.1890 c         1 UAA      0.795500
     12 N1          1.2430   -0.4380    2.2320 n         1 UAA     -0.444100
     13 H3          4.0390   -0.5680    3.9850 hn        1 UAA      0.331500
     14 H5          3.0750    2.0200    0.7590 ha        1 UAA      0.164000
     15 H7C1        1.0610    1.6200   -0.4500 hc        1 UAA      0.064700
     16 H7C2       -0.2230    1.6080    0.8390 hc        1 UAA      0.064700
     17 H1          0.4170   -0.9950    2.0380 hn        1 UAA      0.405500
@<TRIPOS>BOND
     1    1   11 2   
     2    2    3 1   
     3    2   11 1   
     4    2   13 1   
     5    3    4 1   
     6    3   10 2   
     7    4    5 2   
     8    4   14 1   
     9    5    6 1   
    10    5   12 1   
    11    6    7 1   
    12    6   15 1   
    13    6   16 1   
    14    7    8 1   
    15    7    9 1   
    16   11   12 1   
    17   12   17 1   
@<TRIPOS>SUBSTRUCTURE
     1 UAA         1 TEMP              0 ****  ****    0 ROOT
