@<TRIPOS>MOLECULE
UAA
   17    17     1     0     0
SMALL
bcc


@<TRIPOS>ATOM
      1 O2          0.2120    0.7150   -0.0140 o         1 UAA     -0.678500
      2 N3          2.4300    0.0900   -0.0170 ns        1 UAA     -0.596500
      3 C4          3.6090   -0.2450    0.6770 c         1 UAA      0.722700
      4 C5          3.5180   -0.2740    2.1280 cc        1 UAA     -0.400200
      5 C6          2.3400    0.0170    2.7740 cd        1 UAA      0.175400
      6 C7          2.2440   -0.0260    4.2630 c3        1 UAA     -0.205200
      7 C8          1.4330    1.1360    4.8900 c         1 UAA      0.919600
      8 O8A         0.2740    1.3690    4.4340 o         1 UAA     -0.821800
      9 O8B         1.9660    1.7520    5.8460 o         1 UAA     -0.821800
     10 O4          4.6330   -0.4950    0.0060 o         1 UAA     -0.675500
     11 C2          1.2310    0.4020    0.6470 c         1 UAA      0.795500
     12 N1          1.1960    0.3150    2.0480 ns        1 UAA     -0.444100
     13 H3          2.4320    0.1460   -1.0100 hn        1 UAA      0.331500
     14 H5          4.4310   -0.5250    2.6760 ha        1 UAA      0.164000
     15 H7C1        3.2750   -0.0240    4.6990 hc        1 UAA      0.064700
     16 H7C2        1.7300   -0.9770    4.5620 hc        1 UAA      0.064700
     17 H1          0.3930    0.6870    2.5460 hn        1 UAA      0.405500
@<TRIPOS>BOND
     1    1   11 2   
     2    2    3 1   
     3    2   11 1   
     4    2   13 1   
     5    3    4 1   
     6    3   10 2   
     7    4    5 2   
     8    4   14 1   
     9    5    6 1   
    10    5   12 1   
    11    6    7 1   
    12    6   15 1   
    13    6   16 1   
    14    7    8 1   
    15    7    9 1   
    16   11   12 1   
    17   12   17 1   
@<TRIPOS>SUBSTRUCTURE
     1 UAA         1 TEMP              0 ****  ****    0 ROOT
