@<TRIPOS>MOLECULE
UAA
   17    16     1     0     0
SMALL
bcc


@<TRIPOS>ATOM
      1 O2         -2.1860    0.2090   -2.5100 o         1 UAA     -0.642100
      2 N3          0.1340    0.2090   -2.5100 n         1 UAA     -0.596500
      3 C4          1.3200    0.2090   -1.7310 c         1 UAA      0.686300
      4 C5          1.2330    0.2090   -0.2630 ce        1 UAA     -0.463300
      5 C6         -0.0840    0.2090    0.3900 c1        1 UAA      0.240100
      6 C7         -0.1820    0.3100    1.8960 c2        1 UAA     -0.238000
      7 C8          0.0110   -1.0610    2.5070 c         1 UAA      0.869600
      8 O8A         1.0390   -1.3060    3.1920 o         1 UAA     -0.821800
      9 O8B        -0.8540   -1.9580    2.3280 o         1 UAA     -0.821800
     10 O4          2.4050    0.2780   -2.2740 o         1 UAA     -0.639100
     11 C2         -1.1710    0.2090   -1.8530 c         1 UAA      0.759100
     12 N1         -1.2640    0.2090   -0.3990 n         1 UAA     -0.441500
     13 H3          0.1870    0.2010   -3.4200 hn        1 UAA      0.331500
     14 H5          2.0440    0.2920    0.2730 ha        1 UAA      0.164000
     15 H7C1        0.5100    0.9140    2.2270 ha        1 UAA      0.104000
     16 H7C2       -1.0610    0.6550    2.1430 ha        1 UAA      0.104000
     17 H1         -2.0820    0.2140    0.0040 hn        1 UAA      0.405500
@<TRIPOS>BOND
     1    1   11 2   
     2    2    3 1   
     3    2   11 1   
     4    2   13 1   
     5    3    4 1   
     6    3   10 2   
     7    4    5 2   
     8    4   14 1   
     9    5   12 2   
    10    6    7 2   
    11    6   15 1   
    12    6   16 1   
    13    7    8 1   
    14    7    9 1   
    15   11   12 1   
    16   12   17 1   
@<TRIPOS>SUBSTRUCTURE
     1 UAA         1 TEMP              0 ****  ****    0 ROOT
