@<TRIPOS>MOLECULE
UAA
   17    17     1     0     0
SMALL
bcc


@<TRIPOS>ATOM
      1 O2          0.1630    0.6990    0.0240 o         1 UAA     -0.678500
      2 N3          2.3690    0.0310   -0.0180 n         1 UAA     -0.596500
      3 C4          3.5580   -0.3100    0.6560 c         1 UAA      0.722700
      4 C5          3.5010   -0.3050    2.1090 cc        1 UAA     -0.400200
      5 C6          2.3440    0.0220    2.7750 cd        1 UAA      0.175400
      6 C7          2.2830    0.0140    4.2670 c3        1 UAA     -0.205200
      7 C8          1.5080    1.2050    4.8860 c         1 UAA      0.919600
      8 O8A         0.3430    1.4490    4.4530 o         1 UAA     -0.821800
      9 O8B         2.0750    1.8320    5.8160 o         1 UAA     -0.821800
     10 O4          4.5600   -0.5940   -0.0330 o         1 UAA     -0.675500
     11 C2          1.1920    0.3810    0.6670 c         1 UAA      0.795500
     12 N1          1.1890    0.3260    2.0700 n         1 UAA     -0.444100
     13 H3          2.3490    0.0660   -1.0110 hn        1 UAA      0.331500
     14 H5          4.4220   -0.5620    2.6410 ha        1 UAA      0.164000
     15 H7C1        3.3240    0.0060    4.6780 hc        1 UAA      0.064700
     16 H7C2        1.7590   -0.9210    4.5990 hc        1 UAA      0.064700
     17 H1          0.4050    0.7240    2.5780 hn        1 UAA      0.405500
@<TRIPOS>BOND
     1    1   11 2   
     2    2    3 1   
     3    2   11 1   
     4    2   13 1   
     5    3    4 1   
     6    3   10 2   
     7    4    5 2   
     8    4   14 1   
     9    5    6 1   
    10    5   12 1   
    11    6    7 1   
    12    6   15 1   
    13    6   16 1   
    14    7    8 1   
    15    7    9 1   
    16   11   12 1   
    17   12   17 1   
@<TRIPOS>SUBSTRUCTURE
     1 UAA         1 TEMP              0 ****  ****    0 ROOT
