@<TRIPOS>MOLECULE
UAL
   16    15     1     0     0
SMALL
bcc


@<TRIPOS>ATOM
      1 C           2.3250   -0.3320   -0.0380 c         1 UAL      0.911800
      2 N           1.1790    1.9200   -0.1700 nh        1 UAL     -0.803600
      3 O           2.2190   -1.5760   -0.1900 o         1 UAL     -0.826300
      4 C1         -2.5930   -0.1930    0.0400 c         1 UAL      0.720100
      5 N1         -1.4040    0.5450    0.0970 n         1 UAL     -0.439100
      6 N2         -3.8050    0.4850   -0.2550 n         1 UAL     -0.648000
      7 O2         -2.6550   -1.4250    0.2730 o         1 UAL     -0.641100
      8 CA          1.0390    0.5190   -0.0430 ce        1 UAL     -0.064200
      9 CB         -0.1600   -0.1180    0.0320 c2        1 UAL     -0.127400
     10 OXT         3.4150    0.2870    0.1340 o         1 UAL     -0.826300
     11 HN          2.1590    2.1460   -0.2360 hn        1 UAL      0.355800
     12 HN2        -4.6120   -0.0400   -0.0040 hn        1 UAL      0.275000
     13 HN2A       -3.8580    1.4480   -0.0220 hn        1 UAL      0.275000
     14 HB         -0.1950   -1.2230    0.0870 h4        1 UAL      0.193000
     15 H5          0.7880    2.3900    0.6240 hn        1 UAL      0.355800
     16 H6         -1.4230    1.4480   -0.3300 hn        1 UAL      0.290500
@<TRIPOS>BOND
     1    1    3 1   
     2    1    8 1   
     3    1   10 1   
     4    2    8 1   
     5    2   11 1   
     6    2   15 1   
     7    4    5 1   
     8    4    6 1   
     9    4    7 2   
    10    5    9 1   
    11    5   16 1   
    12    6   12 1   
    13    6   13 1   
    14    8    9 2   
    15    9   14 1   
@<TRIPOS>SUBSTRUCTURE
     1 UAL         1 TEMP              0 ****  ****    0 ROOT
