@<TRIPOS>MOLECULE
UAM
   62    63     1     0     0
SMALL
bcc


@<TRIPOS>ATOM
      1 CAO        -0.1270   -0.5460   -1.0940 c3        1 UAM     -0.075100
      2 CAW         1.2130    0.1030   -1.0840 ca        1 UAM     -0.013300
      3 CAM         2.3650   -0.6670   -1.0910 ca        1 UAM     -0.140000
      4 CAK         3.6280   -0.0510   -1.0530 ca        1 UAM      0.008000
      5 CAL         3.7360    1.3300   -1.0110 ca        1 UAM     -0.208000
      6 CAV         2.5700    2.1220   -0.9990 ca        1 UAM      0.231100
      7 OAH         2.6260    3.4890   -0.9660 oh        1 UAM     -0.509100
      8 CAX         1.2950    1.5190   -1.0320 ca        1 UAM     -0.250600
      9 CAU         0.0800    2.2910   -0.9840 c         1 UAM      0.832200
     10 OAG        -0.1470    3.4860   -0.7170 o         1 UAM     -0.728500
     11 OAR        -1.1430    1.6750   -1.2270 os        1 UAM     -0.532900
     12 CBD        -1.1550    0.3470   -1.7750 c3        1 UAM      0.142100
     13 CBC        -2.5980   -0.1810   -1.5630 c3        1 UAM      0.131500
     14 CAP        -2.7840   -1.4760   -2.3600 c3        1 UAM     -0.120400
     15 CAY        -4.1650   -2.1120   -2.2500 c3        1 UAM     -0.077700
     16 CAB        -4.1150   -3.4900   -2.8910 c3        1 UAM     -0.108100
     17 CAA        -4.6410   -2.2220   -0.8180 c3        1 UAM     -0.108100
     18 NAQ        -3.6400    0.8560   -1.9610 ny        1 UAM     -0.661800
     19 CAT        -3.9520    1.8130   -0.8540 c         1 UAM      0.506100
     20 OAF        -4.5510    1.3850    0.1190 o         1 UAM     -0.366100
     21 CBA        -3.5080    3.2720   -1.0530 c3        1 UAM      0.048100
     22 OAI        -4.3340    3.9190   -1.9810 oh        1 UAM     -0.559800
     23 CBB        -3.4790    3.9740    0.3210 c3        1 UAM      0.103100
     24 OAJ        -2.5510    3.4100    1.2090 oh        1 UAM     -0.573800
     25 CAZ        -3.1700    5.5050    0.1830 c3        1 UAM      0.106500
     26 NAD        -3.4940    6.1760    1.4880 nz        1 UAM     -0.847600
     27 CAN        -1.7050    5.6910   -0.2280 c3        1 UAM     -0.204400
     28 CAS        -1.2740    7.1180   -0.3790 c         1 UAM      0.549100
     29 OAE        -1.8400    8.1070    0.0660 o         1 UAM     -0.410100
     30 NAC         0.0110    7.3530   -1.1170 nz        1 UAM     -0.745400
     31 H1         -0.4360   -0.7650   -0.0340 hc        1 UAM      0.102700
     32 H2         -0.0710   -1.5280   -1.6410 hc        1 UAM      0.102700
     33 H3          2.3030   -1.7680   -1.1260 ha        1 UAM      0.177000
     34 H4          4.5400   -0.6770   -1.0590 ha        1 UAM      0.189000
     35 H5          4.7280    1.8120   -0.9840 ha        1 UAM      0.179000
     36 H6          3.5630    3.7540   -0.9450 ho        1 UAM      0.457000
     37 H7         -0.9290    0.4340   -2.8770 h1        1 UAM      0.093700
     38 H8         -2.7690   -0.3910   -0.4620 hx        1 UAM      0.133700
     39 H9         -2.5370   -1.3060   -3.4410 hc        1 UAM      0.095700
     40 H10        -2.0300   -2.2080   -1.9520 hc        1 UAM      0.095700
     41 H11        -4.9080   -1.5020   -2.8400 hc        1 UAM      0.033700
     42 H12        -3.7380   -3.4240   -3.9400 hc        1 UAM      0.059533
     43 H13        -5.1400   -3.9360   -2.9100 hc        1 UAM      0.059533
     44 H14        -3.4470   -4.1710   -2.3100 hc        1 UAM      0.059533
     45 H15        -5.5910   -2.8120   -0.7790 hc        1 UAM      0.059533
     46 H16        -3.8850   -2.7490   -0.1860 hc        1 UAM      0.059533
     47 H17        -4.8410   -1.2150   -0.3750 hc        1 UAM      0.059533
     48 H18        -3.3140    1.3690   -2.7860 hn        1 UAM      0.479800
     49 H19        -2.4710    3.2970   -1.5170 h1        1 UAM      0.152700
     50 H20        -5.2520    3.9190   -1.6610 ho        1 UAM      0.448000
     51 H21        -4.4880    3.8370    0.8220 h1        1 UAM      0.126700
     52 H22        -1.7810    3.0760    0.7120 ho        1 UAM      0.456000
     53 H23        -3.8530    5.9450   -0.6080 hx        1 UAM      0.144700
     54 H24        -3.2600    7.1790    1.4540 hn        1 UAM      0.485800
     55 H25        -4.5000    6.0820    1.6860 hn        1 UAM      0.485800
     56 H27        -1.5620    5.1330   -1.2030 hc        1 UAM      0.163700
     57 H28        -1.0140    5.1860    0.5180 hc        1 UAM      0.163700
     58 H29         0.6630    6.5670   -0.9750 hn        1 UAM      0.498800
     59 H30        -0.1770    7.4500   -2.1270 hn        1 UAM      0.498800
     60 HAQ2       -4.5060    0.3400   -2.2020 hn        1 UAM      0.479800
     61 HAD3       -2.9720    5.7220    2.2520 hn        1 UAM      0.485800
     62 HAC3        0.4530    8.2300   -0.7920 hn        1 UAM      0.498800
@<TRIPOS>BOND
     1    1    2 1   
     2    1   12 1   
     3    1   31 1   
     4    1   32 1   
     5    2    3 ar  
     6    2    8 ar  
     7    3    4 ar  
     8    3   33 1   
     9    4    5 ar  
    10    4   34 1   
    11    5    6 ar  
    12    5   35 1   
    13    6    7 1   
    14    6    8 ar  
    15    7   36 1   
    16    8    9 1   
    17    9   10 2   
    18    9   11 1   
    19   11   12 1   
    20   12   13 1   
    21   12   37 1   
    22   13   14 1   
    23   13   18 1   
    24   13   38 1   
    25   14   15 1   
    26   14   39 1   
    27   14   40 1   
    28   15   16 1   
    29   15   17 1   
    30   15   41 1   
    31   16   42 1   
    32   16   43 1   
    33   16   44 1   
    34   17   45 1   
    35   17   46 1   
    36   17   47 1   
    37   18   19 1   
    38   18   48 1   
    39   18   60 1   
    40   19   20 2   
    41   19   21 1   
    42   21   22 1   
    43   21   23 1   
    44   21   49 1   
    45   22   50 1   
    46   23   24 1   
    47   23   25 1   
    48   23   51 1   
    49   24   52 1   
    50   25   26 1   
    51   25   27 1   
    52   25   53 1   
    53   26   54 1   
    54   26   55 1   
    55   26   61 1   
    56   27   28 1   
    57   27   56 1   
    58   27   57 1   
    59   28   29 2   
    60   28   30 1   
    61   30   58 1   
    62   30   59 1   
    63   30   62 1   
@<TRIPOS>SUBSTRUCTURE
     1 UAM         1 TEMP              0 ****  ****    0 ROOT
