@<TRIPOS>MOLECULE
UAM
   59    60     1     0     0
SMALL
bcc


@<TRIPOS>ATOM
      1 CAO        -0.2310    0.1360   -0.0240 c3        1 UAM     -0.088100
      2 CAW         1.2540    0.1060    0.0490 ca        1 UAM     -0.003300
      3 CAM         1.9210   -0.1680    1.2410 ca        1 UAM     -0.177000
      4 CAK         3.3170   -0.1860    1.2700 ca        1 UAM     -0.053000
      5 CAL         4.0520    0.0590    0.1170 ca        1 UAM     -0.235000
      6 CAV         3.3810    0.3390   -1.0880 ca        1 UAM      0.195100
      7 OAH         4.0550    0.5710   -2.2570 oh        1 UAM     -0.462100
      8 CAX         1.9740    0.3750   -1.1300 ca        1 UAM     -0.202600
      9 CAU         1.2430    0.7150   -2.3550 c         1 UAM      0.744200
     10 OAG         1.6520    1.2920   -3.3620 o         1 UAM     -0.557500
     11 OAR        -0.1020    0.4140   -2.4520 os        1 UAM     -0.426900
     12 CBD        -0.6890   -0.3510   -1.3920 c3        1 UAM      0.127100
     13 CBC        -2.2310   -0.2520   -1.5680 c3        1 UAM      0.101700
     14 CAP        -2.5990   -0.9390   -2.8920 c3        1 UAM     -0.081400
     15 CAY        -4.0940   -1.0260   -3.1500 c3        1 UAM     -0.063700
     16 CAB        -4.3340   -1.7100   -4.4820 c3        1 UAM     -0.096100
     17 CAA        -4.8180   -1.7620   -2.0420 c3        1 UAM     -0.096100
     18 NAQ        -2.7110    1.1080   -1.4840 n         1 UAM     -0.525900
     19 CAT        -3.5390    1.5290   -0.4740 c         1 UAM      0.632100
     20 OAF        -4.0910    0.7480    0.3320 o         1 UAM     -0.631100
     21 CBA        -3.8310    3.0350   -0.3680 c3        1 UAM      0.077100
     22 OAI        -5.0740    3.2450    0.2640 oh        1 UAM     -0.584800
     23 CBB        -2.7050    3.7100    0.4430 c3        1 UAM      0.115100
     24 OAJ        -1.4860    3.4190   -0.2220 oh        1 UAM     -0.620800
     25 CAZ        -2.9400    5.2390    0.5730 c3        1 UAM      0.149500
     26 NAD        -2.1340    5.7680    1.6640 n3        1 UAM     -0.925800
     27 CAN        -2.6200    5.9260   -0.7620 c3        1 UAM     -0.153400
     28 CAS        -3.0520    7.3790   -0.7650 c         1 UAM      0.660100
     29 OAE        -3.4280    7.9760    0.2660 o         1 UAM     -0.628100
     30 NAC        -3.0100    8.0520   -1.9610 n         1 UAM     -0.674000
     31 H1         -0.5800    1.1940    0.1500 hc        1 UAM      0.084700
     32 H2         -0.6860   -0.5100    0.7710 hc        1 UAM      0.084700
     33 H3          1.3470   -0.3710    2.1570 ha        1 UAM      0.144000
     34 H4          3.8400   -0.4010    2.2160 ha        1 UAM      0.140000
     35 H5          5.1510    0.0390    0.1390 ha        1 UAM      0.142000
     36 H6          5.0060    0.5450   -2.0680 ho        1 UAM      0.424000
     37 H7         -0.3850   -1.4260   -1.5360 h1        1 UAM      0.062700
     38 H8         -2.6890   -0.8440   -0.7160 h1        1 UAM      0.091700
     39 H9         -2.1710   -1.9760   -2.8620 hc        1 UAM      0.055200
     40 H10        -2.1040   -0.3940   -3.7400 hc        1 UAM      0.055200
     41 H11        -4.5120    0.0180   -3.2130 hc        1 UAM      0.053700
     42 H12        -3.8090   -1.1640   -5.3020 hc        1 UAM      0.036533
     43 H13        -3.9580   -2.7600   -4.4570 hc        1 UAM      0.036533
     44 H14        -5.4270   -1.7310   -4.7120 hc        1 UAM      0.036533
     45 H15        -4.3440   -2.7550   -1.8530 hc        1 UAM      0.036533
     46 H16        -4.7960   -1.1670   -1.0950 hc        1 UAM      0.036533
     47 H17        -5.8850   -1.9300   -2.3260 hc        1 UAM      0.036533
     48 H18        -2.1790    1.7920   -1.9770 hn        1 UAM      0.334500
     49 H19        -3.9350    3.5030   -1.3850 h1        1 UAM      0.094700
     50 H20        -5.1680    2.5890    0.9720 ho        1 UAM      0.431000
     51 H21        -2.6870    3.2430    1.4700 h1        1 UAM      0.052700
     52 H22        -0.7960    3.9290    0.2220 ho        1 UAM      0.432000
     53 H23        -4.0500    5.3770    0.7650 h1        1 UAM      0.064700
     54 H24        -2.5330    5.4940    2.5400 hn        1 UAM      0.367300
     55 H25        -2.1070    6.7700    1.6190 hn        1 UAM      0.367300
     56 H27        -3.1500    5.3750   -1.5820 hc        1 UAM      0.076200
     57 H28        -1.5180    5.8720   -0.9720 hc        1 UAM      0.076200
     58 H29        -2.7230    7.6040   -2.7910 hn        1 UAM      0.314000
     59 H30        -3.2860    9.0020   -1.9980 hn        1 UAM      0.314000
@<TRIPOS>BOND
     1    1    2 1   
     2    1   12 1   
     3    1   31 1   
     4    1   32 1   
     5    2    3 ar  
     6    2    8 ar  
     7    3    4 ar  
     8    3   33 1   
     9    4    5 ar  
    10    4   34 1   
    11    5    6 ar  
    12    5   35 1   
    13    6    7 1   
    14    6    8 ar  
    15    7   36 1   
    16    8    9 1   
    17    9   10 2   
    18    9   11 1   
    19   11   12 1   
    20   12   13 1   
    21   12   37 1   
    22   13   14 1   
    23   13   18 1   
    24   13   38 1   
    25   14   15 1   
    26   14   39 1   
    27   14   40 1   
    28   15   16 1   
    29   15   17 1   
    30   15   41 1   
    31   16   42 1   
    32   16   43 1   
    33   16   44 1   
    34   17   45 1   
    35   17   46 1   
    36   17   47 1   
    37   18   19 1   
    38   18   48 1   
    39   19   20 2   
    40   19   21 1   
    41   21   22 1   
    42   21   23 1   
    43   21   49 1   
    44   22   50 1   
    45   23   24 1   
    46   23   25 1   
    47   23   51 1   
    48   24   52 1   
    49   25   26 1   
    50   25   27 1   
    51   25   53 1   
    52   26   54 1   
    53   26   55 1   
    54   27   28 1   
    55   27   56 1   
    56   27   57 1   
    57   28   29 2   
    58   28   30 1   
    59   30   58 1   
    60   30   59 1   
@<TRIPOS>SUBSTRUCTURE
     1 UAM         1 TEMP              0 ****  ****    0 ROOT
