@<TRIPOS>MOLECULE
UAM
   62    63     1     0     0
SMALL
bcc


@<TRIPOS>ATOM
      1 CAO        -0.1870   -0.5850   -1.0940 c3        1 UAM     -0.075100
      2 CAW         1.1690    0.0320   -1.1100 ca        1 UAM     -0.013300
      3 CAM         2.3010   -0.7650   -1.1270 ca        1 UAM     -0.140000
      4 CAK         3.5800   -0.1780   -1.1140 ca        1 UAM      0.008000
      5 CAL         3.7210    1.2000   -1.0860 ca        1 UAM     -0.208000
      6 CAV         2.5740    2.0190   -1.0640 ca        1 UAM      0.231100
      7 OAH         2.6620    3.3850   -1.0450 oh        1 UAM     -0.509100
      8 CAX         1.2850    1.4460   -1.0730 ca        1 UAM     -0.250600
      9 CAU         0.0890    2.2470   -1.0140 c         1 UAM      0.832200
     10 OAG        -0.1060    3.4500   -0.7550 o         1 UAM     -0.728500
     11 OAR        -1.1510    1.6590   -1.2330 os        1 UAM     -0.532900
     12 CBD        -1.2040    0.3270   -1.7680 c3        1 UAM      0.142100
     13 CBC        -2.6550   -0.1660   -1.5300 c3        1 UAM      0.131500
     14 CAP        -2.8830   -1.4640   -2.3100 c3        1 UAM     -0.120400
     15 CAY        -4.2770   -2.0660   -2.1750 c3        1 UAM     -0.077700
     16 CAB        -4.2690   -3.4500   -2.8030 c3        1 UAM     -0.108100
     17 CAA        -4.7340   -2.1500   -0.7360 c3        1 UAM     -0.108100
     18 NAQ        -3.6790    0.8910   -1.9230 n4        1 UAM     -0.661800
     19 CAT        -3.9510    1.8670   -0.8220 c         1 UAM      0.506100
     20 OAF        -4.5470    1.4630    0.1640 o         1 UAM     -0.366100
     21 CBA        -3.4760    3.3120   -1.0410 c3        1 UAM      0.048100
     22 OAI        -4.3000    3.9710   -1.9630 oh        1 UAM     -0.559800
     23 CBB        -3.4110    4.0260    0.3260 c3        1 UAM      0.103100
     24 OAJ        -2.4830    3.4490    1.2060 oh        1 UAM     -0.573800
     25 CAZ        -3.0670    5.5480    0.1690 c3        1 UAM      0.106500
     26 NAD        -3.3570    6.2390    1.4710 n4        1 UAM     -0.847600
     27 CAN        -1.6040    5.6950   -0.2640 c3        1 UAM     -0.204400
     28 CAS        -1.1410    7.1100   -0.4350 c         1 UAM      0.549100
     29 OAE        -1.6770    8.1160    0.0090 o         1 UAM     -0.410100
     30 NAC         0.1390    7.3060   -1.1930 n4        1 UAM     -0.745400
     31 H1         -0.4840   -0.7870   -0.0280 hc        1 UAM      0.102700
     32 H2         -0.1620   -1.5730   -1.6330 hc        1 UAM      0.102700
     33 H3          2.2130   -1.8650   -1.1500 ha        1 UAM      0.177000
     34 H4          4.4760   -0.8270   -1.1270 ha        1 UAM      0.189000
     35 H5          4.7240    1.6580   -1.0790 ha        1 UAM      0.179000
     36 H6          3.6050    3.6270   -1.0400 ho        1 UAM      0.457000
     37 H7         -0.9920    0.3980   -2.8740 h1        1 UAM      0.093700
     38 H8         -2.8150   -0.3600   -0.4240 hx        1 UAM      0.133700
     39 H9         -2.6480   -1.3100   -3.3970 hc        1 UAM      0.095700
     40 H10        -2.1410   -2.2090   -1.9060 hc        1 UAM      0.095700
     41 H11        -5.0140   -1.4430   -2.7600 hc        1 UAM      0.033700
     42 H12        -5.3040   -3.8720   -2.8030 hc        1 UAM      0.059533
     43 H13        -3.6100   -4.1420   -2.2250 hc        1 UAM      0.059533
     44 H14        -3.9060   -3.4030   -3.8570 hc        1 UAM      0.059533
     45 H15        -5.6980   -2.7170   -0.6760 hc        1 UAM      0.059533
     46 H16        -3.9830   -2.6890   -0.1100 hc        1 UAM      0.059533
     47 H17        -4.9050   -1.1350   -0.3000 hc        1 UAM      0.059533
     48 H18        -4.5600    0.3940   -2.1470 hn        1 UAM      0.479800
     49 H19        -2.4450    3.3080   -1.5200 h1        1 UAM      0.152700
     50 H20        -5.2120    3.9960   -1.6300 ho        1 UAM      0.448000
     51 H21        -4.4150    3.9180    0.8430 h1        1 UAM      0.126700
     52 H22        -1.7290    3.0920    0.7020 ho        1 UAM      0.456000
     53 H23        -3.7500    5.9970   -0.6170 hx        1 UAM      0.144700
     54 H24        -2.8350    5.7790    2.2320 hn        1 UAM      0.485800
     55 H25        -4.3620    6.1710    1.6840 hn        1 UAM      0.485800
     56 H27        -0.9140    5.1810    0.4760 hc        1 UAM      0.163700
     57 H28        -1.4880    5.1250   -1.2360 hc        1 UAM      0.163700
     58 H29         0.7730    6.5060   -1.0530 hn        1 UAM      0.498800
     59 H30         0.6070    8.1760   -0.8810 hn        1 UAM      0.498800
     60 HAQ2       -3.3520    1.3900   -2.7580 hn        1 UAM      0.479800
     61 HAD3       -3.0990    7.2350    1.4250 hn        1 UAM      0.485800
     62 HAC3       -0.0600    7.4000   -2.2000 hn        1 UAM      0.498800
@<TRIPOS>BOND
     1    1    2 1   
     2    1   12 1   
     3    1   31 1   
     4    1   32 1   
     5    2    3 ar  
     6    2    8 ar  
     7    3    4 ar  
     8    3   33 1   
     9    4    5 ar  
    10    4   34 1   
    11    5    6 ar  
    12    5   35 1   
    13    6    7 1   
    14    6    8 ar  
    15    7   36 1   
    16    8    9 1   
    17    9   10 2   
    18    9   11 1   
    19   11   12 1   
    20   12   13 1   
    21   12   37 1   
    22   13   14 1   
    23   13   18 1   
    24   13   38 1   
    25   14   15 1   
    26   14   39 1   
    27   14   40 1   
    28   15   16 1   
    29   15   17 1   
    30   15   41 1   
    31   16   42 1   
    32   16   43 1   
    33   16   44 1   
    34   17   45 1   
    35   17   46 1   
    36   17   47 1   
    37   18   19 1   
    38   18   48 1   
    39   18   60 1   
    40   19   20 2   
    41   19   21 1   
    42   21   22 1   
    43   21   23 1   
    44   21   49 1   
    45   22   50 1   
    46   23   24 1   
    47   23   25 1   
    48   23   51 1   
    49   24   52 1   
    50   25   26 1   
    51   25   27 1   
    52   25   53 1   
    53   26   54 1   
    54   26   55 1   
    55   26   61 1   
    56   27   28 1   
    57   27   56 1   
    58   27   57 1   
    59   28   29 2   
    60   28   30 1   
    61   30   58 1   
    62   30   59 1   
    63   30   62 1   
@<TRIPOS>SUBSTRUCTURE
     1 UAM         1 TEMP              0 ****  ****    0 ROOT
