@<TRIPOS>MOLECULE
UAP
   22    19     1     0     0
SMALL
bcc


@<TRIPOS>ATOM
      1 S          -2.9160   -0.5620   -0.8590 ss        1 UAP      2.880000
      2 C1          0.1500   -1.3590    0.4700 c3        1 UAP      0.147000
      3 O1          0.7280   -1.4310    1.6770 oh        1 UAP     -0.382000
      4 C2         -0.7240   -0.3400    0.4320 c3        1 UAP      0.043000
      5 O2         -1.4080   -0.3710   -0.8930 o         1 UAP     -0.759000
      6 C3         -0.1110    1.1560    0.6430 c3        1 UAP      0.055000
      7 O3          0.2580    1.3930    2.0530 oh        1 UAP     -0.368000
      8 C4          0.9840    1.4330   -0.2380 c2        1 UAP     -0.266000
      9 C5          1.8810    0.2040   -0.6670 c1        1 UAP     -0.008000
     10 O5          1.2810   -1.0120   -0.6900 os        1 UAP     -0.248000
     11 C6          3.1640    0.4380   -1.4670 c1        1 UAP      0.377000
     12 O1S        -3.5590    0.4710    0.0590 os        1 UAP     -1.101000
     13 O2S        -3.5150   -0.5060   -2.2610 o         1 UAP     -1.074000
     14 O3S        -3.2760   -1.9510   -0.4450 o         1 UAP     -1.074000
     15 O61         3.1050    0.6140   -2.7160 o         1 UAP     -0.569000
     16 O62         4.2970    0.3910   -0.8820 o         1 UAP     -0.569000
     17 H1         -0.3070   -2.2100    0.2580 h2        1 UAP      0.128000
     18 HO1         0.8420   -2.2860    1.9020 ho        1 UAP      0.238000
     19 H2         -1.4020   -0.4920    1.1310 h1        1 UAP      0.095000
     20 H3         -0.8360    1.8460    0.5190 h1        1 UAP      0.079000
     21 HO3         0.0260    2.2210    2.2850 ho        1 UAP      0.236000
     22 H4          1.3380    2.3530   -0.3120 ha        1 UAP      0.139000
@<TRIPOS>BOND
     1    1   13 1   
     2    1   14 1   
     3    2    3 1   
     4    2    4 1   
     5    2   10 1   
     6    2   17 1   
     7    3   18 1   
     8    4    5 1   
     9    4    6 1   
    10    4   19 1   
    11    6    7 1   
    12    6    8 1   
    13    6   20 1   
    14    7   21 1   
    15    8    9 1   
    16    8   22 1   
    17    9   10 1   
    18   11   15 1   
    19   11   16 1   
@<TRIPOS>SUBSTRUCTURE
     1 UAP         1 TEMP              0 ****  ****    0 ROOT
