@<TRIPOS>MOLECULE
UAP
   22    22     1     0     0
SMALL
bcc


@<TRIPOS>ATOM
      1 S           0.1320    0.4520   -0.5430 s6        1 UAP      1.702300
      2 C1          2.7190   -1.5830    1.5610 c3        1 UAP      0.329900
      3 O1          2.0630   -2.3690    2.5340 oh        1 UAP     -0.654800
      4 C2          2.0090   -0.2190    1.3700 c3        1 UAP      0.154100
      5 O2          1.6500   -0.1260    0.0230 os        1 UAP     -0.621500
      6 C3          2.9200    0.9790    1.7380 c3        1 UAP      0.170300
      7 O3          2.1460    2.1060    2.1340 oh        1 UAP     -0.640800
      8 C4          3.8470    0.6400    2.8530 c2        1 UAP     -0.270200
      9 C5          4.3650   -0.5960    2.9500 ce        1 UAP      0.016900
     10 O5          4.0760   -1.5510    1.9800 os        1 UAP     -0.363900
     11 C6          5.2220   -1.1360    4.0880 c         1 UAP      0.926800
     12 O1S         0.2820    0.3260   -1.9240 o         1 UAP     -0.760200
     13 O2S        -0.8100   -0.3910    0.0420 o         1 UAP     -0.760200
     14 O3S         0.1300    1.7640   -0.0530 o         1 UAP     -0.760200
     15 O61         4.7030   -2.0490    4.7910 o         1 UAP     -0.834300
     16 O62         6.3610   -0.6360    4.2910 o         1 UAP     -0.834300
     17 H1          2.7130   -2.1650    0.5960 h2        1 UAP      0.088700
     18 H2          1.0880   -0.2010    2.0210 h1        1 UAP      0.055700
     19 H3          3.5150    1.2580    0.8190 h1        1 UAP      0.039700
     20 HO3         1.4790    2.2390    1.4430 ho        1 UAP      0.437000
     21 H4          4.0750    1.4270    3.5790 ha        1 UAP      0.139000
     22 HO1         2.5430   -2.2720    3.3730 ho        1 UAP      0.439000
@<TRIPOS>BOND
     1    1    5 1   
     2    1   12 1   
     3    1   13 1   
     4    1   14 1   
     5    2    3 1   
     6    2    4 1   
     7    2   10 1   
     8    2   17 1   
     9    3   22 1   
    10    4    5 1   
    11    4    6 1   
    12    4   18 1   
    13    6    7 1   
    14    6    8 1   
    15    6   19 1   
    16    7   20 1   
    17    8    9 2   
    18    8   21 1   
    19    9   10 1   
    20    9   11 1   
    21   11   15 1   
    22   11   16 1   
@<TRIPOS>SUBSTRUCTURE
     1 UAP         1 TEMP              0 ****  ****    0 ROOT
