@<TRIPOS>MOLECULE
UAP
   22    22     1     0     0
SMALL
bcc


@<TRIPOS>ATOM
      1 S           0.0430    0.4290   -0.4500 s6        1 UAP      1.702300
      2 C1          2.7610   -1.5750    1.5120 c3        1 UAP      0.329900
      3 O1          2.1620   -2.4140    2.4790 oh        1 UAP     -0.654800
      4 C2          1.9980   -0.2330    1.3870 c3        1 UAP      0.154100
      5 O2          1.5960   -0.1100    0.0540 os        1 UAP     -0.621500
      6 C3          2.8760    0.9860    1.7680 c3        1 UAP      0.170300
      7 O3          2.0740    2.0700    2.2230 oh        1 UAP     -0.640800
      8 C4          3.8470    0.6450    2.8440 c2        1 UAP     -0.270200
      9 C5          4.4110   -0.5730    2.8860 ce        1 UAP      0.016900
     10 O5          4.1270   -1.5070    1.8940 os        1 UAP     -0.363900
     11 C6          5.3200   -1.1170    3.9810 c         1 UAP      0.926800
     12 O1S         0.1580    0.3560   -1.8380 o         1 UAP     -0.760200
     13 O2S        -0.8510   -0.4680    0.1310 o         1 UAP     -0.760200
     14 O3S         0.0060    1.7230    0.0850 o         1 UAP     -0.760200
     15 O61         4.8550   -2.0710    4.6680 o         1 UAP     -0.834300
     16 O62         6.4470   -0.5830    4.1670 o         1 UAP     -0.834300
     17 H1          2.7470   -2.1260    0.5300 h2        1 UAP      0.088700
     18 H2          1.0960   -0.2690    2.0630 h1        1 UAP      0.055700
     19 H3          3.4330    1.3150    0.8420 h1        1 UAP      0.039700
     20 HO3         1.3820    2.2010    1.5560 ho        1 UAP      0.437000
     21 H4          4.0680    1.4170    3.5890 ha        1 UAP      0.139000
     22 HO1         2.6630   -2.3270    3.3060 ho        1 UAP      0.439000
@<TRIPOS>BOND
     1    1    5 1   
     2    1   12 1   
     3    1   13 1   
     4    1   14 1   
     5    2    3 1   
     6    2    4 1   
     7    2   10 1   
     8    2   17 1   
     9    3   22 1   
    10    4    5 1   
    11    4    6 1   
    12    4   18 1   
    13    6    7 1   
    14    6    8 1   
    15    6   19 1   
    16    7   20 1   
    17    8    9 2   
    18    8   21 1   
    19    9   10 1   
    20    9   11 1   
    21   11   15 1   
    22   11   16 1   
@<TRIPOS>SUBSTRUCTURE
     1 UAP         1 TEMP              0 ****  ****    0 ROOT
