@<TRIPOS>MOLECULE
UAP
   22    22     1     0     0
SMALL
bcc


@<TRIPOS>ATOM
      1 S          -3.0950   -0.4480    0.1170 s6        1 UAP      1.702300
      2 C1          0.4310    0.9910    0.9830 c3        1 UAP      0.329900
      3 O1          0.6950    2.1540    0.2250 oh        1 UAP     -0.654800
      4 C2         -0.3620   -0.0500    0.1530 c3        1 UAP      0.154100
      5 O2         -1.5440   -0.3170    0.8470 os        1 UAP     -0.621500
      6 C3          0.4220   -1.3720   -0.0430 c3        1 UAP      0.170300
      7 O3          0.0050   -2.0410   -1.2280 oh        1 UAP     -0.640800
      8 C4          1.8880   -1.1290   -0.1410 c2        1 UAP     -0.270200
      9 C5          2.4640   -0.1600    0.5900 ce        1 UAP      0.016900
     10 O5          1.7000    0.5890    1.4780 os        1 UAP     -0.363900
     11 C6          3.9160    0.2940    0.5140 c         1 UAP      0.926800
     12 O1S        -3.9060   -0.6990    1.2230 o         1 UAP     -0.760200
     13 O2S        -3.2960    0.7780   -0.5140 o         1 UAP     -0.760200
     14 O3S        -2.9070   -1.5300   -0.7520 o         1 UAP     -0.760200
     15 O61         4.1120    1.4650    0.0780 o         1 UAP     -0.834300
     16 O62         4.8300   -0.5070    0.8460 o         1 UAP     -0.834300
     17 H1         -0.1630    1.3040    1.8870 h2        1 UAP      0.088700
     18 H2         -0.5950    0.4000   -0.8550 h1        1 UAP      0.055700
     19 H3          0.2040   -2.0390    0.8420 h1        1 UAP      0.039700
     20 HO3        -0.9630   -2.0890   -1.1920 ho        1 UAP      0.437000
     21 H4          2.4600   -1.7600   -0.8300 ha        1 UAP      0.139000
     22 HO1         1.6020    2.0910   -0.1170 ho        1 UAP      0.439000
@<TRIPOS>BOND
     1    1    5 1   
     2    1   12 1   
     3    1   13 1   
     4    1   14 1   
     5    2    3 1   
     6    2    4 1   
     7    2   10 1   
     8    2   17 1   
     9    3   22 1   
    10    4    5 1   
    11    4    6 1   
    12    4   18 1   
    13    6    7 1   
    14    6    8 1   
    15    6   19 1   
    16    7   20 1   
    17    8    9 2   
    18    8   21 1   
    19    9   10 1   
    20    9   11 1   
    21   11   15 1   
    22   11   16 1   
@<TRIPOS>SUBSTRUCTURE
     1 UAP         1 TEMP              0 ****  ****    0 ROOT
