@<TRIPOS>MOLECULE
UAR
   32    33     1     0     0
SMALL
bcc


@<TRIPOS>ATOM
      1 OP3         0.6390    0.3360   -5.4940 o         1 UAR     -0.931500
      2 P           0.5870   -0.4640   -4.2290 p5        1 UAR      1.334900
      3 OP1        -0.2310   -1.7210   -4.2150 o         1 UAR     -0.931500
      4 OP2         1.8710   -0.5440   -3.4250 o         1 UAR     -0.931500
      5 O5'        -0.3080    0.5650   -3.1390 os        1 UAR     -0.560200
      6 C5'        -0.4140    0.0660   -1.8710 c3        1 UAR      0.242400
      7 C4'         0.6010    0.7680   -0.9340 c3        1 UAR      0.070100
      8 O4'        -0.0300    1.0170    0.3520 os        1 UAR     -0.441600
      9 C3'         1.8900   -0.0370   -0.6820 c3        1 UAR      0.137100
     10 O3'         3.0080    0.6130   -1.2420 oh        1 UAR     -0.678800
     11 C2'         2.0850   -0.0560    0.8540 c3        1 UAR      0.107100
     12 O2'         2.1010   -1.3480    1.4050 oh        1 UAR     -0.615800
     13 C1'         0.9310    0.8530    1.3870 c3        1 UAR      0.274500
     14 N1          0.2570    0.4430    2.6280 n         1 UAR     -0.338000
     15 C2         -0.4610   -0.7820    2.7200 c         1 UAR      0.817500
     16 O2         -0.4460   -1.6640    1.8420 o         1 UAR     -0.599500
     17 N3         -1.2070   -1.0320    3.8990 n         1 UAR     -0.595500
     18 C4         -1.3020   -0.1250    4.9580 c         1 UAR      0.722700
     19 O4         -1.9830   -0.4250    5.9620 o         1 UAR     -0.676500
     20 C5         -0.5730    1.1300    4.7890 cc        1 UAR     -0.378200
     21 C6          0.1340    1.3630    3.6470 cd        1 UAR      0.081600
     22 H5'        -0.2380   -1.0460   -1.8530 h1        1 UAR      0.004700
     23 H5''       -1.4440    0.2840   -1.4590 h1        1 UAR      0.004700
     24 H4'         0.8580    1.7780   -1.3570 h1        1 UAR      0.067700
     25 H3'         1.8040   -1.0780   -1.1020 h1        1 UAR      0.112700
     26 HO3'        2.9580    0.4270   -2.2110 ho        1 UAR      0.508000
     27 H2'         3.0710    0.3960    1.1470 h1        1 UAR      0.072700
     28 HO2'        1.4580   -1.8850    0.9150 ho        1 UAR      0.435000
     29 H1'         1.3730    1.8760    1.6030 h2        1 UAR      0.034700
     30 H3         -1.7060   -1.8930    3.9330 hn        1 UAR      0.338500
     31 H5         -0.6320    1.8580    5.6040 ha        1 UAR      0.157000
     32 H6          0.6690    2.3220    3.4970 h4        1 UAR      0.155000
@<TRIPOS>BOND
     1    1    2 1   
     2    2    3 1   
     3    2    4 1   
     4    2    5 1   
     5    5    6 1   
     6    6    7 1   
     7    6   22 1   
     8    6   23 1   
     9    7    8 1   
    10    7    9 1   
    11    7   24 1   
    12    8   13 1   
    13    9   10 1   
    14    9   11 1   
    15    9   25 1   
    16   10   26 1   
    17   11   12 1   
    18   11   13 1   
    19   11   27 1   
    20   12   28 1   
    21   13   14 1   
    22   13   29 1   
    23   14   15 1   
    24   14   21 1   
    25   15   16 2   
    26   15   17 1   
    27   17   18 1   
    28   17   30 1   
    29   18   19 2   
    30   18   20 1   
    31   20   21 2   
    32   20   31 1   
    33   21   32 1   
@<TRIPOS>SUBSTRUCTURE
     1 UAR         1 TEMP              0 ****  ****    0 ROOT
