@<TRIPOS>MOLECULE
UAR
   32    33     1     0     0
SMALL
bcc


@<TRIPOS>ATOM
      1 OP3        -2.6860    2.2820    3.2460 o         1 UAR     -0.922500
      2 P          -1.2100    2.0690    3.4860 p5        1 UAR      1.325900
      3 OP1        -0.9500    1.9650    4.9690 o         1 UAR     -0.922500
      4 OP2        -0.4340    3.2340    2.9190 o         1 UAR     -0.922500
      5 O5'        -0.7480    0.7340    2.7760 os        1 UAR     -0.575200
      6 C5'        -0.8560    0.6470    1.3740 c3        1 UAR      0.206400
      7 C4'        -1.2010   -0.6370    1.0190 c3        1 UAR      0.061100
      8 O4'        -1.7830   -0.6570   -0.3690 os        1 UAR     -0.434600
      9 C3'         0.1090   -1.5710    0.9590 c3        1 UAR      0.141100
     10 O3'         0.1020   -2.5480    2.0940 oh        1 UAR     -0.659800
     11 C2'         0.0250   -2.1650   -0.1160 c3        1 UAR      0.095100
     12 O2'         1.3790   -2.3780   -0.6870 oh        1 UAR     -0.561800
     13 C1'        -0.8610   -1.1910   -1.1090 c3        1 UAR      0.269500
     14 N1         -0.0480   -0.1950   -1.6550 n         1 UAR     -0.366000
     15 C2          1.1720   -0.5610   -2.3730 c         1 UAR      0.794500
     16 O2          1.4280   -1.7300   -2.5780 o         1 UAR     -0.713500
     17 N3          2.0810    0.4800   -2.8520 n         1 UAR     -0.596500
     18 C4          1.7290    1.8480   -2.7130 c         1 UAR      0.719700
     19 O4          2.4300    2.7090   -3.2070 o         1 UAR     -0.684500
     20 C5          0.4780    2.2170   -2.0370 cc        1 UAR     -0.372200
     21 C6         -0.4070    1.1690   -1.5130 cd        1 UAR      0.099600
     22 H5'        -1.5460    1.2700    1.0600 h1        1 UAR      0.017200
     23 H5''        0.0050    0.8800    0.9650 h1        1 UAR      0.017200
     24 H4'        -1.8440   -1.0020    1.6580 h1        1 UAR      0.040700
     25 H3'         0.9200   -1.0240    0.9830 h1        1 UAR      0.163700
     26 HO3'        0.9370   -2.7050    2.3550 ho        1 UAR      0.491000
     27 H2'        -0.4280   -3.0230    0.0080 h1        1 UAR      0.038700
     28 HO2'        1.6380   -3.2150   -0.5330 ho        1 UAR      0.378000
     29 H1'        -1.2690   -1.7220   -1.8240 h2        1 UAR      0.078700
     30 H3          2.8410    0.2500   -3.2990 hn        1 UAR      0.323500
     31 H5          0.2340    3.1570   -1.9410 ha        1 UAR      0.187000
     32 H6         -1.2380    1.4120   -1.0630 h4        1 UAR      0.283000
@<TRIPOS>BOND
     1    1    2 1   
     2    2    3 1   
     3    2    4 1   
     4    2    5 1   
     5    5    6 1   
     6    6    7 1   
     7    6   22 1   
     8    6   23 1   
     9    7    8 1   
    10    7    9 1   
    11    7   24 1   
    12    8   13 1   
    13    9   10 1   
    14    9   11 1   
    15    9   25 1   
    16   10   26 1   
    17   11   12 1   
    18   11   13 1   
    19   11   27 1   
    20   12   28 1   
    21   13   14 1   
    22   13   29 1   
    23   14   15 1   
    24   14   21 1   
    25   15   16 2   
    26   15   17 1   
    27   17   18 1   
    28   17   30 1   
    29   18   19 2   
    30   18   20 1   
    31   20   21 2   
    32   20   31 1   
    33   21   32 1   
@<TRIPOS>SUBSTRUCTURE
     1 UAR         1 TEMP              0 ****  ****    0 ROOT
