@<TRIPOS>MOLECULE
UB1
   38    39     1     0     0
SMALL
bcc


@<TRIPOS>ATOM
      1 O23         0.2880    0.3940   -0.3430 o         1 UB1     -0.804300
      2 C22         1.5400    0.2670   -0.3560 c         1 UB1      0.936200
      3 O24         2.2810    0.2100    0.6630 o         1 UB1     -0.804300
      4 C21         2.2390    0.1740   -1.7040 cc        1 UB1     -0.154700
      5 S20         3.8900    0.1660   -1.7990 ss        1 UB1      0.225200
      6 C19         3.9250    0.0280   -3.4470 cc        1 UB1     -0.171000
      7 BR26        5.4740   -0.0650   -4.4210 br        1 UB1     -0.052100
      8 C18         2.6330   -0.0040   -3.9810 cd        1 UB1     -0.056900
      9 BR25        2.3650   -0.1230   -5.8150 br        1 UB1     -0.084100
     10 C17         1.6390    0.0770   -2.9610 cd        1 UB1     -0.097300
     11 C16         0.1510    0.0800   -3.0660 c3        1 UB1      0.147300
     12 N3         -0.4330   -0.3720   -4.3200 n         1 UB1     -0.461400
     13 C2         -1.0100    0.5530   -5.2300 c         1 UB1      0.717700
     14 O14        -1.1580    1.7400   -4.8970 o         1 UB1     -0.599500
     15 C1         -1.4090    0.0290   -6.5520 cc        1 UB1     -0.263400
     16 C13        -1.9360    1.0080   -7.5240 c3        1 UB1     -0.025900
     17 C6         -1.2580   -1.2900   -6.8470 cd        1 UB1      0.041600
     18 C4         -0.3280   -1.7310   -4.6380 c         1 UB1      0.789500
     19 O15         0.1710   -2.5780   -3.8530 o         1 UB1     -0.691500
     20 N5         -0.7940   -2.1930   -5.9020 n         1 UB1     -0.382000
     21 C7         -0.5970   -3.5830   -6.2320 c3        1 UB1      0.100000
     22 C8          0.8080   -3.9480   -6.7370 c3        1 UB1     -0.087500
     23 N9          1.9090   -3.3980   -5.9020 n4        1 UB1     -0.825600
     24 C10         1.0220   -3.5100   -8.2550 c         1 UB1      0.929600
     25 O11        -0.0200   -3.2990   -8.9110 o         1 UB1     -0.779300
     26 O12         2.2200   -3.4430   -8.6160 o         1 UB1     -0.779300
     27 H161       -0.2500   -0.5790   -2.2320 h1        1 UB1      0.126200
     28 H162       -0.2150    1.1320   -2.8690 h1        1 UB1      0.126200
     29 H131       -1.1940    1.8310   -7.6770 hc        1 UB1      0.047033
     30 H132       -2.8790    1.4650   -7.1300 hc        1 UB1      0.047033
     31 H133       -2.1490    0.5240   -8.5080 hc        1 UB1      0.047033
     32 H6         -1.4720   -1.7210   -7.8490 h4        1 UB1      0.203000
     33 H71        -1.3060   -3.8610   -7.0690 h1        1 UB1      0.092200
     34 H72        -0.8370   -4.1940   -5.3140 h1        1 UB1      0.092200
     35 H8          0.8930   -5.0720   -6.7160 hx        1 UB1      0.083700
     36 HN91        1.9140   -2.3580   -5.9550 hn        1 UB1      0.456133
     37 HN92        2.7930   -3.7300   -6.2980 hn        1 UB1      0.456133
     38 H93         1.7990   -3.6700   -4.9210 hn        1 UB1      0.456133
@<TRIPOS>BOND
     1    1    2 1   
     2    2    3 1   
     3    2    4 1   
     4    4    5 1   
     5    4   10 2   
     6    5    6 1   
     7    6    7 1   
     8    6    8 2   
     9    8    9 1   
    10    8   10 1   
    11   10   11 1   
    12   11   12 1   
    13   11   27 1   
    14   11   28 1   
    15   12   13 1   
    16   12   18 1   
    17   13   14 2   
    18   13   15 1   
    19   15   16 1   
    20   15   17 2   
    21   16   29 1   
    22   16   30 1   
    23   16   31 1   
    24   17   20 1   
    25   17   32 1   
    26   18   19 2   
    27   18   20 1   
    28   20   21 1   
    29   21   22 1   
    30   21   33 1   
    31   21   34 1   
    32   22   23 1   
    33   22   24 1   
    34   22   35 1   
    35   23   36 1   
    36   23   37 1   
    37   23   38 1   
    38   24   25 1   
    39   24   26 1   
@<TRIPOS>SUBSTRUCTURE
     1 UB1         1 TEMP              0 ****  ****    0 ROOT
