@<TRIPOS>MOLECULE
UB1
   37    38     1     0     0
SMALL
bcc


@<TRIPOS>ATOM
      1 O23        -3.3910   -3.2580    1.5300 o         1 UB1     -0.821300
      2 C22        -4.1260   -2.3020    1.1660 c         1 UB1      0.935200
      3 O24        -5.3910   -2.3180    1.2140 o         1 UB1     -0.821300
      4 C21        -3.4790   -1.0370    0.6450 cc        1 UB1     -0.135700
      5 S20        -4.4120    0.3010    0.3170 ss        1 UB1      0.130200
      6 C19        -3.1260    1.2350   -0.1650 cc        1 UB1     -0.152000
      7 BR26       -3.3150    2.9730   -0.7200 br        1 UB1     -0.079100
      8 C18        -1.9250    0.5310   -0.0850 cd        1 UB1     -0.011900
      9 BR25       -0.3160    1.3230   -0.5380 br        1 UB1     -0.065100
     10 C17        -2.1290   -0.8050    0.3840 cd        1 UB1     -0.084300
     11 C16        -1.1300   -1.8860    0.6330 c3        1 UB1      0.154300
     12 N3          0.1910   -1.7610    0.0430 n         1 UB1     -0.476400
     13 C2          0.3930   -2.1190   -1.3080 c         1 UB1      0.723700
     14 O14        -0.5500   -2.5690   -1.9880 o         1 UB1     -0.642500
     15 C1          1.7550   -1.9660   -1.8390 cc        1 UB1     -0.327400
     16 C13         1.9680   -2.2840   -3.2640 c3        1 UB1     -0.005900
     17 C6          2.7610   -1.5270   -1.0270 cd        1 UB1      0.087600
     18 C4          1.2610   -1.3220    0.8620 c         1 UB1      0.803500
     19 O15         1.0840   -1.0650    2.0730 o         1 UB1     -0.640500
     20 N5          2.5700   -1.2430    0.3060 n         1 UB1     -0.350000
     21 C7          3.6860   -0.7790    1.1150 c3        1 UB1      0.110000
     22 C8          4.1840    0.6600    0.8640 c3        1 UB1     -0.002500
     23 N9          4.3620    0.9690   -0.5460 n3        1 UB1     -0.897800
     24 C10         5.4930    0.8160    1.7170 c         1 UB1      0.888600
     25 O11         6.5730    1.0510    1.1010 o         1 UB1     -0.837800
     26 O12         5.3930    0.7020    2.9670 o         1 UB1     -0.837800
     27 H161       -1.0180   -1.9900    1.7540 h1        1 UB1      0.111700
     28 H162       -1.5850   -2.8530    0.2460 h1        1 UB1      0.111700
     29 H131        1.4370   -3.2330   -3.5290 hc        1 UB1      0.029367
     30 H132        1.5530   -1.4680   -3.9070 hc        1 UB1      0.029367
     31 H133        3.0560   -2.3980   -3.4940 hc        1 UB1      0.029367
     32 H6          3.7940   -1.4010   -1.4040 h4        1 UB1      0.163000
     33 H71         3.3910   -0.8310    2.2040 h1        1 UB1      0.074700
     34 H72         4.5390   -1.4940    0.9360 h1        1 UB1      0.074700
     35 H8          3.4180    1.3690    1.2900 h1        1 UB1      0.059700
     36 HN91        4.3720    1.9670   -0.6480 hn        1 UB1      0.334800
     37 HN92        5.2740    0.6430   -0.8250 hn        1 UB1      0.334800
@<TRIPOS>BOND
     1    1    2 1   
     2    2    3 1   
     3    2    4 1   
     4    4    5 1   
     5    4   10 2   
     6    5    6 1   
     7    6    7 1   
     8    6    8 2   
     9    8    9 1   
    10    8   10 1   
    11   10   11 1   
    12   11   12 1   
    13   11   27 1   
    14   11   28 1   
    15   12   13 1   
    16   12   18 1   
    17   13   14 2   
    18   13   15 1   
    19   15   16 1   
    20   15   17 2   
    21   16   29 1   
    22   16   30 1   
    23   16   31 1   
    24   17   20 1   
    25   17   32 1   
    26   18   19 2   
    27   18   20 1   
    28   20   21 1   
    29   21   22 1   
    30   21   33 1   
    31   21   34 1   
    32   22   23 1   
    33   22   24 1   
    34   22   35 1   
    35   23   36 1   
    36   23   37 1   
    37   24   25 1   
    38   24   26 1   
@<TRIPOS>SUBSTRUCTURE
     1 UB1         1 TEMP              0 ****  ****    0 ROOT
