@<TRIPOS>MOLECULE
UB1
   38    39     1     0     0
SMALL
bcc


@<TRIPOS>ATOM
      1 O23         0.3060    0.2810   -0.3060 o         1 UB1     -0.804300
      2 C22         1.5580    0.1640   -0.3300 c         1 UB1      0.936200
      3 O24         2.3070    0.0890    0.6830 o         1 UB1     -0.804300
      4 C21         2.2500    0.1080   -1.6830 cc        1 UB1     -0.154700
      5 S20         3.9000    0.1140   -1.7890 ss        1 UB1      0.225200
      6 C19         3.9250    0.0150   -3.4400 cc        1 UB1     -0.171000
      7 BR26        5.4690   -0.0440   -4.4240 br        1 UB1     -0.052100
      8 C18         2.6310   -0.0150   -3.9660 cd        1 UB1     -0.056900
      9 BR25        2.3530   -0.0930   -5.8010 br        1 UB1     -0.084100
     10 C17         1.6430    0.0350   -2.9380 cd        1 UB1     -0.097300
     11 C16         0.1540    0.0290   -3.0350 c3        1 UB1      0.147300
     12 N3         -0.4350   -0.3980   -4.2950 n         1 UB1     -0.461400
     13 C2         -1.0240    0.5430   -5.1800 c         1 UB1      0.717700
     14 O14        -1.1780    1.7210   -4.8190 o         1 UB1     -0.599500
     15 C1         -1.4270    0.0480   -6.5120 cc        1 UB1     -0.263400
     16 C13        -1.9680    1.0440   -7.4570 c3        1 UB1     -0.025900
     17 C6         -1.2680   -1.2640   -6.8380 cd        1 UB1      0.041600
     18 C4         -0.3210   -1.7490   -4.6460 c         1 UB1      0.789500
     19 O15         0.1890   -2.6100   -3.8830 o         1 UB1     -0.691500
     20 N5         -0.7920   -2.1850   -5.9170 n         1 UB1     -0.382000
     21 C7         -0.5870   -3.5650   -6.2810 c3        1 UB1      0.100000
     22 C8          0.8190   -3.9080   -6.8020 c3        1 UB1     -0.087500
     23 N9          1.9200   -3.3690   -5.9610 n4        1 UB1     -0.825600
     24 C10         1.0190   -3.4330   -8.3110 c         1 UB1      0.929600
     25 O11        -0.0280   -3.2150   -8.9560 o         1 UB1     -0.779300
     26 O12         2.2160   -3.3490   -8.6780 o         1 UB1     -0.779300
     27 H161       -0.2370   -0.6520   -2.2130 h1        1 UB1      0.126200
     28 H162       -0.2190    1.0740   -2.8110 h1        1 UB1      0.126200
     29 H131       -2.1780    0.5840   -8.4530 hc        1 UB1      0.047033
     30 H132       -1.2350    1.8800   -7.5910 hc        1 UB1      0.047033
     31 H133       -2.9140    1.4810   -7.0500 hc        1 UB1      0.047033
     32 H6         -1.4850   -1.6730   -7.8490 h4        1 UB1      0.203000
     33 H71        -0.8160   -4.1990   -5.3760 h1        1 UB1      0.092200
     34 H72        -1.2980   -3.8290   -7.1190 h1        1 UB1      0.092200
     35 H8          0.9120   -5.0310   -6.8080 hx        1 UB1      0.083700
     36 HN91        1.9170   -2.3280   -5.9900 hn        1 UB1      0.456133
     37 HN92        1.8180   -3.6640   -4.9870 hn        1 UB1      0.456133
     38 H93         2.8050   -3.6850   -6.3700 hn        1 UB1      0.456133
@<TRIPOS>BOND
     1    1    2 1   
     2    2    3 1   
     3    2    4 1   
     4    4    5 1   
     5    4   10 2   
     6    5    6 1   
     7    6    7 1   
     8    6    8 2   
     9    8    9 1   
    10    8   10 1   
    11   10   11 1   
    12   11   12 1   
    13   11   27 1   
    14   11   28 1   
    15   12   13 1   
    16   12   18 1   
    17   13   14 2   
    18   13   15 1   
    19   15   16 1   
    20   15   17 2   
    21   16   29 1   
    22   16   30 1   
    23   16   31 1   
    24   17   20 1   
    25   17   32 1   
    26   18   19 2   
    27   18   20 1   
    28   20   21 1   
    29   21   22 1   
    30   21   33 1   
    31   21   34 1   
    32   22   23 1   
    33   22   24 1   
    34   22   35 1   
    35   23   36 1   
    36   23   37 1   
    37   23   38 1   
    38   24   25 1   
    39   24   26 1   
@<TRIPOS>SUBSTRUCTURE
     1 UB1         1 TEMP              0 ****  ****    0 ROOT
