@<TRIPOS>MOLECULE
UB1
   38    39     1     0     0
SMALL
bcc


@<TRIPOS>ATOM
      1 O23         0.2850    0.2800   -0.3060 o         1 UB1     -0.804300
      2 C22         1.5360    0.1520   -0.3220 c         1 UB1      0.936200
      3 O24         2.2770    0.0700    0.6960 o         1 UB1     -0.804300
      4 C21         2.2370    0.0910   -1.6700 cc        1 UB1     -0.154700
      5 S20         3.8870    0.0840   -1.7650 ss        1 UB1      0.225200
      6 C19         3.9240   -0.0140   -3.4160 cc        1 UB1     -0.171000
      7 Br26        5.4740   -0.0850   -4.3900 br        1 UB1     -0.052100
      8 C18         2.6330   -0.0330   -3.9510 cd        1 UB1     -0.056900
      9 Br25        2.3660   -0.1070   -5.7880 br        1 UB1     -0.084100
     10 C17         1.6380    0.0250   -2.9300 cd        1 UB1     -0.097300
     11 C16         0.1500    0.0310   -3.0370 c3        1 UB1      0.147300
     12 N3         -0.4340   -0.3900   -4.3020 n         1 UB1     -0.461400
     13 C2         -1.0090    0.5560   -5.1890 c         1 UB1      0.717700
     14 O14        -1.1570    1.7350   -4.8280 o         1 UB1     -0.599500
     15 C1         -1.4070    0.0650   -6.5240 cc        1 UB1     -0.263400
     16 C13        -1.9330    1.0660   -7.4730 c3        1 UB1     -0.025900
     17 C6         -1.2570   -1.2470   -6.8500 cd        1 UB1      0.041600
     18 C4         -0.3290   -1.7420   -4.6520 c         1 UB1      0.789500
     19 O15         0.1690   -2.6070   -3.8870 o         1 UB1     -0.691500
     20 N5         -0.7940   -2.1730   -5.9270 n         1 UB1     -0.382000
     21 C7         -0.5980   -3.5540   -6.2900 c3        1 UB1      0.100000
     22 C8          0.8080   -3.9080   -6.8020 c3        1 UB1     -0.087500
     23 N9          1.9080   -3.3790   -5.9540 nz        1 UB1     -0.825600
     24 C10         1.0230   -3.4340   -8.3090 c         1 UB1      0.929600
     25 O11        -0.0180   -3.2070   -8.9610 o         1 UB1     -0.779300
     26 O12         2.2220   -3.3600   -8.6680 o         1 UB1     -0.779300
     27 H161       -0.2530   -0.6470   -2.2180 h1        1 UB1      0.126200
     28 H162       -0.2160    1.0790   -2.8140 h1        1 UB1      0.126200
     29 H131       -2.8770    1.5120   -7.0700 hc        1 UB1      0.047033
     30 H132       -2.1430    0.6080   -8.4700 hc        1 UB1      0.047033
     31 H133       -1.1920    1.8950   -7.6030 hc        1 UB1      0.047033
     32 H6         -1.4700   -1.6540   -7.8630 h4        1 UB1      0.203000
     33 H71        -1.3060   -3.8120   -7.1340 h1        1 UB1      0.092200
     34 H72        -0.8380   -4.1870   -5.3870 h1        1 UB1      0.092200
     35 H8          0.8920   -5.0320   -6.8090 hx        1 UB1      0.083700
     36 HN91        1.7970   -3.6750   -4.9800 hn        1 UB1      0.456133
     37 HN92        1.9140   -2.3380   -5.9820 hn        1 UB1      0.456133
     38 H93         2.7930   -3.7030   -6.3560 hn        1 UB1      0.456133
@<TRIPOS>BOND
     1    1    2 1   
     2    2    3 1   
     3    2    4 1   
     4    4    5 1   
     5    4   10 2   
     6    5    6 1   
     7    6    7 1   
     8    6    8 2   
     9    8    9 1   
    10    8   10 1   
    11   10   11 1   
    12   11   12 1   
    13   11   27 1   
    14   11   28 1   
    15   12   13 1   
    16   12   18 1   
    17   13   14 2   
    18   13   15 1   
    19   15   16 1   
    20   15   17 2   
    21   16   29 1   
    22   16   30 1   
    23   16   31 1   
    24   17   20 1   
    25   17   32 1   
    26   18   19 2   
    27   18   20 1   
    28   20   21 1   
    29   21   22 1   
    30   21   33 1   
    31   21   34 1   
    32   22   23 1   
    33   22   24 1   
    34   22   35 1   
    35   23   36 1   
    36   23   37 1   
    37   23   38 1   
    38   24   25 1   
    39   24   26 1   
@<TRIPOS>SUBSTRUCTURE
     1 UB1         1 TEMP              0 ****  ****    0 ROOT
