@<TRIPOS>MOLECULE
UB2
   56    52     1     0     0
SMALL
bcc


@<TRIPOS>ATOM
      1 C3         -0.9980    5.7330    0.1440 c1        1 UB2     -0.123500
      2 C2         -2.0670    6.4580   -0.3500 c1        1 UB2     -0.123500
      3 C1         -2.1680    7.8170   -0.0840 c1        1 UB2     -0.123500
      4 H29        -1.2650    9.3990    0.8630 ha        1 UB2      0.135750
      5 H28         0.5310    8.1250    1.6790 ha        1 UB2      0.131000
      6 H5          1.7130    6.0980    1.9940 h4        1 UB2      0.102500
      7 H5A         0.7140    4.8610    2.1530 h4        1 UB2      0.102500
      8 C29        -1.1990    8.4410    0.6720 c1        1 UB2     -0.123500
      9 C28        -0.1270    7.7060    1.1660 c1        1 UB2     -0.124000
     10 C4         -0.0340    6.3530    0.8960 c1        1 UB2     -0.086000
     11 C5          1.1000    5.5140    1.5210 c2        1 UB2      0.038000
     12 O6          1.8200    4.7980    0.4630 os        1 UB2     -0.280000
     13 C7          2.4300    3.6130    0.8990 c2        1 UB2      0.375000
     14 O27         2.3590    3.2870    2.0850 o         1 UB2     -0.388000
     15 N8          3.0900    2.6880   -0.1000 n         1 UB2     -0.291000
     16 C9          3.6250    1.4470    0.3310 c3        1 UB2     -0.729000
     17 P10         2.9750    0.1000   -0.7220 p5        1 UB2      2.775000
     18 O12         3.9190   -0.1810   -1.7880 o         1 UB2     -1.138000
     19 O11         1.5690    0.5480   -1.3540 oh        1 UB2     -0.840000
     20 N13         2.7630   -1.2840    0.2070 n3        1 UB2     -0.927000
     21 C14         2.3750   -2.5380   -0.4260 c3        1 UB2     -0.005000
     22 C16         1.1670   -3.0950    0.2660 c2        1 UB2      0.267000
     23 O26         1.0580   -2.9960    1.4280 o         1 UB2     -0.409000
     24 C15         3.4880   -3.5090   -0.3250 c3        1 UB2     -0.227000
     25 N17         0.1900   -3.7890   -0.4740 n         1 UB2     -0.311000
     26 C18        -1.0010   -4.1640    0.1340 c3        1 UB2     -0.085000
     27 C22        -2.0320   -4.4870   -0.9270 c3        1 UB2     -0.132000
     28 C23        -3.4930   -4.3680   -0.2990 c3        1 UB2     -0.127000
     29 C25        -4.2960   -5.6600   -0.6090 c3        1 UB2     -0.198500
     30 C24        -4.2200   -3.1530   -0.9060 c3        1 UB2     -0.198500
     31 C19        -0.7550   -5.4190    1.0250 c2        1 UB2      0.328000
     32 O21        -1.0560   -5.3930    2.2470 o         1 UB2     -0.564000
     33 O20        -0.1220   -6.4340    0.5420 o         1 UB2     -0.564000
     34 H3         -0.9300    4.7970   -0.0410 ha        1 UB2      0.135750
     35 H2         -2.7280    6.0240   -0.8680 ha        1 UB2      0.135750
     36 H1         -2.8620    8.3490   -0.5230 ha        1 UB2      0.135750
     37 HN8         3.1870    2.9520   -0.9880 hn        1 UB2      0.239000
     38 H9          4.6380    1.4730    0.2600 h1        1 UB2      0.143500
     39 H9A         3.3720    1.2910    1.2400 h1        1 UB2      0.143500
     40 HO11        1.6800    0.7430   -2.2300 ho        1 UB2      0.274000
     41 HN13        2.9850   -1.2740    1.0690 hn        1 UB2      0.262000
     42 H14         2.1690   -2.3810   -1.3550 h1        1 UB2      0.123000
     43 H15         3.3540   -4.2070   -0.9650 hc        1 UB2      0.090667
     44 H15A        4.3670   -3.0400   -0.5120 hc        1 UB2      0.090667
     45 H15B        3.5110   -3.9030    0.6040 hc        1 UB2      0.090667
     46 HN17        0.3030   -3.9170   -1.3560 hn        1 UB2      0.239000
     47 H18        -1.3270   -3.4280    0.6870 h1        1 UB2      0.110000
     48 H22        -1.9450   -3.8610   -1.6590 hc        1 UB2      0.069000
     49 H22A       -1.8910   -5.3950   -1.2600 hc        1 UB2      0.069000
     50 H23        -3.4240   -4.2500    0.7000 hc        1 UB2      0.151000
     51 H25        -3.8120   -6.4360   -0.2540 hc        1 UB2      0.060333
     52 H25A       -5.1720   -5.6050   -0.1920 hc        1 UB2      0.060333
     53 H25B       -4.4040   -5.7580   -1.6140 hc        1 UB2      0.060333
     54 H24        -5.0400   -2.9760   -0.3960 hc        1 UB2      0.060333
     55 H24A       -3.6370   -2.3720   -0.8660 hc        1 UB2      0.060333
     56 H24B       -4.4460   -3.3420   -1.8320 hc        1 UB2      0.060333
@<TRIPOS>BOND
     1    1    2 1   
     2    1   34 1   
     3    2   35 1   
     4    3    8 1   
     5    3   36 1   
     6    4    8 1   
     7    5    9 1   
     8    6   11 1   
     9    7   11 1   
    10    9   10 1   
    11   11   12 1   
    12   12   13 1   
    13   13   14 1   
    14   13   15 1   
    15   15   16 1   
    16   15   37 1   
    17   16   17 1   
    18   16   38 1   
    19   16   39 1   
    20   17   18 1   
    21   17   19 1   
    22   17   20 1   
    23   19   40 1   
    24   20   21 1   
    25   20   41 1   
    26   21   22 1   
    27   21   24 1   
    28   21   42 1   
    29   22   23 1   
    30   22   25 1   
    31   24   43 1   
    32   24   44 1   
    33   24   45 1   
    34   25   26 1   
    35   25   46 1   
    36   26   27 1   
    37   26   31 1   
    38   26   47 1   
    39   27   28 1   
    40   27   48 1   
    41   27   49 1   
    42   28   29 1   
    43   28   30 1   
    44   28   50 1   
    45   29   51 1   
    46   29   52 1   
    47   29   53 1   
    48   30   54 1   
    49   30   55 1   
    50   30   56 1   
    51   31   32 1   
    52   31   33 1   
@<TRIPOS>SUBSTRUCTURE
     1 UB2         1 TEMP              0 ****  ****    0 ROOT
