@<TRIPOS>MOLECULE
UB2
   56    56     1     0     0
SMALL
bcc


@<TRIPOS>ATOM
      1 C3         -8.2510    1.3580    0.7650 ca        1 UB2     -0.113500
      2 C2         -9.4150    1.1670    0.0240 ca        1 UB2     -0.133000
      3 C1         -9.3650    0.4950   -1.1980 ca        1 UB2     -0.132000
      4 H29        -8.1050   -0.5180   -2.6390 ha        1 UB2      0.129500
      5 H28        -6.0150   -0.1730   -1.3160 ha        1 UB2      0.142500
      6 H5         -5.3790    2.1590    0.8660 h1        1 UB2      0.064200
      7 H5A        -5.9980    1.0560    2.1880 h1        1 UB2      0.064200
      8 C29        -8.1470    0.0150   -1.6780 ca        1 UB2     -0.133000
      9 C28        -6.9780    0.2090   -0.9420 ca        1 UB2     -0.113500
     10 C4         -7.0250    0.8820    0.2820 ca        1 UB2     -0.089300
     11 C5         -5.7960    1.1390    1.0870 c3        1 UB2      0.194700
     12 O6         -4.8130    0.1520    0.7260 os        1 UB2     -0.444900
     13 C7         -3.5970    0.2850    1.3750 c         1 UB2      0.723100
     14 O27        -3.4940    1.1430    2.2650 o         1 UB2     -0.577000
     15 N8         -2.6180   -0.5490    0.8530 n         1 UB2     -0.486900
     16 C9         -1.4720   -0.8440    1.6650 c3        1 UB2     -0.210200
     17 P10        -0.3530   -1.7000    0.7270 p5        1 UB2      1.575200
     18 O12        -1.0060   -2.7130   -0.1110 o         1 UB2     -0.861300
     19 O11         0.5060   -2.4210    1.8870 oh        1 UB2     -0.806400
     20 N13         0.5820   -0.6550    0.0080 n3        1 UB2     -1.003300
     21 C14         1.5600   -1.1240   -0.9340 c3        1 UB2      0.146500
     22 C16         2.9770   -1.1550   -0.2740 c         1 UB2      0.617100
     23 O26         3.2230   -2.1420    0.4650 o         1 UB2     -0.683100
     24 C15         1.5560   -0.3710   -2.2610 c3        1 UB2     -0.108100
     25 N17         3.8560   -0.1580   -0.5480 n         1 UB2     -0.485900
     26 C18         5.0520    0.0920    0.2370 c3        1 UB2     -0.061300
     27 C22         6.3490   -0.2220   -0.5100 c3        1 UB2     -0.066400
     28 C23         6.5360   -1.6850   -0.8770 c3        1 UB2     -0.066700
     29 C25         7.8070   -1.8500   -1.6870 c3        1 UB2     -0.089600
     30 C24         6.5770   -2.5710    0.3500 c3        1 UB2     -0.089600
     31 C19         5.1260    1.6050    0.6840 c         1 UB2      0.911600
     32 O21         4.3330    2.4260    0.1430 o         1 UB2     -0.826300
     33 O20         5.9810    1.8810    1.5620 o         1 UB2     -0.826300
     34 H3         -8.2920    1.8840    1.7300 ha        1 UB2      0.142500
     35 H2        -10.3740    1.5460    0.4050 ha        1 UB2      0.129500
     36 H1        -10.2850    0.3440   -1.7800 ha        1 UB2      0.126000
     37 HN8        -2.9440   -1.3260    0.3060 hn        1 UB2      0.336500
     38 H9         -1.0780    0.1240    2.0900 h1        1 UB2      0.105700
     39 H9A        -1.7440   -1.4550    2.5760 h1        1 UB2      0.105700
     40 HO11        1.4220   -2.6470    1.7110 ho        1 UB2      0.500000
     41 HN13        0.6160    0.3180    0.1790 hn        1 UB2      0.454800
     42 H14         1.3110   -2.2110   -1.1570 h1        1 UB2      0.080700
     43 H15         2.4040   -0.7310   -2.8910 hc        1 UB2      0.049033
     44 H15A        0.6000   -0.5640   -2.8050 hc        1 UB2      0.049033
     45 H15B        1.6560    0.7310   -2.1140 hc        1 UB2      0.049033
     46 HN17        3.5070    0.6710   -0.9930 hn        1 UB2      0.329500
     47 H18         5.0110   -0.5370    1.1730 h1        1 UB2      0.069700
     48 H22         6.4010    0.3970   -1.4440 hc        1 UB2      0.051200
     49 H22A        7.1860    0.1100    0.1630 hc        1 UB2      0.051200
     50 H23         5.6680   -2.0120   -1.5160 hc        1 UB2      0.041700
     51 H25         8.6960   -1.5430   -1.0850 hc        1 UB2      0.027867
     52 H25A        7.9400   -2.9150   -1.9950 hc        1 UB2      0.027867
     53 H25B        7.7690   -1.2170   -2.6070 hc        1 UB2      0.027867
     54 H24         7.3130   -2.1820    1.0930 hc        1 UB2      0.027867
     55 H24A        5.5660   -2.6060    0.8290 hc        1 UB2      0.027867
     56 H24B        6.8710   -3.6120    0.0690 hc        1 UB2      0.027867
@<TRIPOS>BOND
     1    1    2 ar  
     2    1   10 ar  
     3    1   34 1   
     4    2    3 ar  
     5    2   35 1   
     6    3    8 ar  
     7    3   36 1   
     8    4    8 1   
     9    5    9 1   
    10    6   11 1   
    11    7   11 1   
    12    8    9 ar  
    13    9   10 ar  
    14   10   11 1   
    15   11   12 1   
    16   12   13 1   
    17   13   14 2   
    18   13   15 1   
    19   15   16 1   
    20   15   37 1   
    21   16   17 1   
    22   16   38 1   
    23   16   39 1   
    24   17   18 2   
    25   17   19 1   
    26   17   20 1   
    27   19   40 1   
    28   20   21 1   
    29   20   41 1   
    30   21   22 1   
    31   21   24 1   
    32   21   42 1   
    33   22   23 2   
    34   22   25 1   
    35   24   43 1   
    36   24   44 1   
    37   24   45 1   
    38   25   26 1   
    39   25   46 1   
    40   26   27 1   
    41   26   31 1   
    42   26   47 1   
    43   27   28 1   
    44   27   48 1   
    45   27   49 1   
    46   28   29 1   
    47   28   30 1   
    48   28   50 1   
    49   29   51 1   
    50   29   52 1   
    51   29   53 1   
    52   30   54 1   
    53   30   55 1   
    54   30   56 1   
    55   31   32 1   
    56   31   33 1   
@<TRIPOS>SUBSTRUCTURE
     1 UB2         1 TEMP              0 ****  ****    0 ROOT
