@<TRIPOS>MOLECULE
UB3
   65    62     1     0     0
SMALL
bcc


@<TRIPOS>ATOM
      1 C7       -193.5610  219.6780  235.6910 c         1 UB3      0.621100
      2 O29      -193.7220  220.5800  234.8820 o         1 UB3     -0.427000
      3 O6       -193.9700  218.4040  235.5760 os        1 UB3     -0.406900
      4 C5       -194.5380  217.9980  234.2810 c3        1 UB3      0.212700
      5 C4       -193.4610  217.6690  233.3180 ca        1 UB3     -0.185300
      6 C30      -193.0610  218.6120  232.3620 ca        1 UB3     -0.094000
      7 C31      -192.0860  218.2810  231.4230 ca        1 UB3     -0.131000
      8 C1       -191.5060  217.0110  231.4340 ca        1 UB3     -0.086000
      9 C2       -191.9010  216.0710  232.3870 ca        1 UB3     -0.131000
     10 C3       -192.8770  216.3960  233.3270 ca        1 UB3     -0.094000
     11 N8       -192.8850  219.8710  237.0180 n4        1 UB3     -0.610800
     12 C9       -192.2440  221.1850  237.1750 c3        1 UB3     -0.178400
     13 P10      -192.9240  222.0690  238.5080 p5        1 UB3      1.571200
     14 O12      -193.8770  221.1490  239.1440 o         1 UB3     -0.851300
     15 O11      -193.7110  223.2150  237.7190 oh        1 UB3     -0.793400
     16 N13      -191.7610  222.6890  239.3250 n3        1 UB3     -1.117900
     17 C14       168.2750 -193.1890 -204.4590 c2        1 UB3     -0.363300
     18 C18       168.6480 -193.1210 -205.7100 c1        1 UB3      0.549600
     19 O28       169.0000 -193.0860 -206.8600 o         1 UB3     -0.522500
     20 C15       167.5250 -192.1150 -203.7480 c3        1 UB3      0.008500
     21 C16       166.9500 -191.0840 -204.6980 c3        1 UB3     -0.099100
     22 C17       166.4270 -192.7260 -202.8980 c3        1 UB3     -0.099100
     23 N19       170.6620 -192.4520 -209.2670 nh        1 UB3     -0.326100
     24 C20       169.9400 -192.9800 -210.2160 c2        1 UB3      0.427200
     25 C21       173.0130 -191.0340 -212.3260 c1        1 UB3      0.917000
     26 O22       172.2220 -191.5220 -211.5680 o         1 UB3     -0.457500
     27 C24       168.7440 -193.8360 -209.9990 c3        1 UB3     -0.208700
     28 C25       167.7230 -193.6480 -211.1180 c3        1 UB3     -0.062700
     29 C26       166.6120 -194.6660 -210.9560 c3        1 UB3     -0.103100
     30 C27       167.1660 -192.2410 -211.1080 c3        1 UB3     -0.103100
     31 O23       173.7900 -190.5540 -213.0750 o         1 UB3     -0.457500
     32 H5       -195.1260  217.0930  234.6020 h1        1 UB3      0.102200
     33 H5A      -195.2110  218.8160  233.9150 h1        1 UB3      0.102200
     34 H30      -193.5230  219.6120  232.3520 ha        1 UB3      0.143000
     35 H31      -191.7800  219.0200  230.6670 ha        1 UB3      0.152500
     36 H1       -190.7410  216.7490  230.6860 ha        1 UB3      0.153000
     37 H2       -191.4480  215.0670  232.3910 ha        1 UB3      0.152500
     38 H3       -193.1960  215.6490  234.0700 ha        1 UB3      0.143000
     39 HN8      -193.6140  219.7510  237.7730 hn        1 UB3      0.495300
     40 H9       -192.3880  221.7960  236.2270 hx        1 UB3      0.157200
     41 H9A      -191.1320  221.0400  237.2600 hx        1 UB3      0.157200
     42 HO11     -194.6260  223.3810  237.9490 ho        1 UB3      0.512000
     43 HN13     -191.2580  223.5030  239.0650 hn        1 UB3      0.468800
     44 H14       168.5310 -194.0850 -203.8690 ha        1 UB3      0.197000
     45 H15       168.2600 -191.5980 -203.0620 hc        1 UB3      0.067700
     46 H16       167.7560 -190.6360 -205.3280 hc        1 UB3      0.044700
     47 H16A      166.1850 -191.5460 -205.3690 hc        1 UB3      0.044700
     48 H16B      166.4580 -190.2660 -204.1190 hc        1 UB3      0.044700
     49 H17       165.8960 -191.9220 -202.3330 hc        1 UB3      0.044700
     50 H17A      166.8560 -193.4530 -202.1670 hc        1 UB3      0.044700
     51 H17B      165.6840 -193.2610 -203.5370 hc        1 UB3      0.044700
     52 HN19      170.4400 -192.5720 -208.2900 hn        1 UB3      0.338700
     53 H20       170.2480 -192.7860 -211.2760 h4        1 UB3      0.076800
     54 H24       168.2580 -193.6420 -209.0000 hc        1 UB3      0.120200
     55 H24A      169.0960 -194.9100 -209.9920 hc        1 UB3      0.120200
     56 H25       168.2330 -193.8320 -212.1060 hc        1 UB3      0.060700
     57 H26       165.8650 -194.5420 -211.7770 hc        1 UB3      0.052200
     58 H26A      167.0190 -195.7040 -211.0000 hc        1 UB3      0.052200
     59 H26B      166.0880 -194.5270 -209.9790 hc        1 UB3      0.052200
     60 H27       166.6290 -192.0320 -210.1510 hc        1 UB3      0.052200
     61 H27A      167.9850 -191.4910 -211.2310 hc        1 UB3      0.052200
     62 H27B      166.4410 -192.1130 -211.9500 hc        1 UB3      0.052200
     63 H82      -192.1980  219.1100  237.1170 hn        1 UB3      0.495300
     64 H132     -191.5130  222.3850  240.2360 hn        1 UB3      0.468800
     65 H192      171.4730 -191.8950 -209.4820 hn        1 UB3      0.338700
@<TRIPOS>BOND
     1    1    2 2   
     2    1    3 1   
     3    1   11 1   
     4    3    4 1   
     5    4    5 1   
     6    4   32 1   
     7    4   33 1   
     8    5    6 ar  
     9    5   10 ar  
    10    6    7 ar  
    11    6   34 1   
    12    7    8 ar  
    13    7   35 1   
    14    8    9 ar  
    15    8   36 1   
    16    9   10 ar  
    17    9   37 1   
    18   10   38 1   
    19   11   12 1   
    20   11   39 1   
    21   11   63 1   
    22   12   13 1   
    23   12   40 1   
    24   12   41 1   
    25   13   14 2   
    26   13   15 1   
    27   13   16 1   
    28   15   42 1   
    29   16   43 1   
    30   16   64 1   
    31   17   18 2   
    32   17   20 1   
    33   17   44 1   
    34   18   19 2   
    35   20   21 1   
    36   20   22 1   
    37   20   45 1   
    38   21   46 1   
    39   21   47 1   
    40   21   48 1   
    41   22   49 1   
    42   22   50 1   
    43   22   51 1   
    44   23   24 2   
    45   23   52 1   
    46   23   65 1   
    47   24   27 1   
    48   24   53 1   
    49   25   26 2   
    50   25   31 2   
    51   27   28 1   
    52   27   54 1   
    53   27   55 1   
    54   28   29 1   
    55   28   30 1   
    56   28   56 1   
    57   29   57 1   
    58   29   58 1   
    59   29   59 1   
    60   30   60 1   
    61   30   61 1   
    62   30   62 1   
@<TRIPOS>SUBSTRUCTURE
     1 UB3         1 TEMP              0 ****  ****    0 ROOT
