@<TRIPOS>MOLECULE
UB3
   64    64     1     0     0
SMALL
bcc


@<TRIPOS>ATOM
      1 C7          0.9890   -0.5510   -0.2100 c         1 UB3      0.621100
      2 O29         1.6810   -1.4460    0.2520 o         1 UB3     -0.430000
      3 O6          0.7680    0.6560    0.3390 os        1 UB3     -0.412900
      4 C5          1.1800    0.8370    1.7380 c3        1 UB3      0.212700
      5 C4          0.1700    0.2690    2.6610 ca        1 UB3     -0.184300
      6 C30        -0.9510    1.0260    3.0250 ca        1 UB3     -0.093500
      7 C31        -0.5740   -1.5210    4.1100 ca        1 UB3     -0.129500
      8 C1         -1.6900   -0.7640    4.4720 ca        1 UB3     -0.086000
      9 C2         -1.8780    0.5080    3.9280 ca        1 UB3     -0.129500
     10 C3          0.3550   -1.0080    3.2070 ca        1 UB3     -0.093500
     11 N8          0.2820   -0.6480   -1.5290 ny        1 UB3     -0.604800
     12 C9          0.8360   -1.6730   -2.4210 c3        1 UB3     -0.177400
     13 P10        -0.3680   -2.8360   -2.9220 p5        1 UB3      1.195500
     14 O12        -1.6240   -2.3490   -2.3160 o         1 UB3     -0.730500
     15 O11         0.2440   -4.1640   -2.9580 o         1 UB3     -0.730500
     16 N13        -0.6270   -2.3720   -4.6460 ny        1 UB3     -0.744100
     17 C14         0.1170   -3.2510   -5.5870 c3        1 UB3      0.048500
     18 C18         1.5200   -2.6880   -5.8260 c         1 UB3      0.678100
     19 O28         1.8870   -1.5410   -5.5530 o         1 UB3     -0.554000
     20 C15        -0.6350   -3.4600   -6.9200 c3        1 UB3     -0.069700
     21 C16        -0.6740   -2.1910   -7.7420 c3        1 UB3     -0.110600
     22 C17        -0.0040   -4.5950   -7.6990 c3        1 UB3     -0.110600
     23 N19         3.2280   -3.6970   -3.7150 n8        1 UB3     -0.938800
     24 C20         4.2790   -3.7550   -4.7130 c3        1 UB3      0.109500
     25 C21         3.7740   -3.4340   -6.1090 c         1 UB3      0.663100
     26 O22         4.3960   -3.1660   -7.1190 o         1 UB3     -0.403000
     27 C24         5.0430   -5.0870   -4.8220 c3        1 UB3     -0.113400
     28 C25         5.7340   -5.4830   -3.5260 c3        1 UB3     -0.066700
     29 C26         6.4220   -6.8210   -3.7190 c3        1 UB3     -0.096600
     30 C27         6.7360   -4.4410   -3.0760 c3        1 UB3     -0.096600
     31 O23         2.3790   -3.5880   -6.3500 os        1 UB3     -0.468200
     32 H5          1.2290    1.9610    1.7860 h1        1 UB3      0.098700
     33 H5A         2.1940    0.3770    1.8720 h1        1 UB3      0.098700
     34 H30        -1.0970    2.0320    2.6040 ha        1 UB3      0.141500
     35 H31        -0.4230   -2.5220    4.5420 ha        1 UB3      0.151000
     36 H1         -2.4210   -1.1700    5.1890 ha        1 UB3      0.152000
     37 H2         -2.7560    1.1060    4.2170 ha        1 UB3      0.151000
     38 H3          1.2370   -1.6030    2.9220 ha        1 UB3      0.141500
     39 HN8        -0.7260   -0.8850   -1.3300 hn        1 UB3      0.489300
     40 H9          1.6360   -2.2700   -1.8790 hx        1 UB3      0.162200
     41 H9A         1.3960   -1.1850   -3.2700 hx        1 UB3      0.162200
     42 HN13       -0.3680   -1.4040   -4.8380 hn        1 UB3      0.450800
     43 H14         0.2400   -4.2660   -5.0770 hx        1 UB3      0.177700
     44 H15        -1.6940   -3.7670   -6.6720 hc        1 UB3      0.066700
     45 H16        -1.1760   -2.3910   -8.7210 hc        1 UB3      0.059367
     46 H16A       -1.2440   -1.3870   -7.2180 hc        1 UB3      0.059367
     47 H16B        0.3600   -1.8210   -7.9510 hc        1 UB3      0.059367
     48 H17         1.0300   -4.3300   -8.0290 hc        1 UB3      0.059367
     49 H17A       -0.6200   -4.8090   -8.6070 hc        1 UB3      0.059367
     50 H17B        0.0460   -5.5210   -7.0770 hc        1 UB3      0.059367
     51 HN19        3.6400   -3.6920   -2.8010 hn        1 UB3      0.378300
     52 H20         5.0260   -2.9340   -4.4710 h1        1 UB3      0.106700
     53 H24         4.3330   -5.9020   -5.1220 hc        1 UB3      0.069700
     54 H24A        5.8090   -4.9840   -5.6360 hc        1 UB3      0.069700
     55 H25         4.9570   -5.6060   -2.7190 hc        1 UB3      0.041700
     56 H26         5.6860   -7.5970   -4.0400 hc        1 UB3      0.042700
     57 H26A        7.2200   -6.7440   -4.4970 hc        1 UB3      0.042700
     58 H26B        6.8920   -7.1520   -2.7620 hc        1 UB3      0.042700
     59 H27         7.3280   -4.8270   -2.2110 hc        1 UB3      0.042700
     60 H27A        6.2190   -3.5050   -2.7540 hc        1 UB3      0.042700
     61 H27B        7.4440   -4.1910   -3.9030 hc        1 UB3      0.042700
     62 H82         0.3160    0.2840   -1.9620 hn        1 UB3      0.489300
     63 H132       -1.6270   -2.4480   -4.8510 hn        1 UB3      0.450800
     64 H192        2.6140   -4.4890   -3.7890 hn        1 UB3      0.378300
@<TRIPOS>BOND
     1    1    2 2   
     2    1    3 1   
     3    1   11 1   
     4    3    4 1   
     5    4    5 1   
     6    4   32 1   
     7    4   33 1   
     8    5    6 ar  
     9    5   10 ar  
    10    6    9 ar  
    11    6   34 1   
    12    7    8 ar  
    13    7   10 ar  
    14    7   35 1   
    15    8    9 ar  
    16    8   36 1   
    17    9   37 1   
    18   10   38 1   
    19   11   12 1   
    20   11   39 1   
    21   11   62 1   
    22   12   13 1   
    23   12   40 1   
    24   12   41 1   
    25   13   14 1   
    26   13   15 1   
    27   13   16 1   
    28   16   17 1   
    29   16   42 1   
    30   16   63 1   
    31   17   18 1   
    32   17   20 1   
    33   17   43 1   
    34   18   19 2   
    35   18   31 1   
    36   20   21 1   
    37   20   22 1   
    38   20   44 1   
    39   21   45 1   
    40   21   46 1   
    41   21   47 1   
    42   22   48 1   
    43   22   49 1   
    44   22   50 1   
    45   23   24 1   
    46   23   51 1   
    47   23   64 1   
    48   24   25 1   
    49   24   27 1   
    50   24   52 1   
    51   25   26 2   
    52   25   31 1   
    53   27   28 1   
    54   27   53 1   
    55   27   54 1   
    56   28   29 1   
    57   28   30 1   
    58   28   55 1   
    59   29   56 1   
    60   29   57 1   
    61   29   58 1   
    62   30   59 1   
    63   30   60 1   
    64   30   61 1   
@<TRIPOS>SUBSTRUCTURE
     1 UB3         1 TEMP              0 ****  ****    0 ROOT
