@<TRIPOS>MOLECULE
UB3
   62    62     1     0     0
SMALL
bcc


@<TRIPOS>ATOM
      1 C7          3.9980   -0.4300    1.3180 c         1 UB3      0.731100
      2 O29         4.1660   -1.0100    2.4040 o         1 UB3     -0.588000
      3 O6          5.1020   -0.1970    0.5160 os        1 UB3     -0.442900
      4 C5          6.3600   -0.5670    1.1090 c3        1 UB3      0.195700
      5 C4          7.4440   -0.2300    0.1410 ca        1 UB3     -0.090300
      6 C30         8.6780   -0.8810    0.2700 ca        1 UB3     -0.114000
      7 C31         9.7250   -0.5700   -0.5940 ca        1 UB3     -0.133000
      8 C1          9.5480    0.3870   -1.5940 ca        1 UB3     -0.131000
      9 C2          8.3190    1.0320   -1.7280 ca        1 UB3     -0.133000
     10 C3          7.2690    0.7280   -0.8620 ca        1 UB3     -0.114000
     11 N8          2.8350    0.1010    0.7920 n         1 UB3     -0.493900
     12 C9          1.5750   -0.3520    1.3030 c3        1 UB3     -0.196200
     13 P10         0.3350    0.5840    0.6200 p5        1 UB3      1.565200
     14 O12         0.6480    1.0300   -0.7450 o         1 UB3     -0.871300
     15 O11         0.3700    1.9140    1.5420 oh        1 UB3     -0.791400
     16 N13        -0.9990   -0.1840    0.8920 n3        1 UB3     -1.003300
     17 C14        -1.8990   -0.5160   -0.1810 c3        1 UB3      0.144500
     18 C18        -3.3250    0.0520    0.0960 c         1 UB3      0.629100
     19 O28        -3.7090    0.1990    1.2800 o         1 UB3     -0.651100
     20 C15        -2.0140   -2.0410   -0.4370 c3        1 UB3     -0.063700
     21 C16        -2.8050   -2.7400    0.6450 c3        1 UB3     -0.108100
     22 C17        -2.6100   -2.3140   -1.8020 c3        1 UB3     -0.108100
     23 N19        -4.0510    0.4520   -0.9960 n         1 UB3     -0.487900
     24 C20        -5.4980    0.5980   -0.9270 c3        1 UB3     -0.066300
     25 C21        -6.2360   -0.4300   -1.8660 c         1 UB3      0.907600
     26 O22        -5.5370   -1.1460   -2.6400 o         1 UB3     -0.829800
     27 C24        -5.9740    1.9990   -1.3150 c3        1 UB3     -0.061400
     28 C25        -5.4740    3.1140   -0.4110 c3        1 UB3     -0.065700
     29 C26        -6.0040    4.4460   -0.9060 c3        1 UB3     -0.090100
     30 C27        -5.8740    2.8930    1.0320 c3        1 UB3     -0.090100
     31 O23        -7.4890   -0.4740   -1.7710 o         1 UB3     -0.829800
     32 H5          6.3380   -1.6670    1.3360 h1        1 UB3      0.062700
     33 H5A         6.4880    0.0040    2.0680 h1        1 UB3      0.062700
     34 H30         8.8170   -1.6400    1.0540 ha        1 UB3      0.142000
     35 H31        10.6920   -1.0820   -0.4880 ha        1 UB3      0.129500
     36 H1         10.3750    0.6280   -2.2770 ha        1 UB3      0.127000
     37 H2          8.1740    1.7830   -2.5180 ha        1 UB3      0.129500
     38 H3          6.2960    1.2330   -0.9680 ha        1 UB3      0.142000
     39 HN8         2.8400    0.3600   -0.1770 hn        1 UB3      0.344500
     40 H9          1.4330   -1.4550    1.1140 h1        1 UB3      0.097200
     41 H9A         1.6010   -0.2530    2.4270 h1        1 UB3      0.097200
     42 HO11        0.4270    2.7350    1.0600 ho        1 UB3      0.476000
     43 HN13       -1.4120   -0.3170    1.7870 hn        1 UB3      0.463800
     44 H14        -1.4780   -0.0400   -1.1220 h1        1 UB3      0.087700
     45 H15        -0.9690   -2.4690   -0.4350 hc        1 UB3      0.024700
     46 H16        -3.8510   -2.3450    0.6870 hc        1 UB3      0.049200
     47 H16A       -2.8490   -3.8360    0.4360 hc        1 UB3      0.049200
     48 H16B       -2.3320   -2.5850    1.6450 hc        1 UB3      0.049200
     49 H17        -2.1200   -1.6840   -2.5830 hc        1 UB3      0.049200
     50 H17A       -2.4500   -3.3880   -2.0670 hc        1 UB3      0.049200
     51 H17B       -3.7160   -2.1180   -1.8300 hc        1 UB3      0.049200
     52 HN19       -3.7520    0.0910   -1.8850 hn        1 UB3      0.318500
     53 H20        -5.8380    0.3800    0.1270 h1        1 UB3      0.072700
     54 H24        -5.6650    2.2210   -2.3700 hc        1 UB3      0.051200
     55 H24A       -7.0970    1.9650   -1.2920 hc        1 UB3      0.051200
     56 H25        -4.3490    3.1450   -0.4640 hc        1 UB3      0.041700
     57 H26        -7.1200    4.4640   -0.8580 hc        1 UB3      0.027200
     58 H26A       -5.6100    5.2810   -0.2780 hc        1 UB3      0.027200
     59 H26B       -5.6940    4.6210   -1.9640 hc        1 UB3      0.027200
     60 H27        -5.3290    2.0100    1.4500 hc        1 UB3      0.027200
     61 H27A       -5.6210    3.7900    1.6480 hc        1 UB3      0.027200
     62 H27B       -6.9710    2.7060    1.1110 hc        1 UB3      0.027200
@<TRIPOS>BOND
     1    1    2 2   
     2    1    3 1   
     3    1   11 1   
     4    3    4 1   
     5    4    5 1   
     6    4   32 1   
     7    4   33 1   
     8    5    6 ar  
     9    5   10 ar  
    10    6    7 ar  
    11    6   34 1   
    12    7    8 ar  
    13    7   35 1   
    14    8    9 ar  
    15    8   36 1   
    16    9   10 ar  
    17    9   37 1   
    18   10   38 1   
    19   11   12 1   
    20   11   39 1   
    21   12   13 1   
    22   12   40 1   
    23   12   41 1   
    24   13   14 2   
    25   13   15 1   
    26   13   16 1   
    27   15   42 1   
    28   16   17 1   
    29   16   43 1   
    30   17   18 1   
    31   17   20 1   
    32   17   44 1   
    33   18   19 2   
    34   18   23 1   
    35   20   21 1   
    36   20   22 1   
    37   20   45 1   
    38   21   46 1   
    39   21   47 1   
    40   21   48 1   
    41   22   49 1   
    42   22   50 1   
    43   22   51 1   
    44   23   24 1   
    45   23   52 1   
    46   24   25 1   
    47   24   27 1   
    48   24   53 1   
    49   25   26 1   
    50   25   31 1   
    51   27   28 1   
    52   27   54 1   
    53   27   55 1   
    54   28   29 1   
    55   28   30 1   
    56   28   56 1   
    57   29   57 1   
    58   29   58 1   
    59   29   59 1   
    60   30   60 1   
    61   30   61 1   
    62   30   62 1   
@<TRIPOS>SUBSTRUCTURE
     1 UB3         1 TEMP              0 ****  ****    0 ROOT
