@<TRIPOS>MOLECULE
UB3
   64    64     1     0     0
SMALL
bcc


@<TRIPOS>ATOM
      1 C7          0.9310   -0.5500   -0.2350 c         1 UB3      0.621100
      2 O29         1.6120   -1.4490    0.2370 o         1 UB3     -0.430000
      3 O6          0.7040    0.6560    0.3150 os        1 UB3     -0.412900
      4 C5          1.0910    0.8300    1.7220 c3        1 UB3      0.212700
      5 C4          0.0630    0.2620    2.6250 ca        1 UB3     -0.184300
      6 C30         0.2370   -1.0180    3.1700 ca        1 UB3     -0.093500
      7 C31        -2.0060    0.4990    3.8560 ca        1 UB3     -0.129500
      8 C1         -1.8290   -0.7750    4.3990 ca        1 UB3     -0.086000
      9 C2         -0.7080   -1.5320    4.0540 ca        1 UB3     -0.129500
     10 C3         -1.0630    1.0180    2.9720 ca        1 UB3     -0.093500
     11 N8          0.2470   -0.6410   -1.5660 n4        1 UB3     -0.604800
     12 C9          0.8120   -1.6660   -2.4510 c3        1 UB3     -0.177400
     13 P10        -0.3870   -2.8230   -2.9750 p5        1 UB3      1.195500
     14 O12         0.2200   -4.1530   -3.0030 o         1 UB3     -0.730500
     15 O11        -1.6510   -2.3320   -2.3900 o         1 UB3     -0.730500
     16 N13        -0.6130   -2.3530   -4.7030 n4        1 UB3     -0.744100
     17 C14         0.1430   -3.2340   -5.6320 c3        1 UB3      0.048500
     18 C18         1.5530   -2.6760   -5.8450 c         1 UB3      0.678100
     19 O28         1.9190   -1.5320   -5.5640 o         1 UB3     -0.554000
     20 C15        -0.5860   -3.4380   -6.9790 c3        1 UB3     -0.069700
     21 C16         0.0530   -4.5740   -7.7490 c3        1 UB3     -0.110600
     22 C17        -0.6050   -2.1670   -7.7990 c3        1 UB3     -0.110600
     23 N19         3.2190   -3.6960   -3.7070 n3        1 UB3     -0.938800
     24 C20         4.2870   -3.7570   -4.6860 c3        1 UB3      0.109500
     25 C21         3.8080   -3.4310   -6.0910 c         1 UB3      0.663100
     26 O22         2.4170   -3.5790   -6.3560 os        1 UB3     -0.468200
     27 C24         5.0480   -5.0910   -4.7840 c3        1 UB3     -0.113400
     28 C25         5.7150   -5.4920   -3.4770 c3        1 UB3     -0.066700
     29 C26         6.4010   -6.8330   -3.6600 c3        1 UB3     -0.096600
     30 C27         6.7120   -4.4550   -3.0080 c3        1 UB3     -0.096600
     31 O23         4.4490   -3.1640   -7.0880 o         1 UB3     -0.403000
     32 H5          2.1010    0.3680    1.8720 h1        1 UB3      0.098700
     33 H5A         1.1410    1.9540    1.7750 h1        1 UB3      0.098700
     34 H30         1.1230   -1.6140    2.8980 ha        1 UB3      0.141500
     35 H31        -2.8880    1.0980    4.1310 ha        1 UB3      0.151000
     36 H1         -2.5730   -1.1810    5.1020 ha        1 UB3      0.152000
     37 H2         -0.5670   -2.5350    4.4860 ha        1 UB3      0.151000
     38 H3         -1.1990    2.0270    2.5510 ha        1 UB3      0.141500
     39 HN8         0.2920    0.2930   -1.9950 hn        1 UB3      0.489300
     40 H9          1.6010   -2.2670   -1.8960 hx        1 UB3      0.162200
     41 H9A         1.3890   -1.1780   -3.2880 hx        1 UB3      0.162200
     42 HN13       -0.3470   -1.3860   -4.8880 hn        1 UB3      0.450800
     43 H14         0.2530   -4.2500   -5.1220 hx        1 UB3      0.177700
     44 H15        -1.6510   -3.7410   -6.7500 hc        1 UB3      0.066700
     45 H16         0.0890   -5.5020   -7.1280 hc        1 UB3      0.059367
     46 H16A        1.0950   -4.3130   -8.0590 hc        1 UB3      0.059367
     47 H16B       -0.5470   -4.7830   -8.6680 hc        1 UB3      0.059367
     48 H17        -1.0910   -2.3630   -8.7870 hc        1 UB3      0.059367
     49 H17A        0.4340   -1.8020   -7.9900 hc        1 UB3      0.059367
     50 H17B       -1.1810   -1.3610   -7.2840 hc        1 UB3      0.059367
     51 HN19        3.6150   -3.6950   -2.7860 hn        1 UB3      0.378300
     52 H20         5.0330   -2.9390   -4.4300 h1        1 UB3      0.106700
     53 H24         5.8290   -4.9900   -5.5840 hc        1 UB3      0.069700
     54 H24A        4.3400   -5.9030   -5.0980 hc        1 UB3      0.069700
     55 H25         4.9230   -5.6140   -2.6840 hc        1 UB3      0.041700
     56 H26         7.2120   -6.7570   -4.4230 hc        1 UB3      0.042700
     57 H26A        6.8530   -7.1670   -2.6950 hc        1 UB3      0.042700
     58 H26B        5.6680   -7.6050   -3.9950 hc        1 UB3      0.042700
     59 H27         7.4360   -4.2070   -3.8210 hc        1 UB3      0.042700
     60 H27A        7.2870   -4.8440   -2.1320 hc        1 UB3      0.042700
     61 H27B        6.1930   -3.5170   -2.6940 hc        1 UB3      0.042700
     62 H82        -0.7650   -0.8730   -1.3860 hn        1 UB3      0.489300
     63 H132       -1.6100   -2.4260   -4.9250 hn        1 UB3      0.450800
     64 H192        2.6030   -4.4860   -3.7930 hn        1 UB3      0.378300
@<TRIPOS>BOND
     1    1    2 2   
     2    1    3 1   
     3    1   11 1   
     4    3    4 1   
     5    4    5 1   
     6    4   32 1   
     7    4   33 1   
     8    5    6 ar  
     9    5   10 ar  
    10    6    9 ar  
    11    6   34 1   
    12    7    8 ar  
    13    7   10 ar  
    14    7   35 1   
    15    8    9 ar  
    16    8   36 1   
    17    9   37 1   
    18   10   38 1   
    19   11   12 1   
    20   11   39 1   
    21   11   62 1   
    22   12   13 1   
    23   12   40 1   
    24   12   41 1   
    25   13   14 1   
    26   13   15 1   
    27   13   16 1   
    28   16   17 1   
    29   16   42 1   
    30   16   63 1   
    31   17   18 1   
    32   17   20 1   
    33   17   43 1   
    34   18   19 2   
    35   18   26 1   
    36   20   21 1   
    37   20   22 1   
    38   20   44 1   
    39   21   45 1   
    40   21   46 1   
    41   21   47 1   
    42   22   48 1   
    43   22   49 1   
    44   22   50 1   
    45   23   24 1   
    46   23   51 1   
    47   23   64 1   
    48   24   25 1   
    49   24   27 1   
    50   24   52 1   
    51   25   26 1   
    52   25   31 2   
    53   27   28 1   
    54   27   53 1   
    55   27   54 1   
    56   28   29 1   
    57   28   30 1   
    58   28   55 1   
    59   29   56 1   
    60   29   57 1   
    61   29   58 1   
    62   30   59 1   
    63   30   60 1   
    64   30   61 1   
@<TRIPOS>SUBSTRUCTURE
     1 UB3         1 TEMP              0 ****  ****    0 ROOT
