@<TRIPOS>MOLECULE
UB3
   62    58     1     0     0
SMALL
bcc


@<TRIPOS>ATOM
      1 C7          0.6130   -1.2320    4.4770 c1        1 UB3      0.614500
      2 O29         1.6940   -1.6780    4.7500 o         1 UB3     -0.648500
      3 O6         -0.4880   -2.0780    4.4030 o         1 UB3     -0.428500
      4 C5         -0.1560   -3.4220    4.1000 c3        1 UB3      0.246200
      5 C4         -1.2930   -4.0640    3.2970 c1        1 UB3     -0.082100
      6 C30        -1.8570   -3.3900    2.2460 c1        1 UB3     -0.035500
      7 C31        -2.8600   -3.9780    1.5160 c1        1 UB3     -0.080250
      8 C1         -3.2980   -5.2460    1.8410 c1        1 UB3     -0.080250
      9 C2         -2.7310   -5.9180    2.8930 c1        1 UB3     -0.080250
     10 C3         -1.7330   -5.3340    3.6220 c1        1 UB3     -0.080250
     11 N8          0.4410    0.1930    4.3180 n3        1 UB3     -0.311400
     12 C9          1.4880    0.9830    3.7260 c3        1 UB3     -0.294900
     13 P10         0.7440    2.2090    2.5370 p5        1 UB3      1.579200
     14 O12        -0.7270    1.9750    2.4350 o         1 UB3     -0.893300
     15 O11         1.0190    3.7200    3.0830 oh        1 UB3     -0.783400
     16 N13         1.4530    2.0170    0.9990 n3        1 UB3     -0.998300
     17 C14         1.2970    3.0100    0.0290 c3        1 UB3      0.144500
     18 C18         0.1590    2.6120   -0.9390 c         1 UB3      0.617100
     19 O28        -0.8360    3.3120   -1.0280 o         1 UB3     -0.579100
     20 C15         2.6000    3.1680   -0.7500 c3        1 UB3     -0.073700
     21 C16         3.7560    3.3500    0.2240 c3        1 UB3     -0.093600
     22 C17         2.5050    4.3980   -1.6650 c3        1 UB3     -0.093600
     23 N19         0.2290    1.3880   -1.6550 n         1 UB3     -0.500900
     24 C20        -0.7210    1.1200   -2.7170 c3        1 UB3     -0.044300
     25 C21        -2.1330    1.0500   -2.1340 c         1 UB3      0.876600
     26 O22        -2.3970    0.2250   -1.2440 o         1 UB3     -0.845300
     27 C24        -0.3890   -0.1740   -3.3650 c3        1 UB3     -0.059400
     28 C25        -1.0920   -0.2640   -4.7170 c3        1 UB3     -0.070700
     29 C26        -0.0340   -0.2210   -5.8660 c3        1 UB3     -0.087100
     30 C27        -1.8840   -1.5910   -4.7920 c3        1 UB3     -0.087100
     31 O23        -3.0340    1.7990   -2.5800 o         1 UB3     -0.845300
     32 H5          0.6770   -3.4430    3.5660 h1        1 UB3      0.066700
     33 H5A        -0.0250   -3.9170    4.9260 h1        1 UB3      0.066700
     34 H30        -1.5350   -2.4610    2.0100 ha        1 UB3      0.141500
     35 H31        -3.2790   -3.4830    0.7390 ha        1 UB3      0.064750
     36 H1         -4.0050   -5.6880    1.2870 ha        1 UB3      0.064750
     37 H2         -3.0530   -6.8510    3.1320 ha        1 UB3      0.064750
     38 H3         -1.3090   -5.8360    4.3940 ha        1 UB3      0.064750
     39 HN8        -0.3450    0.5760    4.5290 hn        1 UB3      0.334700
     40 H9          1.9760    1.4700    4.4380 h1        1 UB3      0.117700
     41 H9A         2.0940    0.4110    3.2580 h1        1 UB3      0.117700
     42 HO11        0.3850    3.9390    3.7030 ho        1 UB3      0.460000
     43 HN13        1.9260    1.2500    0.8020 hn        1 UB3      0.479800
     44 H14         1.0760    3.8410    0.4560 h1        1 UB3      0.107700
     45 H15         2.7520    2.3780   -1.2840 hc        1 UB3      0.052700
     46 H16         3.5190    4.0180    0.8830 hc        1 UB3      0.036533
     47 H16A        3.9450    2.4870    0.6810 hc        1 UB3      0.036533
     48 H16B        4.5620    3.6450   -0.2730 hc        1 UB3      0.036533
     49 H17         1.9950    5.1080   -1.2090 hc        1 UB3      0.036533
     50 H17A        2.0560    4.1550   -2.4830 hc        1 UB3      0.036533
     51 H17B        3.4130    4.7250   -1.8720 hc        1 UB3      0.036533
     52 HN19        0.9210    0.8060   -1.5000 hn        1 UB3      0.278500
     53 H20        -0.6780    1.8340   -3.3760 h1        1 UB3      0.079700
     54 H24         0.5830   -0.2370   -3.4950 hc        1 UB3      0.049200
     55 H24A       -0.6890   -0.9070   -2.7970 hc        1 UB3      0.049200
     56 H25        -1.7030    0.4840   -4.8140 hc        1 UB3      0.060700
     57 H26         0.4720   -1.0580   -5.8740 hc        1 UB3      0.026367
     58 H26A       -0.5000   -0.1050   -6.7430 hc        1 UB3      0.026367
     59 H26B        0.5870    0.5420   -5.7170 hc        1 UB3      0.026367
     60 H27        -2.6040   -1.5820   -4.1180 hc        1 UB3      0.026367
     61 H27A       -2.2750   -1.6900   -5.6840 hc        1 UB3      0.026367
     62 H27B       -1.2750   -2.3500   -4.6140 hc        1 UB3      0.026367
@<TRIPOS>BOND
     1    1    2 2   
     2    1   11 2   
     3    3    4 1   
     4    4    5 1   
     5    4   32 1   
     6    4   33 1   
     7    5    6 3   
     8    6   34 1   
     9    7    8 3   
    10    7   35 1   
    11    8   36 1   
    12    9   10 3   
    13    9   37 1   
    14   10   38 1   
    15   11   12 1   
    16   11   39 1   
    17   12   13 1   
    18   12   40 1   
    19   12   41 1   
    20   13   14 2   
    21   13   15 1   
    22   13   16 1   
    23   15   42 1   
    24   16   17 1   
    25   16   43 1   
    26   17   18 1   
    27   17   20 1   
    28   17   44 1   
    29   18   19 2   
    30   18   23 1   
    31   20   21 1   
    32   20   22 1   
    33   20   45 1   
    34   21   46 1   
    35   21   47 1   
    36   21   48 1   
    37   22   49 1   
    38   22   50 1   
    39   22   51 1   
    40   23   24 1   
    41   23   52 1   
    42   24   25 1   
    43   24   27 1   
    44   24   53 1   
    45   25   26 1   
    46   25   31 1   
    47   27   28 1   
    48   27   54 1   
    49   27   55 1   
    50   28   29 1   
    51   28   30 1   
    52   28   56 1   
    53   29   57 1   
    54   29   58 1   
    55   29   59 1   
    56   30   60 1   
    57   30   61 1   
    58   30   62 1   
@<TRIPOS>SUBSTRUCTURE
     1 UB3         1 TEMP              0 ****  ****    0 ROOT
