@<TRIPOS>MOLECULE
UBA
   37    38     1     0     0
SMALL
bcc


@<TRIPOS>ATOM
      1 O           5.1680   -2.7430   -0.6060 o         1 UBA     -0.836300
      2 C           5.2200   -1.5630   -0.1710 c         1 UBA      0.886600
      3 OXT         6.2710   -0.8620   -0.1070 o         1 UBA     -0.836300
      4 CA          3.8880   -0.9140    0.3500 c3        1 UBA     -0.000500
      5 N           4.1010    0.0220    1.4420 n3        1 UBA     -0.899800
      6 CB          3.2310   -0.2670   -0.8890 c3        1 UBA      0.107000
      7 N4          2.0830    0.5940   -0.6550 n         1 UBA     -0.353000
      8 C5          0.7640    0.1250   -0.9230 c         1 UBA      0.795500
      9 O8          0.6040   -1.0010   -1.4430 o         1 UBA     -0.641500
     10 N6         -0.3370    0.9730   -0.6540 n         1 UBA     -0.476400
     11 C1         -0.1590    2.2660   -0.1170 c         1 UBA      0.719700
     12 O7         -1.1370    3.0170    0.0670 o         1 UBA     -0.637500
     13 C2          1.2220    2.6800    0.1770 cc        1 UBA     -0.329400
     14 C6          1.4180    4.0150    0.7710 c3        1 UBA     -0.005900
     15 C3          2.2610    1.8350   -0.0870 cd        1 UBA      0.086600
     16 C17        -1.6800    0.4800   -0.9350 c3        1 UBA      0.159300
     17 C18        -2.3870   -0.1990    0.1860 cc        1 UBA     -0.127300
     18 C23        -1.7580   -0.7540    1.3500 cc        1 UBA     -0.140000
     19 C22        -2.6740   -1.3390    2.1950 cd        1 UBA     -0.227100
     20 S20        -4.2280   -1.2200    1.5950 ss        1 UBA     -0.028800
     21 C19        -3.7580   -0.3950    0.1990 cd        1 UBA     -0.097700
     22 C10        -4.7590    0.0270   -0.8460 c         1 UBA      0.933200
     23 O2         -5.9890   -0.1280   -0.5870 o         1 UBA     -0.832300
     24 O1         -4.3310    0.5070   -1.9330 o         1 UBA     -0.832300
     25 HA          3.2130   -1.7390    0.7140 h1        1 UBA      0.061700
     26 HN1         4.3000   -0.5050    2.2720 hn        1 UBA      0.334800
     27 HN2         4.9270    0.5620    1.2330 hn        1 UBA      0.334800
     28 HB1         2.9120   -1.1110   -1.5660 h1        1 UBA      0.073700
     29 HB2         4.0070    0.3560   -1.4210 h1        1 UBA      0.073700
     30 H61         0.7850    4.7690    0.2390 hc        1 UBA      0.029367
     31 H62         1.1090    4.0080    1.8470 hc        1 UBA      0.029367
     32 H63         2.4890    4.3310    0.7120 hc        1 UBA      0.029367
     33 H3          3.3090    2.1220    0.1270 h4        1 UBA      0.163000
     34 H171       -2.3130    1.3610   -1.2670 h1        1 UBA      0.104700
     35 H172       -1.6180   -0.2440   -1.8000 h1        1 UBA      0.104700
     36 H23        -0.6810   -0.7190    1.5210 ha        1 UBA      0.139000
     37 H22        -2.4370   -1.8260    3.1350 h4        1 UBA      0.138000
@<TRIPOS>BOND
     1    1    2 1   
     2    2    3 1   
     3    2    4 1   
     4    4    5 1   
     5    4    6 1   
     6    4   25 1   
     7    5   26 1   
     8    5   27 1   
     9    6    7 1   
    10    6   28 1   
    11    6   29 1   
    12    7    8 1   
    13    7   15 1   
    14    8    9 2   
    15    8   10 1   
    16   10   11 1   
    17   10   16 1   
    18   11   12 2   
    19   11   13 1   
    20   13   14 1   
    21   13   15 2   
    22   14   30 1   
    23   14   31 1   
    24   14   32 1   
    25   15   33 1   
    26   16   17 1   
    27   16   34 1   
    28   16   35 1   
    29   17   18 1   
    30   17   21 2   
    31   18   19 2   
    32   18   36 1   
    33   19   20 1   
    34   19   37 1   
    35   20   21 1   
    36   21   22 1   
    37   22   23 1   
    38   22   24 1   
@<TRIPOS>SUBSTRUCTURE
     1 UBA         1 TEMP              0 ****  ****    0 ROOT
