@<TRIPOS>MOLECULE
UBA
   38    39     1     0     0
SMALL
bcc


@<TRIPOS>ATOM
      1 O           2.7250    0.9230    0.0420 o         1 UBA     -0.788300
      2 C           1.9240    0.0750    0.5010 c         1 UBA      0.925600
      3 OXT         1.7280   -1.1020    0.1190 o         1 UBA     -0.788300
      4 CA          1.0130    0.5530    1.7130 c3        1 UBA     -0.077500
      5 N           0.8980   -0.5250    2.7190 nz        1 UBA     -0.798600
      6 CB          1.5060    1.8940    2.2820 c3        1 UBA      0.098000
      7 N4          2.6230    1.8110    3.1920 n         1 UBA     -0.383000
      8 C5          2.3490    1.5370    4.5620 c         1 UBA      0.790500
      9 O8          1.1500    1.4580    4.9190 o         1 UBA     -0.652500
     10 N6          3.4210    1.4150    5.4650 n         1 UBA     -0.469400
     11 C1          4.7570    1.6310    5.0450 c         1 UBA      0.722700
     12 O7          5.6680    1.6740    5.8920 o         1 UBA     -0.627500
     13 C2          4.9830    1.8130    3.5990 cc        1 UBA     -0.283400
     14 C6          6.3850    1.8950    3.1440 c3        1 UBA     -0.020900
     15 C3          3.9290    1.8600    2.7370 cd        1 UBA      0.053600
     16 C17         3.1510    0.8210    6.7720 c3        1 UBA      0.167300
     17 C18         3.5500   -0.6060    6.8960 cc        1 UBA     -0.187300
     18 C23         4.8550   -0.9950    7.3510 cc        1 UBA     -0.128000
     19 C22         4.9730   -2.3600    7.4460 cd        1 UBA     -0.217100
     20 S20         3.5590   -3.1300    6.9860 ss        1 UBA      0.005200
     21 C19         2.7450   -1.7030    6.6490 cd        1 UBA     -0.080700
     22 C10         1.3300   -1.6810    6.1360 c         1 UBA      0.946200
     23 O2          1.1590   -1.8790    4.8890 o         1 UBA     -0.838800
     24 O1          0.3860   -1.4790    6.9360 o         1 UBA     -0.838800
     25 HA         -0.0150    0.7310    1.2840 hx        1 UBA      0.079700
     26 HN1         0.4710   -1.3470    2.2830 hn        1 UBA      0.465800
     27 HN2         1.8220   -0.8270    3.0590 hn        1 UBA      0.465800
     28 HB1         0.6570    2.4040    2.8230 h1        1 UBA      0.088700
     29 HB2         1.8130    2.5180    1.3900 h1        1 UBA      0.088700
     30 H61         6.4420    2.1130    2.0500 hc        1 UBA      0.043033
     31 H62         6.9100    0.9280    3.3460 hc        1 UBA      0.043033
     32 H63         6.9220    2.7000    3.7060 hc        1 UBA      0.043033
     33 H3          4.0420    1.9240    1.6300 h4        1 UBA      0.210000
     34 H171        2.0420    0.9100    6.9800 h1        1 UBA      0.085200
     35 H172        3.7270    1.4330    7.5240 h1        1 UBA      0.085200
     36 H23         5.6370   -0.2620    7.5640 ha        1 UBA      0.155000
     37 H22         5.8590   -2.9010    7.7680 h4        1 UBA      0.151000
     38 HN3         0.3650   -0.2540    3.5600 hn        1 UBA      0.465800
@<TRIPOS>BOND
     1    1    2 1   
     2    2    3 1   
     3    2    4 1   
     4    4    5 1   
     5    4    6 1   
     6    4   25 1   
     7    5   26 1   
     8    5   27 1   
     9    5   38 1   
    10    6    7 1   
    11    6   28 1   
    12    6   29 1   
    13    7    8 1   
    14    7   15 1   
    15    8    9 2   
    16    8   10 1   
    17   10   11 1   
    18   10   16 1   
    19   11   12 2   
    20   11   13 1   
    21   13   14 1   
    22   13   15 2   
    23   14   30 1   
    24   14   31 1   
    25   14   32 1   
    26   15   33 1   
    27   16   17 1   
    28   16   34 1   
    29   16   35 1   
    30   17   18 1   
    31   17   21 2   
    32   18   19 2   
    33   18   36 1   
    34   19   20 1   
    35   19   37 1   
    36   20   21 1   
    37   21   22 1   
    38   22   23 1   
    39   22   24 1   
@<TRIPOS>SUBSTRUCTURE
     1 UBA         1 TEMP              0 ****  ****    0 ROOT
