@<TRIPOS>MOLECULE
UBA
   38    39     1     0     0
SMALL
bcc


@<TRIPOS>ATOM
      1 O           2.7740    0.9000    0.0350 o         1 UBA     -0.788300
      2 C           1.9330    0.0930    0.4960 c         1 UBA      0.925600
      3 OXT         1.6860   -1.0770    0.1240 o         1 UBA     -0.788300
      4 CA          1.0380    0.6230    1.6990 c3        1 UBA     -0.077500
      5 N           0.8690   -0.4400    2.7140 n4        1 UBA     -0.798600
      6 CB          1.5870    1.9460    2.2580 c3        1 UBA      0.098000
      7 N4          2.6940    1.8210    3.1760 n         1 UBA     -0.383000
      8 C5          2.4000    1.5730    4.5470 c         1 UBA      0.790500
      9 O8          1.1970    1.5500    4.8970 o         1 UBA     -0.652500
     10 N6          3.4600    1.4110    5.4570 n         1 UBA     -0.469400
     11 C1          4.8070    1.5620    5.0430 c         1 UBA      0.722700
     12 O7          5.7140    1.5720    5.8960 o         1 UBA     -0.627500
     13 C2          5.0500    1.7210    3.5970 cc        1 UBA     -0.283400
     14 C6          6.4560    1.7360    3.1500 c3        1 UBA     -0.020900
     15 C3          4.0030    1.8070    2.7280 cd        1 UBA      0.053600
     16 C17         3.1560    0.8410    6.7680 c3        1 UBA      0.167300
     17 C18         3.4900   -0.6010    6.9070 cc        1 UBA     -0.187300
     18 C23         4.7740   -1.0440    7.3730 cc        1 UBA     -0.128000
     19 C22         4.8300   -2.4130    7.4820 cd        1 UBA     -0.217100
     20 S20         3.3850   -3.1220    7.0200 ss        1 UBA      0.005200
     21 C19         2.6380   -1.6630    6.6660 cd        1 UBA     -0.080700
     22 C10         1.2290   -1.5830    6.1430 c         1 UBA      0.946200
     23 O2          1.0560   -1.7840    4.8980 o         1 UBA     -0.838800
     24 O1          0.2900   -1.3310    6.9370 o         1 UBA     -0.838800
     25 HA          0.0220    0.8430    1.2620 hx        1 UBA      0.079700
     26 HN1         0.4080   -1.2460    2.2820 hn        1 UBA      0.465800
     27 HN2         1.7760   -0.7790    3.0620 hn        1 UBA      0.465800
     28 HB1         0.7590    2.4980    2.7900 h1        1 UBA      0.088700
     29 HB2         1.9280    2.5470    1.3630 h1        1 UBA      0.088700
     30 H61         6.9360    0.7470    3.3630 hc        1 UBA      0.043033
     31 H62         6.5290    1.9420    2.0550 hc        1 UBA      0.043033
     32 H63         7.0260    2.5210    3.7090 hc        1 UBA      0.043033
     33 H3          4.1260    1.8560    1.6220 h4        1 UBA      0.210000
     34 H171        3.7560    1.4340    7.5180 h1        1 UBA      0.085200
     35 H172        2.0520    0.9820    6.9680 h1        1 UBA      0.085200
     36 H23         5.5880   -0.3450    7.5850 ha        1 UBA      0.155000
     37 H22         5.6890   -2.9890    7.8140 h4        1 UBA      0.151000
     38 HN3         0.3440   -0.1370    3.5490 hn        1 UBA      0.465800
@<TRIPOS>BOND
     1    1    2 1   
     2    2    3 1   
     3    2    4 1   
     4    4    5 1   
     5    4    6 1   
     6    4   25 1   
     7    5   26 1   
     8    5   27 1   
     9    5   38 1   
    10    6    7 1   
    11    6   28 1   
    12    6   29 1   
    13    7    8 1   
    14    7   15 1   
    15    8    9 2   
    16    8   10 1   
    17   10   11 1   
    18   10   16 1   
    19   11   12 2   
    20   11   13 1   
    21   13   14 1   
    22   13   15 2   
    23   14   30 1   
    24   14   31 1   
    25   14   32 1   
    26   15   33 1   
    27   16   17 1   
    28   16   34 1   
    29   16   35 1   
    30   17   18 1   
    31   17   21 2   
    32   18   19 2   
    33   18   36 1   
    34   19   20 1   
    35   19   37 1   
    36   20   21 1   
    37   21   22 1   
    38   22   23 1   
    39   22   24 1   
@<TRIPOS>SUBSTRUCTURE
     1 UBA         1 TEMP              0 ****  ****    0 ROOT
