@<TRIPOS>MOLECULE
UBB
   30    31     1     0     0
SMALL
bcc


@<TRIPOS>ATOM
      1 O1P         1.4560    2.0710    6.4960 oh        1 UBB     -0.781400
      2 P           1.0460    2.5190    4.9740 p5        1 UBB      1.425800
      3 O2P         1.5150    3.9200    4.9030 o         1 UBB     -0.843000
      4 O3P        -0.3110    2.0300    4.6590 o         1 UBB     -0.843000
      5 O5'         2.1470    1.5970    4.1700 os        1 UBB     -0.587200
      6 C5'         1.8570    0.2410    3.9990 c3        1 UBB      0.186400
      7 C4'         1.6860   -0.0730    2.5040 c3        1 UBB      0.125100
      8 O4'         2.3480   -1.3150    2.2170 os        1 UBB     -0.438600
      9 C1'         1.5020   -2.1350    1.3670 c3        1 UBB      0.332500
     10 N1          1.6720   -3.5450    1.6580 n         1 UBB     -0.316400
     11 C6          0.8650   -4.1840    2.5700 c1        1 UBB     -0.084900
     12 C5          1.0940   -5.5140    2.8680 ce        1 UBB     -0.554300
     13 C4          2.1740   -6.2610    2.2820 c         1 UBB      0.670300
     14 O4          2.4870   -7.4630    2.4910 o         1 UBB     -0.737100
     15 N3          2.9740   -5.5600    1.3440 n         1 UBB     -0.597500
     16 C2          2.7450   -4.2150    1.0110 c         1 UBB      0.718100
     17 O2          3.4720   -3.6930    0.1190 o         1 UBB     -0.714100
     18 C2'         0.0610   -1.6000    1.5320 c3        1 UBB     -0.105400
     19 C3'         0.2270   -0.1850    2.0570 c3        1 UBB     -0.109400
     20 H5'1        2.7310   -0.3550    4.3860 h1        1 UBB      0.040700
     21 H5'2        0.9310   -0.0330    4.5740 h1        1 UBB      0.040700
     22 H4'         2.2250    0.7150    1.9070 h1        1 UBB      0.042700
     23 H1'         1.8740   -1.9550    0.3110 h2        1 UBB      0.047700
     24 H6          2.1480    2.6210    6.8430 ho        1 UBB      0.417000
     25 H5          0.4540   -6.0370    3.5800 ha        1 UBB      0.128000
     26 HN3         3.7380   -6.0150    0.9050 hn        1 UBB      0.297500
     27 H2'1       -0.5090   -2.2350    2.2600 hc        1 UBB      0.062200
     28 H2'2       -0.4660   -1.6230    0.5490 hc        1 UBB      0.062200
     29 H3'1        0.0150    0.5660    1.2560 hc        1 UBB      0.058200
     30 H3'2       -0.4700    0.0300    2.9070 hc        1 UBB      0.058200
@<TRIPOS>BOND
     1    1    2 1   
     2    1   24 1   
     3    2    3 1   
     4    2    4 1   
     5    2    5 1   
     6    5    6 1   
     7    6    7 1   
     8    6   20 1   
     9    6   21 1   
    10    7    8 1   
    11    7   19 1   
    12    7   22 1   
    13    8    9 1   
    14    9   10 1   
    15    9   18 1   
    16    9   23 1   
    17   10   11 2   
    18   10   16 1   
    19   11   12 2   
    20   12   13 1   
    21   12   25 1   
    22   13   14 2   
    23   13   15 1   
    24   15   16 1   
    25   15   26 1   
    26   16   17 2   
    27   18   19 1   
    28   18   27 1   
    29   18   28 1   
    30   19   29 1   
    31   19   30 1   
@<TRIPOS>SUBSTRUCTURE
     1 UBB         1 TEMP              0 ****  ****    0 ROOT
