@<TRIPOS>MOLECULE
UBB
   30    31     1     0     0
SMALL
bcc


@<TRIPOS>ATOM
      1 O1P         1.9860    0.5860    0.5920 oh        1 UBB     -0.787400
      2 P           3.0140    0.1450   -0.6050 p5        1 UBB      1.429800
      3 O2P         4.4010    0.4980   -0.2490 o         1 UBB     -0.844500
      4 O3P         2.2790    0.5830   -1.8140 o         1 UBB     -0.844500
      5 O5'         2.8590   -1.4910   -0.4850 os        1 UBB     -0.582200
      6 C5'         1.6190   -2.0480   -0.8060 c3        1 UBB      0.189400
      7 C4'         1.7540   -2.9590   -2.0370 c3        1 UBB      0.126100
      8 O4'         0.9420   -4.1270   -1.8350 os        1 UBB     -0.439600
      9 C1'         0.1270   -4.3770   -3.0100 c3        1 UBB      0.331500
     10 N1         -1.1860   -4.8750   -2.6440 n         1 UBB     -0.317400
     11 C6         -2.2410   -4.0150   -2.4470 c1        1 UBB     -0.085900
     12 C5         -3.4620   -4.5190   -2.0400 ce        1 UBB     -0.554300
     13 C4         -3.6730   -5.9160   -1.7790 c         1 UBB      0.670300
     14 O4         -4.7300   -6.4820   -1.3900 o         1 UBB     -0.737100
     15 N3         -2.5560   -6.7620   -2.0010 n         1 UBB     -0.596500
     16 C2         -1.3130   -6.2750   -2.4350 c         1 UBB      0.718100
     17 O2         -0.3940   -7.1110   -2.6630 o         1 UBB     -0.714100
     18 C2'         0.1220   -3.0710   -3.8360 c3        1 UBB     -0.105400
     19 C3'         1.3320   -2.2950   -3.3490 c3        1 UBB     -0.110400
     20 H5'1        0.8640   -1.2360   -0.9950 h1        1 UBB      0.033700
     21 H5'2        1.2810   -2.6790    0.0640 h1        1 UBB      0.033700
     22 H4'         2.8160   -3.3260   -2.0970 h1        1 UBB      0.044700
     23 H1'         0.6620   -5.2040   -3.5710 h2        1 UBB      0.049700
     24 H6          1.1270    0.8050    0.2510 ho        1 UBB      0.422000
     25 H5         -4.3130   -3.8500   -1.8920 ha        1 UBB      0.128000
     26 HN3        -2.6310   -7.7380   -1.8370 hn        1 UBB      0.297500
     27 H2'1       -0.8230   -2.4970   -3.6540 hc        1 UBB      0.062200
     28 H2'2        0.1900   -3.3120   -4.9230 hc        1 UBB      0.062200
     29 H3'1        2.1680   -2.3530   -4.0900 hc        1 UBB      0.059700
     30 H3'2        1.1000   -1.2100   -3.1930 hc        1 UBB      0.059700
@<TRIPOS>BOND
     1    1    2 1   
     2    1   24 1   
     3    2    3 1   
     4    2    4 1   
     5    2    5 1   
     6    5    6 1   
     7    6    7 1   
     8    6   20 1   
     9    6   21 1   
    10    7    8 1   
    11    7   19 1   
    12    7   22 1   
    13    8    9 1   
    14    9   10 1   
    15    9   18 1   
    16    9   23 1   
    17   10   11 2   
    18   10   16 1   
    19   11   12 2   
    20   12   13 1   
    21   12   25 1   
    22   13   14 2   
    23   13   15 1   
    24   15   16 1   
    25   15   26 1   
    26   16   17 2   
    27   18   19 1   
    28   18   27 1   
    29   18   28 1   
    30   19   29 1   
    31   19   30 1   
@<TRIPOS>SUBSTRUCTURE
     1 UBB         1 TEMP              0 ****  ****    0 ROOT
