@<TRIPOS>MOLECULE
UBB
   30    30     1     0     0
SMALL
bcc


@<TRIPOS>ATOM
      1 O1P        -1.6870   -3.9170   -0.4680 o         1 UBB     -0.914833
      2 P          -0.1750   -3.9170   -0.4680 p5        1 UBB      1.548500
      3 O2P         0.3280   -3.9170    0.9570 o         1 UBB     -0.914833
      4 O3P         0.3290   -5.1520   -1.1810 o         1 UBB     -0.914833
      5 O5'         0.3570   -2.6140   -1.2200 os        1 UBB     -0.740000
      6 C5'        -0.0440   -1.3370   -0.7330 c3        1 UBB      0.045000
      7 C4'        -0.3350   -0.4030   -1.9210 c3        1 UBB     -0.008000
      8 O4'        -1.2140    0.8510   -1.4370 os        1 UBB     -0.306000
      9 C1'        -0.3900    1.6850   -0.9250 c3        1 UBB      0.154000
     10 N1         -0.2630    1.4560    0.5220 n         1 UBB     -0.257000
     11 C6          0.9640    1.7570    1.1830 c2        1 UBB      0.088000
     12 C5          1.0530    1.6510    2.6520 c1        1 UBB     -0.361000
     13 C4         -0.1250    1.2160    3.4270 c1        1 UBB      0.357000
     14 O4         -0.0570    1.1260    4.6420 o         1 UBB     -0.416000
     15 N3         -1.3310    0.8780    2.7540 n         1 UBB     -0.378000
     16 C2         -1.4460    1.0840    1.3080 c2        1 UBB      0.388000
     17 O2         -2.5350    1.0020    0.7660 o         1 UBB     -0.432000
     18 C2'         0.9510    1.4070   -1.6300 c3        1 UBB     -0.167000
     19 C3'         0.7530    0.0750   -2.3780 c3        1 UBB     -0.240000
     20 H5'1       -0.8500   -1.4340   -0.1910 h1        1 UBB      0.057500
     21 H5'2        0.6710   -0.9570   -0.1880 h1        1 UBB      0.057500
     22 H4'        -0.8070   -0.8910   -2.6230 h1        1 UBB      0.059000
     23 H1'        -0.6810    2.6010   -1.0990 h2        1 UBB      0.112000
     24 H6          1.7190    2.1080    0.6730 h4        1 UBB      0.289000
     25 H5          1.8610    1.9420    3.1150 ha        1 UBB      0.183000
     26 HN3        -2.0420    0.5570    3.2260 hn        1 UBB      0.235000
     27 H2'1        1.6670    1.3230   -0.9720 hc        1 UBB      0.088000
     28 H2'2        1.1540    2.1220   -2.2620 hc        1 UBB      0.088000
     29 H3'1        1.4950   -0.5320   -2.1910 hc        1 UBB      0.149000
     30 H3'2        0.6780    0.2330   -3.3380 hc        1 UBB      0.149000
@<TRIPOS>BOND
     1    1    2 1   
     2    2    3 1   
     3    2    4 1   
     4    2    5 1   
     5    5    6 1   
     6    6    7 1   
     7    6   20 1   
     8    6   21 1   
     9    7    8 1   
    10    7   19 1   
    11    7   22 1   
    12    8    9 1   
    13    9   10 1   
    14    9   18 1   
    15    9   23 1   
    16   10   11 1   
    17   10   16 1   
    18   11   12 1   
    19   11   24 1   
    20   12   25 1   
    21   13   14 1   
    22   13   15 1   
    23   15   16 1   
    24   15   26 1   
    25   16   17 1   
    26   18   19 1   
    27   18   27 1   
    28   18   28 1   
    29   19   29 1   
    30   19   30 1   
@<TRIPOS>SUBSTRUCTURE
     1 UBB         1 TEMP              0 ****  ****    0 ROOT
