@<TRIPOS>MOLECULE
UBB
   30    31     1     0     0
SMALL
bcc


@<TRIPOS>ATOM
      1 O1P         2.1560    0.9320    0.3850 oh        1 UBB     -0.781400
      2 P           2.8310    0.4460   -1.0260 p5        1 UBB      1.425800
      3 O2P         4.2530    0.8180   -0.8580 o         1 UBB     -0.843000
      4 O3P         1.9540    0.8170   -2.1540 o         1 UBB     -0.843000
      5 O5'         2.7220   -1.1770   -0.7730 os        1 UBB     -0.587200
      6 C5'         1.4830   -1.7860   -0.9940 c3        1 UBB      0.186400
      7 C4'         1.5900   -2.7780   -2.1630 c3        1 UBB      0.125100
      8 O4'         0.8710   -3.9730   -1.8180 os        1 UBB     -0.438600
      9 C1'         0.0740   -4.4090   -2.9520 c3        1 UBB      0.332500
     10 N1         -1.1630   -5.0290   -2.5180 n         1 UBB     -0.316400
     11 C6         -2.3140   -4.2910   -2.3730 c1        1 UBB     -0.084900
     12 C5         -3.4600   -4.9040   -1.9010 ce        1 UBB     -0.554300
     13 C4         -3.4930   -6.2890   -1.5180 c         1 UBB      0.670300
     14 O4         -4.4680   -6.9440   -1.0600 o         1 UBB     -0.737100
     15 N3         -2.2830   -7.0080   -1.6910 n         1 UBB     -0.597500
     16 C2         -1.1140   -6.4110   -2.1900 c         1 UBB      0.718100
     17 O2         -0.1010   -7.1460   -2.3680 o         1 UBB     -0.714100
     18 C2'        -0.0970   -3.1770   -3.8690 c3        1 UBB     -0.105400
     19 C3'         1.0350   -2.2420   -3.4850 c3        1 UBB     -0.109400
     20 H5'1        0.7000   -1.0070   -1.2010 h1        1 UBB      0.040700
     21 H5'2        1.2060   -2.3630   -0.0660 h1        1 UBB      0.040700
     22 H4'         2.6680   -3.0840   -2.2790 h1        1 UBB      0.042700
     23 H1'         0.6950   -5.2050   -3.4660 h2        1 UBB      0.047700
     24 H6          2.8080    1.0090    1.0710 ho        1 UBB      0.417000
     25 H5         -4.3850   -4.3340   -1.7920 ha        1 UBB      0.128000
     26 HN3        -2.2350   -7.9670   -1.4440 hn        1 UBB      0.297500
     27 H2'1       -1.0940   -2.6950   -3.6930 hc        1 UBB      0.062200
     28 H2'2       -0.0360   -3.4900   -4.9380 hc        1 UBB      0.062200
     29 H3'1        0.6850   -1.1840   -3.3720 hc        1 UBB      0.058200
     30 H3'2        1.8380   -2.2450   -4.2630 hc        1 UBB      0.058200
@<TRIPOS>BOND
     1    1    2 1   
     2    1   24 1   
     3    2    3 1   
     4    2    4 1   
     5    2    5 1   
     6    5    6 1   
     7    6    7 1   
     8    6   20 1   
     9    6   21 1   
    10    7    8 1   
    11    7   19 1   
    12    7   22 1   
    13    8    9 1   
    14    9   10 1   
    15    9   18 1   
    16    9   23 1   
    17   10   11 2   
    18   10   16 1   
    19   11   12 2   
    20   12   13 1   
    21   12   25 1   
    22   13   14 2   
    23   13   15 1   
    24   15   16 1   
    25   15   26 1   
    26   16   17 2   
    27   18   19 1   
    28   18   27 1   
    29   18   28 1   
    30   19   29 1   
    31   19   30 1   
@<TRIPOS>SUBSTRUCTURE
     1 UBB         1 TEMP              0 ****  ****    0 ROOT
