@<TRIPOS>MOLECULE
UBB
   30    31     1     0     0
SMALL
bcc


@<TRIPOS>ATOM
      1 O1P         2.0620    1.0210    0.3070 oh        1 UBB     -0.781400
      2 P           2.7550    0.5170   -1.0890 p5        1 UBB      1.425800
      3 O2P         4.1690    0.9200   -0.9210 o         1 UBB     -0.843000
      4 O3P         1.8790    0.8470   -2.2300 o         1 UBB     -0.843000
      5 O5'         2.6740   -1.1020   -0.8020 os        1 UBB     -0.587200
      6 C5'         1.4490   -1.7380   -1.0170 c3        1 UBB      0.186400
      7 C4'         1.5820   -2.7530   -2.1640 c3        1 UBB      0.125100
      8 O4'         0.8830   -3.9540   -1.7980 os        1 UBB     -0.438600
      9 C1'         0.1020   -4.4290   -2.9270 c3        1 UBB      0.332500
     10 N1         -1.1260   -5.0630   -2.4870 n         1 UBB     -0.316400
     11 C6         -2.2920   -4.3440   -2.3640 c1        1 UBB     -0.084900
     12 C5         -3.4280   -4.9680   -1.8840 ce        1 UBB     -0.554300
     13 C4         -3.4380   -6.3450   -1.4730 c         1 UBB      0.670300
     14 O4         -4.4030   -7.0090   -1.0070 o         1 UBB     -0.737100
     15 N3         -2.2130   -7.0450   -1.6250 ns        1 UBB     -0.597500
     16 C2         -1.0530   -6.4370   -2.1300 c         1 UBB      0.718100
     17 O2         -0.0260   -7.1560   -2.2870 o         1 UBB     -0.714100
     18 C2'        -0.0870   -3.2200   -3.8710 c3        1 UBB     -0.105400
     19 C3'         1.0260   -2.2560   -3.5000 c3        1 UBB     -0.109400
     20 H5'1        1.1770   -2.3010   -0.0790 h1        1 UBB      0.040700
     21 H5'2        0.6520   -0.9800   -1.2450 h1        1 UBB      0.040700
     22 H4'         2.6660   -3.0400   -2.2680 h1        1 UBB      0.042700
     23 H1'         0.7410   -5.2240   -3.4210 h2        1 UBB      0.047700
     24 H6          2.7070    1.1250    0.9950 ho        1 UBB      0.417000
     25 H5         -4.3640   -4.4130   -1.7930 ha        1 UBB      0.128000
     26 HN3        -2.1490   -7.9980   -1.3580 hn        1 UBB      0.297500
     27 H2'1       -1.0940   -2.7530   -3.7110 hc        1 UBB      0.062200
     28 H2'2       -0.0140   -3.5540   -4.9330 hc        1 UBB      0.062200
     29 H3'1        1.8330   -2.2600   -4.2740 hc        1 UBB      0.058200
     30 H3'2        0.6550   -1.2020   -3.4120 hc        1 UBB      0.058200
@<TRIPOS>BOND
     1    1    2 1   
     2    1   24 1   
     3    2    3 1   
     4    2    4 1   
     5    2    5 1   
     6    5    6 1   
     7    6    7 1   
     8    6   20 1   
     9    6   21 1   
    10    7    8 1   
    11    7   19 1   
    12    7   22 1   
    13    8    9 1   
    14    9   10 1   
    15    9   18 1   
    16    9   23 1   
    17   10   11 2   
    18   10   16 1   
    19   11   12 2   
    20   12   13 1   
    21   12   25 1   
    22   13   14 2   
    23   13   15 1   
    24   15   16 1   
    25   15   26 1   
    26   16   17 2   
    27   18   19 1   
    28   18   27 1   
    29   18   28 1   
    30   19   29 1   
    31   19   30 1   
@<TRIPOS>SUBSTRUCTURE
     1 UBB         1 TEMP              0 ****  ****    0 ROOT
