@<TRIPOS>MOLECULE
UBC
   38    39     1     0     0
SMALL
bcc


@<TRIPOS>ATOM
      1 O1          3.9120   -2.2680    0.7270 o         1 UBC     -0.858800
      2 C10         4.2380   -1.1060    0.3230 c         1 UBC      0.909200
      3 O2          5.2220   -0.5040    0.8600 o         1 UBC     -0.858800
      4 C22         3.4900   -0.4930   -0.8250 ca        1 UBC     -0.093600
      5 C23         2.2040   -0.9800   -1.0940 ca        1 UBC     -0.097000
      6 C24         1.4760   -0.5130   -2.1840 ca        1 UBC     -0.150000
      7 C25         2.0370    0.4400   -3.0330 ca        1 UBC     -0.141000
      8 C26         3.3140    0.9300   -2.7770 ca        1 UBC     -0.133000
      9 C21         4.0470    0.4820   -1.6670 ca        1 UBC     -0.047300
     10 C17         5.3430    1.1740   -1.3710 c3        1 UBC      0.149300
     11 N6          6.6000    0.4560   -1.5480 n         1 UBC     -0.462400
     12 C5          6.6320   -0.9500   -1.6890 c         1 UBC      0.816500
     13 O8          5.7770   -1.5790   -2.3440 o         1 UBC     -0.622500
     14 C1          7.7630    1.1580   -1.1270 c         1 UBC      0.716700
     15 O7          7.7360    2.4030   -1.0660 o         1 UBC     -0.646500
     16 C2          8.9450    0.3630   -0.7890 cc        1 UBC     -0.355200
     17 C3          8.8800   -0.9940   -0.7480 cd        1 UBC      0.058600
     18 N4          7.7460   -1.6740   -1.1500 n         1 UBC     -0.388000
     19 CB          7.6340   -3.0990   -0.9540 c3        1 UBC      0.094000
     20 CA          7.5480   -3.5840    0.5050 c3        1 UBC     -0.067500
     21 N           6.5730   -2.8590    1.3510 nz        1 UBC     -0.841600
     22 C           8.9670   -3.6080    1.2090 c         1 UBC      0.918600
     23 OXT         8.9480   -3.6280    2.4660 o         1 UBC     -0.794800
     24 O           9.9700   -3.6320    0.4580 o         1 UBC     -0.794800
     25 H23         1.7920   -1.7570   -0.4290 ha        1 UBC      0.150000
     26 H24         0.4670   -0.9010   -2.3810 ha        1 UBC      0.114000
     27 H25         1.4760    0.8020   -3.9060 ha        1 UBC      0.112000
     28 H26         3.7560    1.6770   -3.4540 ha        1 UBC      0.121000
     29 H171        5.3020    1.5080   -0.2870 h1        1 UBC      0.071700
     30 H172        5.4300    2.0950   -2.0220 h1        1 UBC      0.071700
     31 H2          9.8510    0.9150   -0.5190 ha        1 UBC      0.166000
     32 H3          9.7200   -1.6370   -0.3960 h4        1 UBC      0.212000
     33 HB1         8.5610   -3.5900   -1.3780 h1        1 UBC      0.093200
     34 HB2         6.7280   -3.4610   -1.5210 h1        1 UBC      0.093200
     35 HA          7.2180   -4.6630    0.4610 hx        1 UBC      0.078700
     36 HN1         6.7990   -3.0700    2.3290 hn        1 UBC      0.469133
     37 HN2         5.5920   -3.1190    1.1380 hn        1 UBC      0.469133
     38 HN3         6.6320   -1.8340    1.2220 hn        1 UBC      0.469133
@<TRIPOS>BOND
     1    1    2 1   
     2    2    3 1   
     3    2    4 1   
     4    4    5 ar  
     5    4    9 ar  
     6    5    6 ar  
     7    5   25 1   
     8    6    7 ar  
     9    6   26 1   
    10    7    8 ar  
    11    7   27 1   
    12    8    9 ar  
    13    8   28 1   
    14    9   10 1   
    15   10   11 1   
    16   10   29 1   
    17   10   30 1   
    18   11   12 1   
    19   11   14 1   
    20   12   13 2   
    21   12   18 1   
    22   14   15 2   
    23   14   16 1   
    24   16   17 2   
    25   16   31 1   
    26   17   18 1   
    27   17   32 1   
    28   18   19 1   
    29   19   20 1   
    30   19   33 1   
    31   19   34 1   
    32   20   21 1   
    33   20   22 1   
    34   20   35 1   
    35   21   36 1   
    36   21   37 1   
    37   21   38 1   
    38   22   23 1   
    39   22   24 1   
@<TRIPOS>SUBSTRUCTURE
     1 UBC         1 TEMP              0 ****  ****    0 ROOT
