@<TRIPOS>MOLECULE
UBC
   37    34     1     0     0
SMALL
bcc


@<TRIPOS>ATOM
      1 O1         -4.0690    3.1270    0.8170 o         1 UBC     -0.573500
      2 C10        -4.2860    1.9300    0.5270 c2        1 UBC      0.356000
      3 O2         -4.9510    1.2110    1.3030 o         1 UBC     -0.573500
      4 C22        -3.6850    1.3320   -0.7340 c2        1 UBC     -0.102000
      5 C23        -4.3820    1.3770   -1.9130 c2        1 UBC     -0.111000
      6 C24        -3.8400    0.8050   -3.0670 c1        1 UBC     -0.176000
      7 C25        -2.6050    0.1970   -3.0190 c1        1 UBC     -0.153500
      8 C26        -1.8980    0.1530   -1.8200 c1        1 UBC     -0.153500
      9 C21        -2.4310    0.7150   -0.6860 c1        1 UBC     -0.041000
     10 C17        -1.6600    0.6850    0.5970 c3        1 UBC      0.007000
     11 N6         -0.2040    0.6780    0.3000 n         1 UBC     -0.307000
     12 C5          0.5220   -0.4720    0.4730 c2        1 UBC      0.382000
     13 O8         -0.0440   -1.5060    0.8120 o         1 UBC     -0.380000
     14 C1          0.4280    1.8390   -0.0010 c1        1 UBC      0.351000
     15 O7         -0.2070    2.8890   -0.0360 o         1 UBC     -0.370000
     16 C2          1.7960    1.8620   -0.1330 c1        1 UBC     -0.153500
     17 C3          2.5310    0.7000    0.0420 c1        1 UBC     -0.153500
     18 N4          1.9050   -0.4490    0.3400 n2        1 UBC     -0.263000
     19 CB          2.6580   -1.6930    0.3880 c3        1 UBC     -0.049000
     20 CA          3.3100   -1.8520    1.7740 c3        1 UBC     -0.128000
     21 N           4.6840   -1.5390    1.6850 n3        1 UBC     -0.335000
     22 C           3.1490   -3.2790    2.2430 c2        1 UBC      0.331000
     23 OXT         3.5250   -4.2480    1.4870 o         1 UBC     -0.572000
     24 O           2.5600   -3.5230    3.3370 o         1 UBC     -0.572000
     25 H23        -5.2840    1.8220   -1.9480 ha        1 UBC      0.147000
     26 H24        -4.3630    0.7660   -3.8750 ha        1 UBC      0.095000
     27 H25        -2.2210   -0.2080   -3.8370 ha        1 UBC      0.151250
     28 H26        -1.0150   -0.2810   -1.7850 ha        1 UBC      0.151250
     29 H171       -1.8780    1.4680    1.1240 h1        1 UBC      0.154500
     30 H172       -1.8930   -0.1150    1.0950 h1        1 UBC      0.154500
     31 H2          2.2560    2.7100   -0.3530 ha        1 UBC      0.151250
     32 H3          3.5210    0.6960   -0.1650 ha        1 UBC      0.151250
     33 HB1         2.0520   -2.4480    0.2220 h1        1 UBC      0.106000
     34 HB2         3.3490   -1.6800   -0.2930 h1        1 UBC      0.106000
     35 HA          2.8790   -1.2490    2.4090 h1        1 UBC      0.097000
     36 HN1         4.9890   -1.7660    0.8760 hn        1 UBC      0.137500
     37 HN2         4.8010   -0.6540    1.8140 hn        1 UBC      0.137500
@<TRIPOS>BOND
     1    1    2 1   
     2    2    3 1   
     3    2    4 1   
     4    4    5 1   
     5    4    9 1   
     6    5    6 1   
     7    5   25 1   
     8    6   26 1   
     9    7    8 1   
    10    7   27 1   
    11    8   28 1   
    12    9   10 1   
    13   10   11 1   
    14   10   29 1   
    15   10   30 1   
    16   11   12 1   
    17   11   14 1   
    18   12   13 1   
    19   12   18 1   
    20   14   15 1   
    21   16   17 1   
    22   16   31 1   
    23   17   32 1   
    24   18   19 1   
    25   19   20 1   
    26   19   33 1   
    27   19   34 1   
    28   20   21 1   
    29   20   22 1   
    30   20   35 1   
    31   21   36 1   
    32   21   37 1   
    33   22   23 1   
    34   22   24 1   
@<TRIPOS>SUBSTRUCTURE
     1 UBC         1 TEMP              0 ****  ****    0 ROOT
