@<TRIPOS>MOLECULE
UBC
   38    39     1     0     0
SMALL
bcc


@<TRIPOS>ATOM
      1 O1          3.9300   -2.2640    0.7550 o         1 UBC     -0.858800
      2 C10         4.2380   -1.1060    0.3230 c         1 UBC      0.909200
      3 O2          5.2120   -0.4770    0.8460 o         1 UBC     -0.858800
      4 C22         3.4810   -0.5330   -0.8390 ca        1 UBC     -0.093600
      5 C23         2.2030   -1.0460   -1.0960 ca        1 UBC     -0.097000
      6 C24         1.4680   -0.6170   -2.1970 ca        1 UBC     -0.150000
      7 C25         2.0150    0.3240   -3.0690 ca        1 UBC     -0.141000
      8 C26         3.2840    0.8390   -2.8250 ca        1 UBC     -0.133000
      9 C21         4.0240    0.4300   -1.7050 ca        1 UBC     -0.047300
     10 C17         5.3080    1.1490   -1.4250 c3        1 UBC      0.149300
     11 N6          6.5770    0.4470   -1.5850 n         1 UBC     -0.462400
     12 C5          6.6300   -0.9620   -1.6920 c         1 UBC      0.816500
     13 O8          5.7850   -1.6200   -2.3320 o         1 UBC     -0.622500
     14 C1          7.7280    1.1760   -1.1800 c         1 UBC      0.716700
     15 O7          7.6810    2.4220   -1.1490 o         1 UBC     -0.646500
     16 C2          8.9220    0.4080   -0.8240 cc        1 UBC     -0.355200
     17 C3          8.8780   -0.9480   -0.7500 cd        1 UBC      0.058600
     18 N4          7.7550   -1.6550   -1.1350 n         1 UBC     -0.388000
     19 CB          7.6650   -3.0770   -0.9060 c3        1 UBC      0.094000
     20 CA          7.5860   -3.5280    0.5650 c3        1 UBC     -0.067500
     21 N           6.6000   -2.7980    1.3930 n4        1 UBC     -0.841600
     22 C           9.0050   -3.5130    1.2690 c         1 UBC      0.918600
     23 OXT         8.9860   -3.5040    2.5260 o         1 UBC     -0.794800
     24 O          10.0090   -3.5400    0.5180 o         1 UBC     -0.794800
     25 H23         1.8030   -1.8130   -0.4130 ha        1 UBC      0.150000
     26 H24         0.4650   -1.0260   -2.3850 ha        1 UBC      0.114000
     27 H25         1.4480    0.6560   -3.9500 ha        1 UBC      0.112000
     28 H26         3.7140    1.5770   -3.5190 ha        1 UBC      0.121000
     29 H171        5.3810    2.0550   -2.0980 h1        1 UBC      0.071700
     30 H172        5.2620    1.5080   -0.3490 h1        1 UBC      0.071700
     31 H2          9.8190    0.9810   -0.5670 ha        1 UBC      0.166000
     32 H3          9.7280   -1.5690   -0.3820 h4        1 UBC      0.212000
     33 HB1         6.7650   -3.4670   -1.4640 h1        1 UBC      0.093200
     34 HB2         8.6000   -3.5640   -1.3180 h1        1 UBC      0.093200
     35 HA          7.2730   -4.6130    0.5460 hx        1 UBC      0.078700
     36 HN1         6.6430   -1.7760    1.2390 hn        1 UBC      0.469133
     37 HN2         5.6230   -3.0780    1.1870 hn        1 UBC      0.469133
     38 HN3         6.8290   -2.9820    2.3760 hn        1 UBC      0.469133
@<TRIPOS>BOND
     1    1    2 1   
     2    2    3 1   
     3    2    4 1   
     4    4    5 ar  
     5    4    9 ar  
     6    5    6 ar  
     7    5   25 1   
     8    6    7 ar  
     9    6   26 1   
    10    7    8 ar  
    11    7   27 1   
    12    8    9 ar  
    13    8   28 1   
    14    9   10 1   
    15   10   11 1   
    16   10   29 1   
    17   10   30 1   
    18   11   12 1   
    19   11   14 1   
    20   12   13 2   
    21   12   18 1   
    22   14   15 2   
    23   14   16 1   
    24   16   17 2   
    25   16   31 1   
    26   17   18 1   
    27   17   32 1   
    28   18   19 1   
    29   19   20 1   
    30   19   33 1   
    31   19   34 1   
    32   20   21 1   
    33   20   22 1   
    34   20   35 1   
    35   21   36 1   
    36   21   37 1   
    37   21   38 1   
    38   22   23 1   
    39   22   24 1   
@<TRIPOS>SUBSTRUCTURE
     1 UBC         1 TEMP              0 ****  ****    0 ROOT
