@<TRIPOS>MOLECULE
UBC
   37    38     1     0     0
SMALL
bcc


@<TRIPOS>ATOM
      1 O1         -5.7920   -0.5940    1.3030 o         1 UBC     -0.838800
      2 C10        -4.5310   -0.5030    1.2120 c         1 UBC      0.907200
      3 O2         -3.7610   -0.6180    2.2070 o         1 UBC     -0.838800
      4 C22        -3.9420   -0.2610   -0.1720 ca        1 UBC     -0.122600
      5 C23        -4.8120   -0.3860   -1.2620 ca        1 UBC     -0.111000
      6 C24        -4.3690   -0.1970   -2.5680 ca        1 UBC     -0.176000
      7 C25        -3.0330    0.1230   -2.8000 ca        1 UBC     -0.154000
      8 C26        -2.1550    0.2530   -1.7260 ca        1 UBC     -0.145000
      9 C21        -2.5940    0.0690   -0.4090 ca        1 UBC     -0.048300
     10 C17        -1.6720    0.1950    0.7710 c3        1 UBC      0.130300
     11 N6         -0.3270    0.6930    0.5190 n         1 UBC     -0.478400
     12 C5          0.6890   -0.2370    0.2020 c         1 UBC      0.791500
     13 O8          0.4570   -1.4670    0.1730 o         1 UBC     -0.655500
     14 C1         -0.0560    2.0800    0.5820 c         1 UBC      0.712700
     15 O7         -0.9550    2.8870    0.8910 o         1 UBC     -0.645500
     16 C2          1.3150    2.4970    0.2840 cc        1 UBC     -0.380200
     17 C3          2.2760    1.5870   -0.0300 cd        1 UBC      0.048600
     18 N4          2.0090    0.2340   -0.0670 n         1 UBC     -0.370000
     19 CB          3.0320   -0.7180   -0.4610 c3        1 UBC      0.067000
     20 CA          4.4170   -0.5690    0.2260 c3        1 UBC      0.019500
     21 N           4.4140   -0.1960    1.6210 n3        1 UBC     -0.902800
     22 C           5.3070    0.3640   -0.6620 c         1 UBC      0.911600
     23 OXT         5.3440    1.6010   -0.3920 o         1 UBC     -0.837300
     24 O           5.9240   -0.1770   -1.6170 o         1 UBC     -0.837300
     25 H23        -5.8660   -0.6330   -1.0520 ha        1 UBC      0.147000
     26 H24        -5.0660   -0.2980   -3.4100 ha        1 UBC      0.095000
     27 H25        -2.6680    0.2710   -3.8250 ha        1 UBC      0.099000
     28 H26        -1.1040    0.4990   -1.9360 ha        1 UBC      0.116000
     29 H171       -1.5960   -0.8240    1.2580 h1        1 UBC      0.115200
     30 H172       -2.1580    0.8910    1.5210 h1        1 UBC      0.115200
     31 H2          1.5240    3.5700    0.3260 ha        1 UBC      0.158000
     32 H3          3.3330    1.8780   -0.2610 h4        1 UBC      0.232000
     33 HB1         3.1950   -0.6240   -1.5740 h1        1 UBC      0.066700
     34 HB2         2.6370   -1.7520   -0.2470 h1        1 UBC      0.066700
     35 HA          4.8780   -1.6010    0.1670 h1        1 UBC      0.057700
     36 HN1         4.5620    0.7940    1.7030 hn        1 UBC      0.342300
     37 HN2         3.5410   -0.4280    2.0530 hn        1 UBC      0.342300
@<TRIPOS>BOND
     1    1    2 1   
     2    2    3 1   
     3    2    4 1   
     4    4    5 ar  
     5    4    9 ar  
     6    5    6 ar  
     7    5   25 1   
     8    6    7 ar  
     9    6   26 1   
    10    7    8 ar  
    11    7   27 1   
    12    8    9 ar  
    13    8   28 1   
    14    9   10 1   
    15   10   11 1   
    16   10   29 1   
    17   10   30 1   
    18   11   12 1   
    19   11   14 1   
    20   12   13 2   
    21   12   18 1   
    22   14   15 2   
    23   14   16 1   
    24   16   17 2   
    25   16   31 1   
    26   17   18 1   
    27   17   32 1   
    28   18   19 1   
    29   19   20 1   
    30   19   33 1   
    31   19   34 1   
    32   20   21 1   
    33   20   22 1   
    34   20   35 1   
    35   21   36 1   
    36   21   37 1   
    37   22   23 1   
    38   22   24 1   
@<TRIPOS>SUBSTRUCTURE
     1 UBC         1 TEMP              0 ****  ****    0 ROOT
