@<TRIPOS>MOLECULE
UBD
   35    36     1     0     0
SMALL
bcc


@<TRIPOS>ATOM
      1 C2          3.4540   -0.6620    0.9700 c         1 UBD      0.717100
      2 C4          5.2050   -1.1920   -0.7060 c         1 UBD      0.664300
      3 C5          4.3770   -0.5350   -1.6680 ce        1 UBD     -0.572300
      4 C6          3.1320   -0.0020   -1.3410 c1        1 UBD     -0.076900
      5 N1          2.6670   -0.0810   -0.0590 n         1 UBD     -0.297400
      6 O2          3.1690   -0.6690    2.1980 o         1 UBD     -0.697100
      7 P1         -2.1630   -3.4220    0.1280 p5        1 UBD      1.445800
      8 O1P        -2.9640   -4.2440    1.0700 o         1 UBD     -0.869000
      9 O2P        -0.5860   -3.6030    0.5010 oh        1 UBD     -0.807400
     10 O3P        -2.3300   -3.5860   -1.3360 o         1 UBD     -0.869000
     11 O5'        -2.2870   -1.8450    0.5520 os        1 UBD     -0.604200
     12 C5'        -1.7750   -0.8670   -0.3150 c3        1 UBD      0.178400
     13 C4'        -0.9170    0.1500    0.4480 c3        1 UBD      0.076100
     14 O4'         0.3890   -0.4400    0.6650 os        1 UBD     -0.458600
     15 C3'        -0.7570    1.5170   -0.3170 c3        1 UBD      0.224100
     16 O3'        -1.0140    2.5720    0.5040 os        1 UBD     -0.547200
     17 C2'         0.7300    1.4120   -0.7820 c3        1 UBD      0.099100
     18 O2'         1.3800    2.6530   -0.8980 oh        1 UBD     -0.557800
     19 C1'         1.3950    0.5380    0.3220 c3        1 UBD      0.286500
     20 N3          4.6960   -1.2360    0.6110 n         1 UBD     -0.604500
     21 O4          6.3450   -1.7200   -0.8880 o         1 UBD     -0.797100
     22 O4P        -2.5520    3.3330   -1.4010 o         1 UBD     -0.937833
     23 O5P        -3.3120    3.5270    1.0190 o         1 UBD     -0.937833
     24 O6P        -1.5130    5.0700    0.1460 o         1 UBD     -0.937833
     25 H5          4.7440   -0.4710   -2.6930 ha        1 UBD      0.111000
     26 H6         -0.1090   -2.7820    0.6030 ho        1 UBD      0.456000
     27 H5'1       -1.1790   -1.3630   -1.1290 h1        1 UBD      0.035700
     28 H5'2       -2.6430   -0.3040   -0.7640 h1        1 UBD      0.035700
     29 H4'        -1.3520    0.3340    1.4650 h1        1 UBD      0.077700
     30 H3'        -1.4230    1.5470   -1.2290 h1        1 UBD      0.081700
     31 H2'         0.7640    0.8650   -1.7650 h1        1 UBD      0.042700
     32 HO2'        2.2340    2.4400   -1.3020 ho        1 UBD      0.371000
     33 H1'         1.5890    1.1530    1.2510 h2        1 UBD      0.062700
     34 HN3         5.2150   -1.6790    1.3290 hn        1 UBD      0.283500
     35 P2         -2.2130    3.7420    0.0110 p5        1 UBD      1.324900
@<TRIPOS>BOND
     1    1    5 1   
     2    1    6 2   
     3    1   20 1   
     4    2    3 1   
     5    2   20 1   
     6    2   21 2   
     7    3    4 2   
     8    3   25 1   
     9    4    5 2   
    10    5   19 1   
    11    7    8 1   
    12    7    9 1   
    13    7   10 1   
    14    7   11 1   
    15    9   26 1   
    16   11   12 1   
    17   12   13 1   
    18   12   27 1   
    19   12   28 1   
    20   13   14 1   
    21   13   15 1   
    22   13   29 1   
    23   14   19 1   
    24   15   16 1   
    25   15   17 1   
    26   15   30 1   
    27   16   35 1   
    28   17   18 1   
    29   17   19 1   
    30   17   31 1   
    31   18   32 1   
    32   19   33 1   
    33   20   34 1   
    34   22   35 1   
    35   23   35 1   
    36   24   35 1   
@<TRIPOS>SUBSTRUCTURE
     1 UBD         1 TEMP              0 ****  ****    0 ROOT
