@<TRIPOS>MOLECULE
UBE
   48    50     1     0     0
SMALL
bcc


@<TRIPOS>ATOM
      1 O24         1.7940    3.0020   -3.9450 o         1 UBE     -0.841800
      2 C22         1.8020    1.9810   -4.6950 c         1 UBE      0.925200
      3 O23         1.0360    1.9330   -5.7100 o         1 UBE     -0.841800
      4 C21         2.6930    0.8240   -4.3990 cc        1 UBE     -0.082700
      5 S20         4.3570    0.9620   -4.4540 ss        1 UBE      0.057200
      6 C19         4.6320   -0.6550   -4.0740 cc        1 UBE     -0.124100
      7 C25         5.9500   -1.2270   -3.9650 ca        1 UBE      0.032000
      8 C30         7.0580   -0.4130   -3.6710 ca        1 UBE     -0.132500
      9 C29         8.3320   -0.9630   -3.5660 ca        1 UBE     -0.129000
     10 C28         8.5240   -2.3330   -3.7490 ca        1 UBE     -0.150000
     11 C27         7.4320   -3.1490   -4.0420 ca        1 UBE     -0.129000
     12 C26         6.1550   -2.6040   -4.1520 ca        1 UBE     -0.132500
     13 C18         3.4320   -1.3240   -3.8960 cd        1 UBE     -0.117000
     14 C17         2.3010   -0.4660   -4.0780 cd        1 UBE     -0.146300
     15 C16         0.9240   -0.9880   -3.8470 c3        1 UBE      0.172300
     16 N3         -0.0790   -0.6640   -4.8460 n         1 UBE     -0.458400
     17 C4         -0.9180    0.4470   -4.6130 c         1 UBE      0.836500
     18 O15        -0.9990    0.9830   -3.4800 o         1 UBE     -0.686500
     19 C2         -0.0430   -1.3040   -6.1090 c         1 UBE      0.735700
     20 O14         0.6440   -2.3320   -6.2580 o         1 UBE     -0.636500
     21 C1         -0.8850   -0.7300   -7.1740 cc        1 UBE     -0.267400
     22 C13        -0.7910   -1.3450   -8.5120 c3        1 UBE     -0.020900
     23 C6         -1.6690    0.3530   -6.9150 cd        1 UBE      0.060600
     24 N5         -1.7840    0.8960   -5.6480 n         1 UBE     -0.360000
     25 C7         -2.5780    2.0870   -5.4250 c3        1 UBE      0.091000
     26 C8         -1.8690    3.4270   -5.6730 c3        1 UBE     -0.061500
     27 N9         -0.7970    3.7240   -4.6920 nz        1 UBE     -0.830600
     28 C10        -2.9830    4.5600   -5.6840 c         1 UBE      0.924600
     29 O11        -3.9600    4.3450   -6.4350 o         1 UBE     -0.792300
     30 O12        -2.7690    5.5620   -4.9550 o         1 UBE     -0.792300
     31 H30         6.9100    0.6680   -3.5220 ha        1 UBE      0.137000
     32 H29         9.1890   -0.3150   -3.3350 ha        1 UBE      0.122000
     33 H28         9.5300   -2.7650   -3.6640 ha        1 UBE      0.120000
     34 H27         7.5780   -4.2290   -4.1910 ha        1 UBE      0.122000
     35 H26         5.2980   -3.2510   -4.3930 ha        1 UBE      0.137000
     36 H18         3.3360   -2.3830   -3.6470 ha        1 UBE      0.144000
     37 H161        0.5600   -0.5950   -2.8510 h1        1 UBE      0.074200
     38 H162        0.9700   -2.1160   -3.8000 h1        1 UBE      0.074200
     39 H131       -0.8560   -2.4590   -8.4270 hc        1 UBE      0.041367
     40 H132       -1.6080   -0.9830   -9.1820 hc        1 UBE      0.041367
     41 H133        0.1950   -1.0930   -8.9790 hc        1 UBE      0.041367
     42 H6         -2.2810    0.8380   -7.7000 h4        1 UBE      0.161000
     43 H71        -2.9630    2.0510   -4.3650 h1        1 UBE      0.096200
     44 H72        -3.4640    2.0660   -6.1280 h1        1 UBE      0.096200
     45 H8         -1.3970    3.4240   -6.6970 hx        1 UBE      0.094700
     46 HN91        0.1400    3.6700   -5.1390 hn        1 UBE      0.466133
     47 HN92       -0.9580    4.6690   -4.3170 hn        1 UBE      0.466133
     48 H93        -0.7850    3.0470   -3.9220 hn        1 UBE      0.466133
@<TRIPOS>BOND
     1    1    2 1   
     2    2    3 1   
     3    2    4 1   
     4    4    5 1   
     5    4   14 2   
     6    5    6 1   
     7    6    7 1   
     8    6   13 2   
     9    7    8 ar  
    10    7   12 ar  
    11    8    9 ar  
    12    8   31 1   
    13    9   10 ar  
    14    9   32 1   
    15   10   11 ar  
    16   10   33 1   
    17   11   12 ar  
    18   11   34 1   
    19   12   35 1   
    20   13   14 1   
    21   13   36 1   
    22   14   15 1   
    23   15   16 1   
    24   15   37 1   
    25   15   38 1   
    26   16   17 1   
    27   16   19 1   
    28   17   18 2   
    29   17   24 1   
    30   19   20 2   
    31   19   21 1   
    32   21   22 1   
    33   21   23 2   
    34   22   39 1   
    35   22   40 1   
    36   22   41 1   
    37   23   24 1   
    38   23   42 1   
    39   24   25 1   
    40   25   26 1   
    41   25   43 1   
    42   25   44 1   
    43   26   27 1   
    44   26   28 1   
    45   26   45 1   
    46   27   46 1   
    47   27   47 1   
    48   27   48 1   
    49   28   29 1   
    50   28   30 1   
@<TRIPOS>SUBSTRUCTURE
     1 UBE         1 TEMP              0 ****  ****    0 ROOT
