@<TRIPOS>MOLECULE
UBE
   48    50     1     0     0
SMALL
bcc


@<TRIPOS>ATOM
      1 O24         1.8760    2.9890   -3.9340 o         1 UBE     -0.841800
      2 C22         1.8530    1.9710   -4.6890 c         1 UBE      0.925200
      3 O23         1.0850    1.9500   -5.7020 o         1 UBE     -0.841800
      4 C21         2.7090    0.7860   -4.3980 cc        1 UBE     -0.082700
      5 S20         4.3750    0.8740   -4.4530 ss        1 UBE      0.057200
      6 C19         4.6020   -0.7520   -4.0800 cc        1 UBE     -0.124100
      7 C25         5.9020   -1.3640   -3.9740 ca        1 UBE      0.032000
      8 C30         7.0340   -0.5850   -3.6780 ca        1 UBE     -0.132500
      9 C29         8.2910   -1.1740   -3.5760 ca        1 UBE     -0.129000
     10 C28         8.4410   -2.5470   -3.7650 ca        1 UBE     -0.150000
     11 C27         7.3250   -3.3300   -4.0600 ca        1 UBE     -0.129000
     12 C26         6.0650   -2.7460   -4.1670 ca        1 UBE     -0.132500
     13 C18         3.3820   -1.3850   -3.9040 cd        1 UBE     -0.117000
     14 C17         2.2780   -0.4920   -4.0810 cd        1 UBE     -0.146300
     15 C16         0.8850   -0.9730   -3.8510 c3        1 UBE      0.172300
     16 N3         -0.1080   -0.6160   -4.8490 n         1 UBE     -0.458400
     17 C4         -0.9120    0.5200   -4.6100 c         1 UBE      0.836500
     18 O15        -0.9770    1.0530   -3.4750 o         1 UBE     -0.686500
     19 C2         -0.0920   -1.2510   -6.1140 c         1 UBE      0.735700
     20 O14         0.5640   -2.2990   -6.2680 o         1 UBE     -0.636500
     21 C1         -0.9170   -0.6480   -7.1760 cc        1 UBE     -0.267400
     22 C13        -0.8420   -1.2600   -8.5170 c3        1 UBE     -0.020900
     23 C6         -1.6670    0.4580   -6.9120 cd        1 UBE      0.060600
     24 N5         -1.7650    0.9990   -5.6430 n         1 UBE     -0.360000
     25 C7         -2.5230    2.2120   -5.4150 c3        1 UBE      0.091000
     26 C8         -1.7740    3.5310   -5.6590 c3        1 UBE     -0.061500
     27 N9         -0.6930    3.7920   -4.6770 n4        1 UBE     -0.830600
     28 C10        -2.8520    4.6970   -5.6630 c         1 UBE      0.924600
     29 O11        -3.8360    4.5150   -6.4150 o         1 UBE     -0.792300
     30 O12        -2.6080    5.6900   -4.9310 o         1 UBE     -0.792300
     31 H30         6.9190    0.5000   -3.5240 ha        1 UBE      0.137000
     32 H29         9.1680   -0.5520   -3.3440 ha        1 UBE      0.122000
     33 H28         9.4340   -3.0100   -3.6820 ha        1 UBE      0.120000
     34 H27         7.4390   -4.4120   -4.2130 ha        1 UBE      0.122000
     35 H26         5.1890   -3.3650   -4.4100 ha        1 UBE      0.137000
     36 H18         3.2550   -2.4420   -3.6590 ha        1 UBE      0.144000
     37 H161        0.5340   -0.5730   -2.8530 h1        1 UBE      0.074200
     38 H162        0.8980   -2.1030   -3.8090 h1        1 UBE      0.074200
     39 H131       -0.9390   -2.3720   -8.4360 hc        1 UBE      0.041367
     40 H132       -1.6480   -0.8710   -9.1850 hc        1 UBE      0.041367
     41 H133        0.1510   -1.0350   -8.9830 hc        1 UBE      0.041367
     42 H6         -2.2640    0.9640   -7.6950 h4        1 UBE      0.161000
     43 H71        -3.4090    2.2210   -6.1170 h1        1 UBE      0.096200
     44 H72        -2.9080    2.1830   -4.3550 h1        1 UBE      0.096200
     45 H8         -1.3030    3.5180   -6.6820 hx        1 UBE      0.094700
     46 HN91       -0.8250    4.7390   -4.2980 hn        1 UBE      0.466133
     47 HN92       -0.7000    3.1110   -3.9090 hn        1 UBE      0.466133
     48 H93         0.2420    3.7110   -5.1250 hn        1 UBE      0.466133
@<TRIPOS>BOND
     1    1    2 1   
     2    2    3 1   
     3    2    4 1   
     4    4    5 1   
     5    4   14 2   
     6    5    6 1   
     7    6    7 1   
     8    6   13 2   
     9    7    8 ar  
    10    7   12 ar  
    11    8    9 ar  
    12    8   31 1   
    13    9   10 ar  
    14    9   32 1   
    15   10   11 ar  
    16   10   33 1   
    17   11   12 ar  
    18   11   34 1   
    19   12   35 1   
    20   13   14 1   
    21   13   36 1   
    22   14   15 1   
    23   15   16 1   
    24   15   37 1   
    25   15   38 1   
    26   16   17 1   
    27   16   19 1   
    28   17   18 2   
    29   17   24 1   
    30   19   20 2   
    31   19   21 1   
    32   21   22 1   
    33   21   23 2   
    34   22   39 1   
    35   22   40 1   
    36   22   41 1   
    37   23   24 1   
    38   23   42 1   
    39   24   25 1   
    40   25   26 1   
    41   25   43 1   
    42   25   44 1   
    43   26   27 1   
    44   26   28 1   
    45   26   45 1   
    46   27   46 1   
    47   27   47 1   
    48   27   48 1   
    49   28   29 1   
    50   28   30 1   
@<TRIPOS>SUBSTRUCTURE
     1 UBE         1 TEMP              0 ****  ****    0 ROOT
