@<TRIPOS>MOLECULE
UBE
   48    50     1     0     0
SMALL
bcc


@<TRIPOS>ATOM
      1 O24         1.8580    2.9760   -3.8980 o         1 UBE     -0.841800
      2 C22         1.8430    1.9680   -4.6660 c         1 UBE      0.925200
      3 O23         1.0800    1.9560   -5.6830 o         1 UBE     -0.841800
      4 C21         2.7040    0.7830   -4.3870 cc        1 UBE     -0.082700
      5 S20         4.3700    0.8800   -4.4340 ss        1 UBE      0.057200
      6 C19         4.6030   -0.7510   -4.0810 cc        1 UBE     -0.124100
      7 C25         5.9050   -1.3580   -3.9780 ca        1 UBE      0.032000
      8 C30         7.0320   -0.5770   -3.6660 ca        1 UBE     -0.132500
      9 C29         8.2920   -1.1620   -3.5670 ca        1 UBE     -0.129000
     10 C28         8.4490   -2.5320   -3.7730 ca        1 UBE     -0.150000
     11 C27         7.3380   -3.3150   -4.0830 ca        1 UBE     -0.129000
     12 C26         6.0760   -2.7360   -4.1880 ca        1 UBE     -0.132500
     13 C18         3.3850   -1.3910   -3.9180 cd        1 UBE     -0.117000
     14 C17         2.2780   -0.5010   -4.0880 cd        1 UBE     -0.146300
     15 C16         0.8860   -0.9920   -3.8710 c3        1 UBE      0.172300
     16 N3         -0.1050   -0.6260   -4.8680 n         1 UBE     -0.458400
     17 C4         -0.9150    0.5030   -4.6180 c         1 UBE      0.836500
     18 O15        -0.9870    1.0200   -3.4760 o         1 UBE     -0.686500
     19 C2         -0.0800   -1.2450   -6.1410 c         1 UBE      0.735700
     20 O14         0.5810   -2.2880   -6.3060 o         1 UBE     -0.636500
     21 C1         -0.9030   -0.6320   -7.1990 cc        1 UBE     -0.267400
     22 C13        -0.8200   -1.2260   -8.5470 c3        1 UBE     -0.020900
     23 C6         -1.6600    0.4670   -6.9240 cd        1 UBE      0.060600
     24 N5         -1.7660    0.9910   -5.6480 n         1 UBE     -0.360000
     25 C7         -2.5300    2.1980   -5.4080 c3        1 UBE      0.091000
     26 C8         -1.7860    3.5230   -5.6310 c3        1 UBE     -0.061500
     27 N9         -0.7110    3.7760   -4.6410 n4        1 UBE     -0.830600
     28 C10        -2.8700    4.6840   -5.6250 c         1 UBE      0.924600
     29 O11        -3.8500    4.5080   -6.3830 o         1 UBE     -0.792300
     30 O12        -2.6340    5.6680   -4.8790 o         1 UBE     -0.792300
     31 H30         6.9120    0.5050   -3.4980 ha        1 UBE      0.137000
     32 H29         9.1640   -0.5390   -3.3220 ha        1 UBE      0.122000
     33 H28         9.4440   -2.9910   -3.6920 ha        1 UBE      0.120000
     34 H27         7.4570   -4.3960   -4.2510 ha        1 UBE      0.122000
     35 H26         5.2040   -3.3560   -4.4430 ha        1 UBE      0.137000
     36 H18         3.2620   -2.4510   -3.6880 ha        1 UBE      0.144000
     37 H161        0.5290   -0.6060   -2.8690 h1        1 UBE      0.074200
     38 H162        0.9040   -2.1210   -3.8430 h1        1 UBE      0.074200
     39 H131       -0.9130   -2.3400   -8.4810 hc        1 UBE      0.041367
     40 H132        0.1740   -0.9910   -9.0060 hc        1 UBE      0.041367
     41 H133       -1.6250   -0.8320   -9.2130 hc        1 UBE      0.041367
     42 H6         -2.2560    0.9800   -7.7030 h4        1 UBE      0.161000
     43 H71        -2.9190    2.1530   -4.3490 h1        1 UBE      0.096200
     44 H72        -3.4140    2.2110   -6.1130 h1        1 UBE      0.096200
     45 H8         -1.3110    3.5250   -6.6530 hx        1 UBE      0.094700
     46 HN91       -0.8490    4.7180   -4.2500 hn        1 UBE      0.466133
     47 HN92       -0.7190    3.0860   -3.8820 hn        1 UBE      0.466133
     48 H93         0.2260    3.7060   -5.0860 hn        1 UBE      0.466133
@<TRIPOS>BOND
     1    1    2 1   
     2    2    3 1   
     3    2    4 1   
     4    4    5 1   
     5    4   14 2   
     6    5    6 1   
     7    6    7 1   
     8    6   13 2   
     9    7    8 ar  
    10    7   12 ar  
    11    8    9 ar  
    12    8   31 1   
    13    9   10 ar  
    14    9   32 1   
    15   10   11 ar  
    16   10   33 1   
    17   11   12 ar  
    18   11   34 1   
    19   12   35 1   
    20   13   14 1   
    21   13   36 1   
    22   14   15 1   
    23   15   16 1   
    24   15   37 1   
    25   15   38 1   
    26   16   17 1   
    27   16   19 1   
    28   17   18 2   
    29   17   24 1   
    30   19   20 2   
    31   19   21 1   
    32   21   22 1   
    33   21   23 2   
    34   22   39 1   
    35   22   40 1   
    36   22   41 1   
    37   23   24 1   
    38   23   42 1   
    39   24   25 1   
    40   25   26 1   
    41   25   43 1   
    42   25   44 1   
    43   26   27 1   
    44   26   28 1   
    45   26   45 1   
    46   27   46 1   
    47   27   47 1   
    48   27   48 1   
    49   28   29 1   
    50   28   30 1   
@<TRIPOS>SUBSTRUCTURE
     1 UBE         1 TEMP              0 ****  ****    0 ROOT
