@<TRIPOS>MOLECULE
UBE
   47    42     1     0     0
SMALL
bcc


@<TRIPOS>ATOM
      1 O24        -3.9070    3.0920    1.5660 o         1 UBE     -0.545000
      2 C22        -2.6930    3.0960    1.9140 c1        1 UBE      0.381000
      3 O23        -2.3890    3.1380    3.1340 os        1 UBE     -0.573000
      4 C21        -1.5880    2.9480    0.8510 c2        1 UBE     -0.349000
      5 S20        -0.5170    4.0140    0.4930 ss        1 UBE      0.570000
      6 C19         0.3900    3.4140   -0.6100 c2        1 UBE     -0.429000
      7 C25         1.4020    4.1000   -1.3070 c1        1 UBE      0.060000
      8 C30         1.0890    4.8200   -2.4510 c1        1 UBE     -0.153000
      9 C29         2.0650    5.5790   -3.0830 c1        1 UBE     -0.141000
     10 C28         3.3570    5.6180   -2.5700 c1        1 UBE     -0.141000
     11 C27         3.6720    4.8980   -1.4260 c1        1 UBE     -0.141000
     12 C26         2.6980    4.1400   -0.7930 c1        1 UBE     -0.141000
     13 C18        -0.0940    2.0700   -0.9060 c1        1 UBE     -0.109000
     14 C17        -1.3500    1.7760    0.0210 c1        1 UBE     -0.122000
     15 C16        -2.1780    0.4710    0.0390 c2        1 UBE      0.036000
     16 N3         -1.3640   -0.6270    0.6330 n         1 UBE     -0.307000
     17 C4         -0.7810   -1.6440   -0.2280 c2        1 UBE      0.382000
     18 O15        -0.7740   -1.4890   -1.4220 o         1 UBE     -0.369000
     19 C2         -1.2820   -0.7620    2.0480 c2        1 UBE      0.358000
     20 O14        -1.7950    0.0850    2.7750 o         1 UBE     -0.361000
     21 C1         -0.7190   -1.9860    2.6350 c2        1 UBE     -0.305000
     22 C13        -0.6590   -2.1450    4.1410 c3        1 UBE     -0.129000
     23 C6         -0.1750   -3.0380    1.7590 c1        1 UBE      0.075000
     24 N5         -0.1500   -2.8480    0.3670 n2        1 UBE     -0.251000
     25 C7          0.5910   -3.7410   -0.4570 c3        1 UBE     -0.016000
     26 C8         -0.1670   -5.0590   -0.5940 c3        1 UBE     -0.147000
     27 N9          0.7200   -6.1560   -0.3020 n3        1 UBE     -0.331000
     28 C10        -0.6840   -5.1900   -1.9870 c2        1 UBE      0.316000
     29 O11         0.0860   -4.9900   -2.9650 o         1 UBE     -0.568500
     30 O12        -1.8910   -5.4390   -2.1840 o         1 UBE     -0.568500
     31 H30         0.1790    4.7930   -2.8120 ha        1 UBE      0.134000
     32 H29         1.8430    6.0880   -3.8930 ha        1 UBE      0.120250
     33 H28         4.0560    6.1600   -3.0240 ha        1 UBE      0.120250
     34 H27         4.5880    4.8800   -1.1020 ha        1 UBE      0.120250
     35 H26         2.9030    3.6860    0.0550 ha        1 UBE      0.120250
     36 H18         0.2630    1.4740   -1.5820 DU        1 UBE      0.141000
     37 H161       -2.4320    0.2310   -0.8840 h4        1 UBE      0.147000
     38 H162       -2.9950    0.6070    0.5830 h4        1 UBE      0.147000
     39 H131       -1.5420   -1.9710    4.5220 hc        1 UBE      0.070333
     40 H132       -0.0170   -1.5130    4.5080 hc        1 UBE      0.070333
     41 H133       -0.3780   -3.0690    4.3650 hc        1 UBE      0.070333
     42 H6          0.2000   -3.8520    2.1470 ha        1 UBE      0.173000
     43 H71         1.4590   -3.9070   -0.0550 h1        1 UBE      0.119000
     44 H72         0.7150   -3.3370   -1.3520 h1        1 UBE      0.119000
     45 H8         -0.9240   -5.0710    0.0410 h1        1 UBE      0.080000
     46 HN91        0.7610   -6.7290   -1.0380 hn        1 UBE      0.134500
     47 HN92        0.4080   -6.6170    0.4280 hn        1 UBE      0.134500
@<TRIPOS>BOND
     1    1    2 1   
     2    2    4 1   
     3    4    5 1   
     4    4   14 1   
     5    5    6 1   
     6    6    7 1   
     7    6   13 1   
     8    7    8 1   
     9    8   31 1   
    10    9   10 1   
    11    9   32 1   
    12   10   33 1   
    13   11   12 1   
    14   11   34 1   
    15   12   35 1   
    16   13   14 1   
    17   15   16 1   
    18   15   37 1   
    19   15   38 1   
    20   16   17 1   
    21   16   19 1   
    22   17   18 1   
    23   17   24 1   
    24   19   20 1   
    25   19   21 1   
    26   21   22 1   
    27   21   23 1   
    28   22   39 1   
    29   22   40 1   
    30   22   41 1   
    31   23   42 1   
    32   24   25 1   
    33   25   26 1   
    34   25   43 1   
    35   25   44 1   
    36   26   27 1   
    37   26   28 1   
    38   26   45 1   
    39   27   46 1   
    40   27   47 1   
    41   28   29 1   
    42   28   30 1   
@<TRIPOS>SUBSTRUCTURE
     1 UBE         1 TEMP              0 ****  ****    0 ROOT
