@<TRIPOS>MOLECULE
UBE
   47    49     1     0     0
SMALL
bcc


@<TRIPOS>ATOM
      1 O24        -3.3020   -3.5330   -0.6930 o         1 UBE     -0.825800
      2 C22        -3.9670   -2.4760   -0.5120 c         1 UBE      0.932200
      3 O23        -5.2310   -2.4220   -0.5390 o         1 UBE     -0.825800
      4 C21        -3.2160   -1.1890   -0.2560 cc        1 UBE     -0.100700
      5 S20        -4.0000    0.2880   -0.1920 ss        1 UBE      0.024200
      6 C19        -2.5910    1.1700    0.0910 cc        1 UBE     -0.155100
      7 C25        -2.5770    2.6000    0.2500 ca        1 UBE      0.057000
      8 C30        -3.7790    3.3040    0.4490 ca        1 UBE     -0.142500
      9 C29        -3.7760    4.6870    0.6020 ca        1 UBE     -0.130000
     10 C28        -2.5770    5.3970    0.5620 ca        1 UBE     -0.171000
     11 C27        -1.3790    4.7110    0.3650 ca        1 UBE     -0.130000
     12 C26        -1.3740    3.3280    0.2080 ca        1 UBE     -0.142500
     13 C18        -1.4900    0.3260    0.1400 cd        1 UBE     -0.109000
     14 C17        -1.8490   -1.0400   -0.0550 cd        1 UBE     -0.131300
     15 C16        -0.9080   -2.1950   -0.0800 c3        1 UBE      0.160300
     16 N3          0.4170   -1.9650    0.4810 n         1 UBE     -0.477400
     17 C4          1.4530   -1.5400   -0.3850 c         1 UBE      0.800500
     18 O15         1.2540   -1.3900   -1.6110 o         1 UBE     -0.646500
     19 C2          0.6450   -2.1710    1.8590 c         1 UBE      0.718700
     20 O14        -0.2670   -2.5950    2.5940 o         1 UBE     -0.634500
     21 C1          2.0010   -1.8890    2.3600 cc        1 UBE     -0.317400
     22 C13         2.2370   -2.0550    3.8060 c3        1 UBE     -0.009900
     23 C6          2.9750   -1.4800    1.4970 cd        1 UBE      0.066600
     24 N5          2.7570   -1.3360    0.1460 n         1 UBE     -0.355000
     25 C7          3.8450   -0.8850   -0.7100 c3        1 UBE      0.089000
     26 C8          4.4230    0.5000   -0.3620 c3        1 UBE      0.005500
     27 N9          3.5100    1.5970   -0.6260 n3        1 UBE     -0.895800
     28 C10         5.8210    0.6030   -1.0660 c         1 UBE      0.893600
     29 O11         6.0710    1.6350   -1.7480 o         1 UBE     -0.839300
     30 O12         6.6300   -0.3470   -0.8750 o         1 UBE     -0.839300
     31 H30        -4.7290    2.7480    0.4840 ha        1 UBE      0.141500
     32 H29        -4.7250    5.2200    0.7570 ha        1 UBE      0.114500
     33 H28        -2.5760    6.4880    0.6840 ha        1 UBE      0.108000
     34 H27        -0.4280    5.2640    0.3300 ha        1 UBE      0.114500
     35 H26        -0.4230    2.7980    0.0460 ha        1 UBE      0.141500
     36 H18        -0.4610    0.6550    0.3060 ha        1 UBE      0.146000
     37 H161       -1.3870   -3.0500    0.4910 h1        1 UBE      0.106700
     38 H162       -0.7880   -2.5260   -1.1550 h1        1 UBE      0.106700
     39 H131        1.7450   -1.2260    4.3740 hc        1 UBE      0.032033
     40 H132        1.7930   -3.0200    4.1580 hc        1 UBE      0.032033
     41 H133        3.3300   -2.0490    4.0410 hc        1 UBE      0.032033
     42 H6          4.0060   -1.2590    1.8390 h4        1 UBE      0.163000
     43 H71         4.6880   -1.6310   -0.6120 h1        1 UBE      0.084200
     44 H72         3.4800   -0.8930   -1.7760 h1        1 UBE      0.084200
     45 H8          4.6460    0.5420    0.7460 h1        1 UBE      0.040700
     46 HN91        4.0640    2.4130   -0.8330 hn        1 UBE      0.341300
     47 HN92        2.9700    1.3950   -1.4490 hn        1 UBE      0.341300
@<TRIPOS>BOND
     1    1    2 1   
     2    2    3 1   
     3    2    4 1   
     4    4    5 1   
     5    4   14 2   
     6    5    6 1   
     7    6    7 1   
     8    6   13 2   
     9    7    8 ar  
    10    7   12 ar  
    11    8    9 ar  
    12    8   31 1   
    13    9   10 ar  
    14    9   32 1   
    15   10   11 ar  
    16   10   33 1   
    17   11   12 ar  
    18   11   34 1   
    19   12   35 1   
    20   13   14 1   
    21   13   36 1   
    22   14   15 1   
    23   15   16 1   
    24   15   37 1   
    25   15   38 1   
    26   16   17 1   
    27   16   19 1   
    28   17   18 2   
    29   17   24 1   
    30   19   20 2   
    31   19   21 1   
    32   21   22 1   
    33   21   23 2   
    34   22   39 1   
    35   22   40 1   
    36   22   41 1   
    37   23   24 1   
    38   23   42 1   
    39   24   25 1   
    40   25   26 1   
    41   25   43 1   
    42   25   44 1   
    43   26   27 1   
    44   26   28 1   
    45   26   45 1   
    46   27   46 1   
    47   27   47 1   
    48   28   29 1   
    49   28   30 1   
@<TRIPOS>SUBSTRUCTURE
     1 UBE         1 TEMP              0 ****  ****    0 ROOT
