@<TRIPOS>MOLECULE
UBF
   34    35     1     0     0
SMALL
bcc


@<TRIPOS>ATOM
      1 O23         6.2540   -0.1040   -0.9060 o         1 UBF     -0.831800
      2 C22         4.9980   -0.1570   -1.0590 c         1 UBF      0.933200
      3 O24         4.4360   -0.3750   -2.1700 o         1 UBF     -0.831800
      4 C21         4.1270    0.0500    0.1540 cc        1 UBF     -0.104700
      5 S20         4.7720    0.3520    1.6820 ss        1 UBF     -0.016800
      6 C19         3.2800    0.4530    2.4240 cc        1 UBF     -0.229100
      7 C18         2.2530    0.2590    1.5280 cd        1 UBF     -0.144000
      8 C17         2.7420    0.0240    0.2020 cd        1 UBF     -0.125300
      9 C16         1.9140   -0.2240   -1.0110 c3        1 UBF      0.163300
     10 N3          0.4670   -0.2340   -0.8200 n         1 UBF     -0.475400
     11 C4         -0.2320    0.9820   -0.9520 c         1 UBF      0.792500
     12 O15         0.3450    2.0380   -1.2930 o         1 UBF     -0.642500
     13 C2         -0.1960   -1.4470   -0.5120 c         1 UBF      0.727700
     14 O14         0.4580   -2.5050   -0.4690 o         1 UBF     -0.619500
     15 C1         -1.6450   -1.3580   -0.2810 cc        1 UBF     -0.294500
     16 BR13       -2.6050   -2.8890    0.1670 br        1 UBF     -0.066700
     17 C6         -2.3000   -0.1590   -0.3900 cd        1 UBF      0.082600
     18 N5         -1.6410    1.0010   -0.7110 n         1 UBF     -0.360000
     19 C7         -2.3660    2.2490   -0.8930 c3        1 UBF      0.062000
     20 C8         -3.3880    2.6280    0.2120 c3        1 UBF      0.017500
     21 N9         -3.0410    2.2860    1.5700 n3        1 UBF     -0.902800
     22 C10        -4.7910    2.0830   -0.2210 c         1 UBF      0.912600
     23 O11        -5.4940    2.8310   -0.9480 o         1 UBF     -0.833300
     24 O12        -5.1270    0.9230    0.1600 o         1 UBF     -0.833300
     25 H19         3.1580    0.6490    3.4850 h4        1 UBF      0.138000
     26 H18         1.1930    0.2770    1.7840 ha        1 UBF      0.133000
     27 H161        2.1710    0.5660   -1.7810 h1        1 UBF      0.107200
     28 H162        2.2150   -1.2260   -1.4440 h1        1 UBF      0.107200
     29 H6         -3.4080   -0.0550   -0.2180 h4        1 UBF      0.248000
     30 H71        -1.6020    3.0750   -0.9690 h1        1 UBF      0.069700
     31 H72        -2.9250    2.1930   -1.8700 h1        1 UBF      0.069700
     32 H8         -3.4530    3.7560    0.1680 h1        1 UBF      0.059700
     33 HN91       -3.4650    1.4090    1.8170 hn        1 UBF      0.343800
     34 HN92       -2.0490    2.2090    1.6810 hn        1 UBF      0.343800
@<TRIPOS>BOND
     1    1    2 1   
     2    2    3 1   
     3    2    4 1   
     4    4    5 1   
     5    4    8 2   
     6    5    6 1   
     7    6    7 2   
     8    6   25 1   
     9    7    8 1   
    10    7   26 1   
    11    8    9 1   
    12    9   10 1   
    13    9   27 1   
    14    9   28 1   
    15   10   11 1   
    16   10   13 1   
    17   11   12 2   
    18   11   18 1   
    19   13   14 2   
    20   13   15 1   
    21   15   16 1   
    22   15   17 2   
    23   17   18 1   
    24   17   29 1   
    25   18   19 1   
    26   19   20 1   
    27   19   30 1   
    28   19   31 1   
    29   20   21 1   
    30   20   22 1   
    31   20   32 1   
    32   21   33 1   
    33   21   34 1   
    34   22   23 1   
    35   22   24 1   
@<TRIPOS>SUBSTRUCTURE
     1 UBF         1 TEMP              0 ****  ****    0 ROOT
