@<TRIPOS>MOLECULE
UBF
   35    36     1     0     0
SMALL
bcc


@<TRIPOS>ATOM
      1 O23         5.5280    1.0740   -3.4950 o         1 UBF     -0.844300
      2 C22         4.3310    0.7740   -3.1840 c         1 UBF      0.931200
      3 O24         3.4160    1.6480   -3.2300 o         1 UBF     -0.844300
      4 C21         4.0280   -0.6120   -2.7290 cc        1 UBF     -0.087700
      5 S20         3.1390   -1.6940   -3.6510 ss        1 UBF      0.030200
      6 C19         3.2560   -2.9290   -2.5340 cc        1 UBF     -0.211100
      7 C18         3.9770   -2.5430   -1.4280 cd        1 UBF     -0.134000
      8 C17         4.4290   -1.1840   -1.5340 cd        1 UBF     -0.152300
      9 C16         5.1730   -0.5410   -0.4160 c3        1 UBF      0.173300
     10 N3          6.4170    0.1280   -0.7700 n         1 UBF     -0.462400
     11 C4          6.3880    1.5270   -0.9640 c         1 UBF      0.841500
     12 O15         5.4470    2.2160   -0.5080 o         1 UBF     -0.669500
     13 C2          7.5450   -0.6570   -1.1140 c         1 UBF      0.744700
     14 O14         7.5560   -1.8640   -0.8170 o         1 UBF     -0.614500
     15 C1          8.6590    0.0540   -1.7620 cc        1 UBF     -0.251500
     16 BR13       10.1790   -0.8770   -2.2940 br        1 UBF     -0.048700
     17 C6          8.5620    1.3950   -2.0110 cd        1 UBF      0.101600
     18 N5          7.4970    2.1620   -1.5910 n         1 UBF     -0.357000
     19 C7          7.5230    3.5840   -1.9020 c3        1 UBF      0.104000
     20 C8          6.2010    4.3470   -2.0090 c3        1 UBF     -0.055500
     21 N9          5.2040    3.7360   -2.9170 n4        1 UBF     -0.830600
     22 C10         6.5640    5.8300   -2.4670 c         1 UBF      0.924600
     23 O11         7.5730    6.3320   -1.9270 o         1 UBF     -0.789300
     24 O12         5.7920    6.3500   -3.3120 o         1 UBF     -0.789300
     25 H19         2.8150   -3.9100   -2.6900 h4        1 UBF      0.154000
     26 H18         4.2050   -3.1750   -0.5680 ha        1 UBF      0.142000
     27 H161        4.4970    0.2200    0.0760 h1        1 UBF      0.076200
     28 H162        5.4440   -1.3330    0.3440 h1        1 UBF      0.076200
     29 H6          9.3640    1.9440   -2.5460 h4        1 UBF      0.166000
     30 H71         8.0780    3.7120   -2.8780 h1        1 UBF      0.081200
     31 H72         8.1110    4.1120   -1.0920 h1        1 UBF      0.081200
     32 H8          5.7270    4.4330   -0.9890 hx        1 UBF      0.108700
     33 HN91        4.7550    4.4900   -3.4530 hn        1 UBF      0.467467
     34 HN92        4.4910    3.2030   -2.3910 hn        1 UBF      0.467467
     35 H93         5.6330    3.0580   -3.5700 hn        1 UBF      0.467467
@<TRIPOS>BOND
     1    1    2 1   
     2    2    3 1   
     3    2    4 1   
     4    4    5 1   
     5    4    8 2   
     6    5    6 1   
     7    6    7 2   
     8    6   25 1   
     9    7    8 1   
    10    7   26 1   
    11    8    9 1   
    12    9   10 1   
    13    9   27 1   
    14    9   28 1   
    15   10   11 1   
    16   10   13 1   
    17   11   12 2   
    18   11   18 1   
    19   13   14 2   
    20   13   15 1   
    21   15   16 1   
    22   15   17 2   
    23   17   18 1   
    24   17   29 1   
    25   18   19 1   
    26   19   20 1   
    27   19   30 1   
    28   19   31 1   
    29   20   21 1   
    30   20   22 1   
    31   20   32 1   
    32   21   33 1   
    33   21   34 1   
    34   21   35 1   
    35   22   23 1   
    36   22   24 1   
@<TRIPOS>SUBSTRUCTURE
     1 UBF         1 TEMP              0 ****  ****    0 ROOT
