@<TRIPOS>MOLECULE
UBF
   35    36     1     0     0
SMALL
bcc


@<TRIPOS>ATOM
      1 O23         3.7300    2.2600   -3.2490 o         1 UBF     -0.838800
      2 C22         3.0020    1.4670   -2.5680 c         1 UBF      0.946200
      3 O24         2.0620    1.8570   -1.8340 o         1 UBF     -0.838800
      4 C21         3.3020   -0.0040   -2.6680 cc        1 UBF     -0.083700
      5 S20         2.7910   -0.9470   -3.9560 ss        1 UBF      0.011200
      6 C19         3.5010   -2.3480   -3.3740 cc        1 UBF     -0.215100
      7 C18         4.1470   -2.1250   -2.1820 cd        1 UBF     -0.127000
      8 C17         4.0240   -0.7570   -1.7610 cd        1 UBF     -0.189300
      9 C16         4.5820   -0.2750   -0.4700 c3        1 UBF      0.167300
     10 N3          5.9550    0.2220   -0.5520 n         1 UBF     -0.469400
     11 C4          6.1480    1.6100   -0.6230 c         1 UBF      0.791500
     12 O15         5.2670    2.4400   -0.3030 o         1 UBF     -0.641500
     13 C2          7.0200   -0.6870   -0.7890 c         1 UBF      0.734700
     14 O14         6.8420   -1.8930   -0.5460 o         1 UBF     -0.604500
     15 C1          8.2800   -0.1090   -1.2900 cc        1 UBF     -0.266500
     16 BR13        9.6810   -1.2310   -1.7760 br        1 UBF     -0.035700
     17 C6          8.4160    1.2450   -1.4290 cd        1 UBF      0.096600
     18 N5          7.4200    2.1110   -1.0340 n         1 UBF     -0.379000
     19 C7          7.5860    3.5440   -1.1170 c3        1 UBF      0.096000
     20 C8          7.1380    4.1850   -2.4400 c3        1 UBF     -0.079500
     21 N9          5.8320    3.7020   -2.9400 n4        1 UBF     -0.798600
     22 C10         8.2510    4.0120   -3.5640 c         1 UBF      0.925600
     23 O11         9.3630    3.5860   -3.1750 o         1 UBF     -0.785800
     24 O12         7.8940    4.3400   -4.7180 o         1 UBF     -0.785800
     25 H19         3.4460   -3.2970   -3.8990 h4        1 UBF      0.153000
     26 H18         4.7130   -2.8620   -1.6070 ha        1 UBF      0.156000
     27 H161        3.9270    0.5620   -0.0800 h1        1 UBF      0.087700
     28 H162        4.5950   -1.1250    0.2710 h1        1 UBF      0.087700
     29 H6          9.3170    1.7340   -1.8750 h4        1 UBF      0.223000
     30 H71         8.6850    3.7870   -1.0080 h1        1 UBF      0.091200
     31 H72         7.0120    4.0060   -0.2620 h1        1 UBF      0.091200
     32 H8          7.0440    5.2940   -2.2560 hx        1 UBF      0.081700
     33 HN91        5.0800    3.7320   -2.2350 hn        1 UBF      0.466467
     34 HN92        5.5650    4.2510   -3.7610 hn        1 UBF      0.466467
     35 H93         5.8840    2.7220   -3.2520 hn        1 UBF      0.466467
@<TRIPOS>BOND
     1    1    2 1   
     2    2    3 1   
     3    2    4 1   
     4    4    5 1   
     5    4    8 2   
     6    5    6 1   
     7    6    7 2   
     8    6   25 1   
     9    7    8 1   
    10    7   26 1   
    11    8    9 1   
    12    9   10 1   
    13    9   27 1   
    14    9   28 1   
    15   10   11 1   
    16   10   13 1   
    17   11   12 2   
    18   11   18 1   
    19   13   14 2   
    20   13   15 1   
    21   15   16 1   
    22   15   17 2   
    23   17   18 1   
    24   17   29 1   
    25   18   19 1   
    26   19   20 1   
    27   19   30 1   
    28   19   31 1   
    29   20   21 1   
    30   20   22 1   
    31   20   32 1   
    32   21   33 1   
    33   21   34 1   
    34   21   35 1   
    35   22   23 1   
    36   22   24 1   
@<TRIPOS>SUBSTRUCTURE
     1 UBF         1 TEMP              0 ****  ****    0 ROOT
