@<TRIPOS>MOLECULE
UBF
   35    36     1     0     0
SMALL
bcc


@<TRIPOS>ATOM
      1 O23         3.6630    2.4640   -2.9230 o         1 UBF     -0.838800
      2 C22         2.9680    1.6740   -2.2050 c         1 UBF      0.946200
      3 O24         2.1460    2.0710   -1.3450 o         1 UBF     -0.838800
      4 C21         3.1600    0.1970   -2.4220 cc        1 UBF     -0.083700
      5 S20         2.4430   -0.6320   -3.6890 ss        1 UBF      0.011200
      6 C19         3.1230   -2.1050   -3.2750 cc        1 UBF     -0.215100
      7 C18         3.9160   -1.9950   -2.1580 cd        1 UBF     -0.127000
      8 C17         3.9310   -0.6520   -1.6500 cd        1 UBF     -0.189300
      9 C16         4.6630   -0.2830   -0.4100 c3        1 UBF      0.167300
     10 N3          6.0470    0.1360   -0.6260 n         1 UBF     -0.469400
     11 C4          6.3200    1.5130   -0.6420 c         1 UBF      0.791500
     12 O15         5.5370    2.3710   -0.1750 o         1 UBF     -0.641500
     13 C2          7.0160   -0.8160   -1.0370 c         1 UBF      0.734700
     14 O14         6.7900   -2.0220   -0.8420 o         1 UBF     -0.604500
     15 C1          8.2460   -0.2810   -1.6520 cc        1 UBF     -0.266500
     16 Br13        9.5060   -1.4500   -2.3620 br        1 UBF     -0.035700
     17 C6          8.4520    1.0690   -1.7310 cd        1 UBF      0.096600
     18 N5          7.5660    1.9640   -1.1740 n         1 UBF     -0.379000
     19 C7          7.8130    3.3880   -1.1960 c3        1 UBF      0.096000
     20 C8          7.2580    4.1360   -2.4190 c3        1 UBF     -0.079500
     21 N9          5.8760    3.7610   -2.7870 nz        1 UBF     -0.798600
     22 C10         8.2220    3.9690   -3.6750 c         1 UBF      0.925600
     23 O11         9.3410    3.4560   -3.4450 o         1 UBF     -0.785800
     24 O12         7.7560    4.3880   -4.7590 o         1 UBF     -0.785800
     25 H19         2.9480   -3.0150   -3.8410 h4        1 UBF      0.153000
     26 H18         4.4950   -2.7990   -1.6940 ha        1 UBF      0.156000
     27 H161        4.7060   -1.1780    0.2770 h1        1 UBF      0.087700
     28 H162        4.1140    0.5630    0.1020 h1        1 UBF      0.087700
     29 H6          9.3250    1.5320   -2.2530 h4        1 UBF      0.223000
     30 H71         8.9310    3.5600   -1.2050 h1        1 UBF      0.091200
     31 H72         7.3720    3.8280   -0.2550 h1        1 UBF      0.091200
     32 H8          7.2580    5.2340   -2.1640 hx        1 UBF      0.081700
     33 HN91        5.5520    4.3750   -3.5390 hn        1 UBF      0.466467
     34 HN92        5.8280    2.8000   -3.1560 hn        1 UBF      0.466467
     35 H93         5.2130    3.7890   -1.9960 hn        1 UBF      0.466467
@<TRIPOS>BOND
     1    1    2 1   
     2    2    3 1   
     3    2    4 1   
     4    4    5 1   
     5    4    8 2   
     6    5    6 1   
     7    6    7 2   
     8    6   25 1   
     9    7    8 1   
    10    7   26 1   
    11    8    9 1   
    12    9   10 1   
    13    9   27 1   
    14    9   28 1   
    15   10   11 1   
    16   10   13 1   
    17   11   12 2   
    18   11   18 1   
    19   13   14 2   
    20   13   15 1   
    21   15   16 1   
    22   15   17 2   
    23   17   18 1   
    24   17   29 1   
    25   18   19 1   
    26   19   20 1   
    27   19   30 1   
    28   19   31 1   
    29   20   21 1   
    30   20   22 1   
    31   20   32 1   
    32   21   33 1   
    33   21   34 1   
    34   21   35 1   
    35   22   23 1   
    36   22   24 1   
@<TRIPOS>SUBSTRUCTURE
     1 UBF         1 TEMP              0 ****  ****    0 ROOT
