@<TRIPOS>MOLECULE
UBI
   47    47     1     0     0
SMALL
bcc


@<TRIPOS>ATOM
      1 P          -4.0970   -3.1630    2.0510 p3        1 UBI      2.518000
      2 N1          0.3200    0.1460    2.0130 n         1 UBI     -0.257000
      3 C2         -0.2750    1.4710    2.1800 c2        1 UBI      0.392000
      4 O2         -0.5970    1.8560    3.2860 o         1 UBI     -0.388000
      5 N3         -0.4070    2.3670    1.0260 n         1 UBI     -0.370000
      6 C4         -0.0370    1.9150   -0.2750 c2        1 UBI      0.377000
      7 O4         -0.1990    2.6390   -1.2410 o         1 UBI     -0.413000
      8 C5          0.4640    0.5450   -0.4590 c2        1 UBI     -0.364000
      9 C6          0.6040   -0.3460    0.7070 c2        1 UBI      0.172000
     10 C1'         0.7680   -0.5890    3.1680 c3        1 UBI      0.167000
     11 C2'        -0.0900   -0.1900    4.4470 c3        1 UBI     -0.195000
     12 C21         0.9920    0.0990   -1.8350 c2        1 UBI      0.390000
     13 O22         1.4060   -1.0300   -1.9870 o         1 UBI     -0.387000
     14 N23         1.0740    1.0450   -2.9130 n         1 UBI     -0.354000
     15 C24         1.9890    0.8130   -4.0100 c3        1 UBI     -0.022000
     16 C25         1.6370    1.7340   -5.1720 c3        1 UBI     -0.132000
     17 C26         1.3580    0.9050   -6.4090 c3        1 UBI     -0.209000
     18 C27         2.7980    2.6720   -5.4430 c3        1 UBI     -0.209000
     19 C3'        -1.0370   -1.4200    4.7200 c3        1 UBI      0.012000
     20 O3'        -0.5700   -2.1710    5.9050 oh        1 UBI     -0.397000
     21 C4'        -0.9470   -2.1510    3.6650 c3        1 UBI     -0.059000
     22 O4'         0.5620   -1.8400    3.0060 os        1 UBI     -0.297000
     23 C5'        -2.0110   -1.7870    2.7000 c3        1 UBI      0.059000
     24 O5'        -2.5240   -2.9620    2.0990 o         1 UBI     -0.716000
     25 OP1        -4.6070   -3.4790    3.4380 o         1 UBI     -1.245000
     26 OP2        -4.7520   -1.8970    1.5500 o         1 UBI     -1.245000
     27 OP3        -4.4310   -4.3040    1.1190 o         1 UBI     -1.245000
     28 HN3        -0.7780    3.1920    1.1320 hn        1 UBI      0.248000
     29 H6          0.9570   -1.2520    0.5920 h4        1 UBI      0.240000
     30 H1'         1.7200   -0.4200    3.3310 h2        1 UBI      0.107000
     31 H2'        -0.6200    0.6090    4.2620 hc        1 UBI      0.098500
     32 H2'A        0.4970   -0.0380    5.2150 hc        1 UBI      0.098500
     33 HN23        0.5280    1.7770   -2.9210 hn        1 UBI      0.232000
     34 H24         2.9060    0.9960   -3.7150 h1        1 UBI      0.097000
     35 H24A        1.9200   -0.1220   -4.3020 h1        1 UBI      0.097000
     36 H25         0.8460    2.2540   -4.9450 hc        1 UBI      0.083000
     37 H26         0.6490    0.2590   -6.2150 hc        1 UBI      0.072167
     38 H26A        2.1730    0.4260   -6.6710 hc        1 UBI      0.072167
     39 H26B        1.0740    1.4940   -7.1420 hc        1 UBI      0.072167
     40 H27         3.6040    2.1480   -5.6310 hc        1 UBI      0.072167
     41 H27A        2.9520    3.2370   -4.6580 hc        1 UBI      0.072167
     42 H27B        2.5880    3.2370   -6.2170 hc        1 UBI      0.072167
     43 H3'        -1.9610   -1.1180    4.8480 h1        1 UBI      0.197000
     44 HO3'       -1.0540   -1.9370    6.6160 ho        1 UBI      0.289000
     45 H4'        -1.0190   -3.0970    3.9050 h1        1 UBI      0.114000
     46 H5'        -1.6400   -1.2030    2.0110 h1        1 UBI      0.041500
     47 H5'A       -2.7330   -1.3190    3.1710 h1        1 UBI      0.041500
@<TRIPOS>BOND
     1    1   25 1   
     2    1   26 1   
     3    1   27 1   
     4    2    3 1   
     5    2    9 1   
     6    2   10 1   
     7    3    4 1   
     8    3    5 1   
     9    5    6 1   
    10    5   28 1   
    11    6    7 1   
    12    6    8 1   
    13    8    9 1   
    14    8   12 1   
    15    9   29 1   
    16   10   11 1   
    17   10   22 1   
    18   10   30 1   
    19   11   19 1   
    20   11   31 1   
    21   11   32 1   
    22   12   13 1   
    23   12   14 1   
    24   14   15 1   
    25   14   33 1   
    26   15   16 1   
    27   15   34 1   
    28   15   35 1   
    29   16   17 1   
    30   16   18 1   
    31   16   36 1   
    32   17   37 1   
    33   17   38 1   
    34   17   39 1   
    35   18   40 1   
    36   18   41 1   
    37   18   42 1   
    38   19   20 1   
    39   19   21 1   
    40   19   43 1   
    41   20   44 1   
    42   21   22 1   
    43   21   23 1   
    44   21   45 1   
    45   23   24 1   
    46   23   46 1   
    47   23   47 1   
@<TRIPOS>SUBSTRUCTURE
     1 UBI         1 TEMP              0 ****  ****    0 ROOT
