@<TRIPOS>MOLECULE
UBI
   47    48     1     0     0
SMALL
bcc


@<TRIPOS>ATOM
      1 P           3.3760    1.6530    1.3580 p5        1 UBI      1.326900
      2 N1         -0.5250   -2.2290   -0.8070 n         1 UBI     -0.363000
      3 C2         -1.0830   -2.7080   -2.0190 c         1 UBI      0.800500
      4 O2         -0.5330   -3.5940   -2.7130 o         1 UBI     -0.662500
      5 N3         -2.3180   -2.1830   -2.4380 n         1 UBI     -0.590500
      6 C4         -3.0390   -1.2320   -1.6960 c         1 UBI      0.739700
      7 O4         -4.1150   -0.8170   -2.1820 o         1 UBI     -0.691500
      8 C5         -2.4520   -0.8420   -0.4200 cc        1 UBI     -0.403400
      9 C6         -1.2110   -1.3200   -0.0480 cd        1 UBI      0.176600
     10 C1'         0.8120   -2.7640   -0.4170 c3        1 UBI      0.314500
     11 C2'         1.9840   -2.1650   -1.2180 c3        1 UBI     -0.116400
     12 C21        -3.2080    0.0410    0.4960 c         1 UBI      0.710300
     13 O22        -3.2410   -0.1680    1.7270 o         1 UBI     -0.621100
     14 N23        -3.8510    1.1330   -0.0690 n         1 UBI     -0.541900
     15 C24        -4.7860    1.9250    0.6720 c3        1 UBI      0.094000
     16 C25        -6.2630    1.5080    0.5330 c3        1 UBI     -0.101700
     17 C26        -7.1180    2.4480    1.3540 c3        1 UBI     -0.091100
     18 C27        -6.7050    1.5030   -0.9130 c3        1 UBI     -0.091100
     19 C3'         2.8120   -1.3720   -0.2030 c3        1 UBI      0.123100
     20 O3'         4.1360   -1.8610   -0.2050 oh        1 UBI     -0.669800
     21 C4'         2.1360   -1.6080    1.1620 c3        1 UBI      0.052100
     22 O4'         1.0300   -2.5320    0.9590 os        1 UBI     -0.440600
     23 C5'         1.6160   -0.2870    1.7830 c3        1 UBI      0.209400
     24 O5'         2.6320    0.4220    2.3540 os        1 UBI     -0.555200
     25 OP1         4.3960    0.7800    0.6560 o         1 UBI     -0.925500
     26 OP2         2.2340    2.0340    0.4550 o         1 UBI     -0.925500
     27 OP3         3.8720    2.6560    2.3490 o         1 UBI     -0.925500
     28 HN3        -2.6680   -2.4900   -3.3180 hn        1 UBI      0.334500
     29 H6         -0.7090   -0.9890    0.8970 h4        1 UBI      0.242000
     30 H1'         0.7240   -3.8830   -0.5560 h2        1 UBI      0.068700
     31 H2'         2.5870   -2.9990   -1.6560 hc        1 UBI      0.059700
     32 H2'A        1.6440   -1.5040   -2.0500 hc        1 UBI      0.059700
     33 HN23       -3.9490    1.1430   -1.0600 hn        1 UBI      0.317500
     34 H24        -4.5060    1.8860    1.7640 h1        1 UBI      0.059200
     35 H24A       -4.6860    2.9910    0.3160 h1        1 UBI      0.059200
     36 H25        -6.3770    0.4660    0.9460 hc        1 UBI      0.057700
     37 H26        -7.0370    3.4930    0.9660 hc        1 UBI      0.030367
     38 H26A       -8.1890    2.1380    1.3100 hc        1 UBI      0.030367
     39 H26B       -6.7890    2.4410    2.4210 hc        1 UBI      0.030367
     40 H27        -6.1760    0.7010   -1.4860 hc        1 UBI      0.030367
     41 H27A       -7.8040    1.3160   -0.9820 hc        1 UBI      0.030367
     42 H27B       -6.4850    2.4870   -1.3940 hc        1 UBI      0.030367
     43 H3'         2.8300   -0.2500   -0.4070 h1        1 UBI      0.157700
     44 HO3'        4.6820   -1.1100    0.1190 ho        1 UBI      0.490000
     45 H4'         2.8240   -2.1350    1.8730 h1        1 UBI      0.074700
     46 H5'         1.0970    0.3180    0.9830 h1        1 UBI      0.002700
     47 H5'A        0.8650   -0.5750    2.5770 h1        1 UBI      0.002700
@<TRIPOS>BOND
     1    1   24 1   
     2    1   25 1   
     3    1   26 1   
     4    1   27 1   
     5    2    3 1   
     6    2    9 1   
     7    2   10 1   
     8    3    4 2   
     9    3    5 1   
    10    5    6 1   
    11    5   28 1   
    12    6    7 2   
    13    6    8 1   
    14    8    9 2   
    15    8   12 1   
    16    9   29 1   
    17   10   11 1   
    18   10   22 1   
    19   10   30 1   
    20   11   19 1   
    21   11   31 1   
    22   11   32 1   
    23   12   13 2   
    24   12   14 1   
    25   14   15 1   
    26   14   33 1   
    27   15   16 1   
    28   15   34 1   
    29   15   35 1   
    30   16   17 1   
    31   16   18 1   
    32   16   36 1   
    33   17   37 1   
    34   17   38 1   
    35   17   39 1   
    36   18   40 1   
    37   18   41 1   
    38   18   42 1   
    39   19   20 1   
    40   19   21 1   
    41   19   43 1   
    42   20   44 1   
    43   21   22 1   
    44   21   23 1   
    45   21   45 1   
    46   23   24 1   
    47   23   46 1   
    48   23   47 1   
@<TRIPOS>SUBSTRUCTURE
     1 UBI         1 TEMP              0 ****  ****    0 ROOT
