@<TRIPOS>MOLECULE
UBP
   31    31     1     0     0
SMALL
bcc


@<TRIPOS>ATOM
      1 N1         -0.0970   -0.0750    0.1370 n         1 UBP     -0.401000
      2 C2          1.3270   -0.0210    0.2420 c         1 UBP      0.805500
      3 O2          1.9930   -0.1500   -0.8160 o         1 UBP     -0.700500
      4 N3          1.9300    0.1210    1.4950 n         1 UBP     -0.458400
      5 C4          1.1530    0.2750    2.6660 c         1 UBP      0.705700
      6 O4          1.6920    0.4100    3.7780 o         1 UBP     -0.603500
      7 C5         -0.3100    0.2390    2.5010 cc        1 UBP     -0.321200
      8 C6         -0.8700    0.0730    1.2780 cd        1 UBP      0.036600
      9 C7         -0.7170   -0.1560   -1.1660 c3        1 UBP      0.094000
     10 C8         -0.6620   -1.5410   -1.8260 c3        1 UBP     -0.084500
     11 N8          0.6710   -1.8550   -2.4130 nz        1 UBP     -0.821600
     12 C9         -1.7900   -1.6280   -2.9620 c         1 UBP      0.935600
     13 O91        -2.9020   -1.1650   -2.6450 o         1 UBP     -0.769800
     14 O92        -1.4260   -2.1860   -4.0280 o         1 UBP     -0.769800
     15 C1          3.3960    0.1320    1.5510 c3        1 UBP      0.097000
     16 C3          4.0650    1.3660    0.9780 c3        1 UBP     -0.224400
     17 C10         5.5820    1.1040    0.8170 c         1 UBP      0.919600
     18 O3          6.3370    2.1140    0.8010 o         1 UBP     -0.839800
     19 O1          5.9750   -0.0910    0.6910 o         1 UBP     -0.839800
     20 H5         -0.9070    0.3540    3.4130 ha        1 UBP      0.171000
     21 H6         -1.9660    0.0420    1.1260 h4        1 UBP      0.163000
     22 H7         -0.2340    0.6110   -1.8400 h1        1 UBP      0.099200
     23 H7A        -1.8160    0.0990   -1.0750 h1        1 UBP      0.099200
     24 H8         -0.9130   -2.3500   -1.0850 hx        1 UBP      0.090700
     25 HN8         0.5030   -2.3790   -3.2910 hn        1 UBP      0.456133
     26 HN8A        1.1750   -0.9840   -2.6210 hn        1 UBP      0.456133
     27 H1          3.7660   -0.7680    0.9770 h1        1 UBP      0.086200
     28 H1A         3.6860    0.0150    2.6340 h1        1 UBP      0.086200
     29 H3          3.9120    2.2530    1.6390 hc        1 UBP      0.039700
     30 H3A         3.6610    1.6040   -0.0380 hc        1 UBP      0.039700
     31 H83         1.2420   -2.3940   -1.7650 hn        1 UBP      0.456133
@<TRIPOS>BOND
     1    1    2 1   
     2    1    8 1   
     3    1    9 1   
     4    2    3 2   
     5    2    4 1   
     6    4    5 1   
     7    4   15 1   
     8    5    6 2   
     9    5    7 1   
    10    7    8 2   
    11    7   20 1   
    12    8   21 1   
    13    9   10 1   
    14    9   22 1   
    15    9   23 1   
    16   10   11 1   
    17   10   12 1   
    18   10   24 1   
    19   11   25 1   
    20   11   26 1   
    21   11   31 1   
    22   12   13 1   
    23   12   14 1   
    24   15   16 1   
    25   15   27 1   
    26   15   28 1   
    27   16   17 1   
    28   16   29 1   
    29   16   30 1   
    30   17   18 1   
    31   17   19 1   
@<TRIPOS>SUBSTRUCTURE
     1 UBP         1 TEMP              0 ****  ****    0 ROOT
