@<TRIPOS>MOLECULE
UBP
   31    31     1     0     0
SMALL
bcc


@<TRIPOS>ATOM
      1 N1         -0.0940   -0.0640    0.1460 n         1 UBP     -0.401000
      2 C2          1.3300   -0.0230    0.2420 c         1 UBP      0.805500
      3 O2          1.9880   -0.1560   -0.8210 o         1 UBP     -0.700500
      4 N3          1.9430    0.1110    1.4920 n         1 UBP     -0.458400
      5 C4          1.1740    0.2690    2.6680 c         1 UBP      0.705700
      6 O4          1.7220    0.3970    3.7760 o         1 UBP     -0.603500
      7 C5         -0.2890    0.2460    2.5110 cc        1 UBP     -0.321200
      8 C6         -0.8590    0.0890    1.2920 cd        1 UBP      0.036600
      9 C7         -0.7230   -0.1360   -1.1540 c3        1 UBP      0.094000
     10 C8         -0.6850   -1.5200   -1.8170 c3        1 UBP     -0.084500
     11 N8          0.6410   -1.8440   -2.4130 n4        1 UBP     -0.821600
     12 C9         -1.8210   -1.5940   -2.9460 c         1 UBP      0.935600
     13 O91        -2.9270   -1.1220   -2.6200 o         1 UBP     -0.769800
     14 O92        -1.4690   -2.1520   -4.0150 o         1 UBP     -0.769800
     15 C1          3.4090    0.1090    1.5380 c3        1 UBP      0.097000
     16 C3          4.0860    1.3370    0.9630 c3        1 UBP     -0.224400
     17 C10         5.5990    1.0620    0.7920 c         1 UBP      0.919600
     18 O3          6.3630    2.0650    0.7730 o         1 UBP     -0.839800
     19 O1          5.9800   -0.1360    0.6610 o         1 UBP     -0.839800
     20 H5         -0.8790    0.3650    3.4280 ha        1 UBP      0.171000
     21 H6         -1.9560    0.0690    1.1470 h4        1 UBP      0.163000
     22 H7         -1.8200    0.1280   -1.0550 h1        1 UBP      0.099200
     23 H7A        -0.2380    0.6290   -1.8290 h1        1 UBP      0.099200
     24 H8         -0.9380   -2.3280   -1.0760 hx        1 UBP      0.090700
     25 HN8         0.4630   -2.3640   -3.2910 hn        1 UBP      0.456133
     26 HN8A        1.1510   -0.9770   -2.6230 hn        1 UBP      0.456133
     27 H1          3.7670   -0.7940    0.9590 h1        1 UBP      0.086200
     28 H1A         3.7050   -0.0140    2.6180 h1        1 UBP      0.086200
     29 H3          3.6770    1.5820   -0.0490 hc        1 UBP      0.039700
     30 H3A         3.9450    2.2240    1.6270 hc        1 UBP      0.039700
     31 H83         1.2120   -2.3890   -1.7700 hn        1 UBP      0.456133
@<TRIPOS>BOND
     1    1    2 1   
     2    1    8 1   
     3    1    9 1   
     4    2    3 2   
     5    2    4 1   
     6    4    5 1   
     7    4   15 1   
     8    5    6 2   
     9    5    7 1   
    10    7    8 2   
    11    7   20 1   
    12    8   21 1   
    13    9   10 1   
    14    9   22 1   
    15    9   23 1   
    16   10   11 1   
    17   10   12 1   
    18   10   24 1   
    19   11   25 1   
    20   11   26 1   
    21   11   31 1   
    22   12   13 1   
    23   12   14 1   
    24   15   16 1   
    25   15   27 1   
    26   15   28 1   
    27   16   17 1   
    28   16   29 1   
    29   16   30 1   
    30   17   18 1   
    31   17   19 1   
@<TRIPOS>SUBSTRUCTURE
     1 UBP         1 TEMP              0 ****  ****    0 ROOT
