@<TRIPOS>MOLECULE
UBP
   31    31     1     0     0
SMALL
bcc


@<TRIPOS>ATOM
      1 N1         -0.0960   -0.0740    0.1460 n         1 UBP     -0.401000
      2 C2          1.3290   -0.0230    0.2430 c         1 UBP      0.805500
      3 O2          1.9880   -0.1450   -0.8210 o         1 UBP     -0.700500
      4 N3          1.9400    0.1090    1.4930 n         1 UBP     -0.458400
      5 C4          1.1690    0.2560    2.6700 c         1 UBP      0.705700
      6 O4          1.7160    0.3820    3.7790 o         1 UBP     -0.603500
      7 C5         -0.2940    0.2230    2.5130 cc        1 UBP     -0.321200
      8 C6         -0.8620    0.0670    1.2930 cd        1 UBP      0.036600
      9 C7         -0.7230   -0.1440   -1.1540 c3        1 UBP      0.094000
     10 C8         -0.6740   -1.5250   -1.8240 c3        1 UBP     -0.084500
     11 N8          0.6540   -1.8370   -2.4210 n4        1 UBP     -0.821600
     12 C9         -1.8100   -1.6030   -2.9530 c         1 UBP      0.935600
     13 O91        -2.9190   -1.1400   -2.6270 o         1 UBP     -0.769800
     14 O92        -1.4530   -2.1530   -4.0260 o         1 UBP     -0.769800
     15 C1          3.4060    0.1170    1.5410 c3        1 UBP      0.097000
     16 C3          4.0740    1.3540    0.9720 c3        1 UBP     -0.224400
     17 C10         5.5890    1.0910    0.8000 c         1 UBP      0.919600
     18 O3          6.3460    2.0990    0.7870 o         1 UBP     -0.839800
     19 O1          5.9790   -0.1040    0.6630 o         1 UBP     -0.839800
     20 H5         -0.8850    0.3330    3.4300 ha        1 UBP      0.171000
     21 H6         -1.9590    0.0390    1.1470 h4        1 UBP      0.163000
     22 H7         -0.2440    0.6270   -1.8260 h1        1 UBP      0.099200
     23 H7A        -1.8220    0.1110   -1.0550 h1        1 UBP      0.099200
     24 H8         -0.9220   -2.3380   -1.0870 hx        1 UBP      0.090700
     25 HN8         0.4800   -2.3540   -3.3020 hn        1 UBP      0.456133
     26 HN8A        1.2290   -2.3810   -1.7810 hn        1 UBP      0.456133
     27 H1          3.7710   -0.7800    0.9570 h1        1 UBP      0.086200
     28 H1A         3.7020   -0.0080    2.6200 h1        1 UBP      0.086200
     29 H3          3.9260    2.2360    1.6400 hc        1 UBP      0.039700
     30 H3A         3.6640    1.6000   -0.0400 hc        1 UBP      0.039700
     31 H83         1.1580   -0.9650   -2.6260 hn        1 UBP      0.456133
@<TRIPOS>BOND
     1    1    2 1   
     2    1    8 1   
     3    1    9 1   
     4    2    3 2   
     5    2    4 1   
     6    4    5 1   
     7    4   15 1   
     8    5    6 2   
     9    5    7 1   
    10    7    8 2   
    11    7   20 1   
    12    8   21 1   
    13    9   10 1   
    14    9   22 1   
    15    9   23 1   
    16   10   11 1   
    17   10   12 1   
    18   10   24 1   
    19   11   25 1   
    20   11   26 1   
    21   11   31 1   
    22   12   13 1   
    23   12   14 1   
    24   15   16 1   
    25   15   27 1   
    26   15   28 1   
    27   16   17 1   
    28   16   29 1   
    29   16   30 1   
    30   17   18 1   
    31   17   19 1   
@<TRIPOS>SUBSTRUCTURE
     1 UBP         1 TEMP              0 ****  ****    0 ROOT
