@<TRIPOS>MOLECULE
UBP
   30    30     1     0     0
SMALL
bcc


@<TRIPOS>ATOM
      1 N1         -1.0150   -0.5380    0.3770 n         1 UBP     -0.361000
      2 C2          0.1960    0.1460    0.0590 c         1 UBP      0.802500
      3 O2          0.2160    1.3960    0.0860 o         1 UBP     -0.649500
      4 N3          1.3460   -0.6070   -0.2710 n         1 UBP     -0.475400
      5 C4          1.3020   -2.0130   -0.3520 c         1 UBP      0.714700
      6 O4          2.3100   -2.6670   -0.6910 o         1 UBP     -0.652500
      7 C5          0.0230   -2.6580   -0.0390 cc        1 UBP     -0.376200
      8 C6         -1.0630   -1.9120    0.2950 cd        1 UBP      0.067600
      9 C7         -2.2320    0.2030    0.6690 c3        1 UBP      0.087000
     10 C8         -3.3600    0.0400   -0.3710 c3        1 UBP      0.007500
     11 N8         -3.0660    0.6420   -1.6580 n3        1 UBP     -0.898800
     12 C9         -4.6850    0.5250    0.3130 c         1 UBP      0.894600
     13 O91        -5.3930    1.3800   -0.2880 o         1 UBP     -0.840800
     14 O92        -4.9830   -0.0020    1.4210 o         1 UBP     -0.840800
     15 C1          2.6120    0.0970   -0.4760 c3        1 UBP      0.105000
     16 C3          3.4940    0.2050    0.7570 c3        1 UBP     -0.209400
     17 C10         4.8370    0.8770    0.4210 c         1 UBP      0.915600
     18 O3          5.6520    1.0420    1.3760 o         1 UBP     -0.858300
     19 O1          5.0780    1.2290   -0.7690 o         1 UBP     -0.858300
     20 H5         -0.0040   -3.7500   -0.0900 ha        1 UBP      0.150000
     21 H6         -2.0450   -2.3680    0.5310 h4        1 UBP      0.159000
     22 H7         -2.6340   -0.1710    1.6560 h1        1 UBP      0.083200
     23 H7A        -1.9640    1.2910    0.7790 h1        1 UBP      0.083200
     24 H8         -3.5170   -1.0620   -0.5730 h1        1 UBP      0.039700
     25 HN8        -3.9260    1.0120   -2.0310 hn        1 UBP      0.342300
     26 HN8A       -2.4400    1.4180   -1.5350 hn        1 UBP      0.342300
     27 H1          3.1790   -0.4580   -1.2770 h1        1 UBP      0.079200
     28 H1A         2.3850    1.1340   -0.8550 h1        1 UBP      0.079200
     29 H3          2.9890    0.8080    1.5530 hc        1 UBP      0.034200
     30 H3A         3.7110   -0.8100    1.1750 hc        1 UBP      0.034200
@<TRIPOS>BOND
     1    1    2 1   
     2    1    8 1   
     3    1    9 1   
     4    2    3 2   
     5    2    4 1   
     6    4    5 1   
     7    4   15 1   
     8    5    6 2   
     9    5    7 1   
    10    7    8 2   
    11    7   20 1   
    12    8   21 1   
    13    9   10 1   
    14    9   22 1   
    15    9   23 1   
    16   10   11 1   
    17   10   12 1   
    18   10   24 1   
    19   11   25 1   
    20   11   26 1   
    21   12   13 1   
    22   12   14 1   
    23   15   16 1   
    24   15   27 1   
    25   15   28 1   
    26   16   17 1   
    27   16   29 1   
    28   16   30 1   
    29   17   18 1   
    30   17   19 1   
@<TRIPOS>SUBSTRUCTURE
     1 UBP         1 TEMP              0 ****  ****    0 ROOT
