@<TRIPOS>MOLECULE
UBP
   30    30     1     0     0
SMALL
bcc


@<TRIPOS>ATOM
      1 N1         -1.1080   -0.0740   -0.1600 n         1 UBP     -0.357000
      2 C2          0.3640   -0.0220   -0.1760 c         1 UBP      0.797500
      3 O2          0.9660    0.0560   -1.2460 o         1 UBP     -0.644500
      4 N3          1.1170   -0.0260    1.0960 n         1 UBP     -0.478400
      5 C4          0.4280    0.2190    2.3350 c         1 UBP      0.714700
      6 O4          1.0710    0.4130    3.3770 o         1 UBP     -0.655500
      7 C5         -1.0510    0.2240    2.3640 cc        1 UBP     -0.387200
      8 C6         -1.8190    0.0660    1.0840 cd        1 UBP      0.088600
      9 C7         -1.8410   -0.2950   -1.3970 c3        1 UBP      0.106000
     10 C8         -2.3210    1.0020   -1.9230 c3        1 UBP     -0.000500
     11 N8         -3.7320    1.1150   -1.6990 n3        1 UBP     -0.899800
     12 C9         -2.0340    1.0810   -3.4230 c         1 UBP      0.886600
     13 O91        -1.3710    2.0310   -3.8810 o         1 UBP     -0.836800
     14 O92        -2.4710    0.1690   -4.2080 o         1 UBP     -0.836800
     15 C1          2.5660   -0.0730    1.0690 c3        1 UBP      0.105000
     16 C3          3.0490   -1.5060    1.4420 c3        1 UBP     -0.209400
     17 C10         4.6060   -1.5130    1.5720 c         1 UBP      0.915600
     18 O3          5.3160   -1.8490    0.5950 o         1 UBP     -0.858800
     19 O1          5.1420   -1.2610    2.6760 o         1 UBP     -0.858800
     20 H5         -1.5250    0.4080    3.2020 ha        1 UBP      0.149000
     21 H6         -2.7650    0.0230    1.0980 h4        1 UBP      0.158000
     22 H7         -2.5990   -0.8770   -1.2250 h1        1 UBP      0.074200
     23 H7A        -1.2340   -0.7270   -2.0730 h1        1 UBP      0.074200
     24 H8         -1.8570    1.7340   -1.4610 h1        1 UBP      0.060700
     25 HN8        -4.1820    0.8720   -2.4590 hn        1 UBP      0.333300
     26 HN8A       -3.9440    2.0020   -1.4810 hn        1 UBP      0.333300
     27 H1          2.9210    0.5620    1.7020 h1        1 UBP      0.078700
     28 H1A         2.8820    0.1530    0.1690 h1        1 UBP      0.078700
     29 H3          2.7780   -2.1350    0.7410 hc        1 UBP      0.034200
     30 H3A         2.6510   -1.7740    2.2900 hc        1 UBP      0.034200
@<TRIPOS>BOND
     1    1    2 1   
     2    1    8 1   
     3    1    9 1   
     4    2    3 2   
     5    2    4 1   
     6    4    5 1   
     7    4   15 1   
     8    5    6 2   
     9    5    7 1   
    10    7    8 2   
    11    7   20 1   
    12    8   21 1   
    13    9   10 1   
    14    9   22 1   
    15    9   23 1   
    16   10   11 1   
    17   10   12 1   
    18   10   24 1   
    19   11   25 1   
    20   11   26 1   
    21   12   13 1   
    22   12   14 1   
    23   15   16 1   
    24   15   27 1   
    25   15   28 1   
    26   16   17 1   
    27   16   29 1   
    28   16   30 1   
    29   17   18 1   
    30   17   19 1   
@<TRIPOS>SUBSTRUCTURE
     1 UBP         1 TEMP              0 ****  ****    0 ROOT
