@<TRIPOS>MOLECULE
UBR
   31    32     1     0     0
SMALL
bcc


@<TRIPOS>ATOM
      1 O1'         2.4350   -1.1690    0.1780 o         1 UBR     -0.923167
      2 P           3.7040   -0.9830   -0.6350 p5        1 UBR      1.337900
      3 OP1         4.5860    0.0710   -0.0110 o         1 UBR     -0.923167
      4 OP2         4.3110   -2.1830   -1.2820 o         1 UBR     -0.923167
      5 O5'         3.0940   -0.0140   -1.9420 os        1 UBR     -0.566200
      6 C5'         1.7980    0.4060   -1.8750 c3        1 UBR      0.228400
      7 C4'         1.6410    1.8000   -1.2190 c3        1 UBR      0.063100
      8 O4'         0.2220    2.0680   -1.0710 os        1 UBR     -0.437600
      9 C3'         2.2790    1.9230    0.1810 c3        1 UBR      0.100100
     10 O3'         3.4130    2.7590    0.1620 oh        1 UBR     -0.656800
     11 C2'         1.1890    2.5130    1.0750 c3        1 UBR     -0.117400
     12 C1'        -0.1160    2.2600    0.2970 c3        1 UBR      0.302500
     13 N1         -0.9060    1.1210    0.8180 n         1 UBR     -0.365000
     14 C2         -2.2690    1.3740    1.1030 c         1 UBR      0.794500
     15 O2         -2.7920    2.5140    1.0120 o         1 UBR     -0.701500
     16 N3         -3.0720    0.3130    1.5440 n         1 UBR     -0.595500
     17 C4         -2.5920   -1.0010    1.7090 c         1 UBR      0.728700
     18 O4         -3.4210   -1.8450    2.1110 o         1 UBR     -0.672500
     19 C5         -1.1830   -1.2040    1.3920 cc        1 UBR     -0.298500
     20 C6         -0.4000   -0.1610    0.9410 cd        1 UBR      0.117600
     21 BR         -0.4660   -2.9050    1.5980 br        1 UBR     -0.017700
     22 H5'         1.3920    0.5090   -2.9260 h1        1 UBR     -0.004300
     23 H5'A        1.1510   -0.3280   -1.3170 h1        1 UBR     -0.004300
     24 H4'         2.0260    2.6040   -1.8990 h1        1 UBR      0.046700
     25 H3'         2.5800    0.8810    0.5410 h1        1 UBR      0.161700
     26 HO3'        4.1710    2.1430    0.0500 ho        1 UBR      0.481000
     27 H2'         1.1990    2.0370    2.0830 hc        1 UBR      0.052200
     28 H2'A        1.3270    3.6150    1.2010 hc        1 UBR      0.052200
     29 H1'        -0.7990    3.1610    0.3140 h2        1 UBR      0.086700
     30 HN3        -4.0280    0.5140    1.7300 hn        1 UBR      0.325500
     31 H6          0.7040   -0.3330    0.6610 h4        1 UBR      0.325000
@<TRIPOS>BOND
     1    1    2 1   
     2    2    3 1   
     3    2    4 1   
     4    2    5 1   
     5    5    6 1   
     6    6    7 1   
     7    6   22 1   
     8    6   23 1   
     9    7    8 1   
    10    7    9 1   
    11    7   24 1   
    12    8   12 1   
    13    9   10 1   
    14    9   11 1   
    15    9   25 1   
    16   10   26 1   
    17   11   12 1   
    18   11   27 1   
    19   11   28 1   
    20   12   13 1   
    21   12   29 1   
    22   13   14 1   
    23   13   20 1   
    24   14   15 2   
    25   14   16 1   
    26   16   17 1   
    27   16   30 1   
    28   17   18 2   
    29   17   19 1   
    30   19   20 2   
    31   19   21 1   
    32   20   31 1   
@<TRIPOS>SUBSTRUCTURE
     1 UBR         1 TEMP              0 ****  ****    0 ROOT
