@<TRIPOS>MOLECULE
UBS
   62    59     1     0     0
SMALL
bcc


@<TRIPOS>ATOM
      1 C3          2.4030   -6.9930   -3.9420 c1        1 UBS     -0.068500
      2 C2          3.2220   -7.7690   -4.7520 c1        1 UBS     -0.068000
      3 C1          3.6090   -7.3030   -5.9850 c1        1 UBS     -0.068000
      4 C6          3.1820   -6.0530   -6.4240 c1        1 UBS     -0.068000
      5 C5          2.3680   -5.2790   -5.6210 c1        1 UBS     -0.068000
      6 C4          1.9760   -5.7460   -4.3800 c1        1 UBS     -0.053100
      7 C7          1.0460   -4.9030   -3.5020 c3        1 UBS      0.160500
      8 O8          1.8180   -4.0590   -2.6660 os        1 UBS     -0.448900
      9 C9          1.1690   -2.8330   -2.3250 c         1 UBS      0.729100
     10 O21         0.1160   -2.5250   -2.8720 o         1 UBS     -0.574000
     11 N10         1.7580   -1.9620   -1.3950 n         1 UBS     -0.489900
     12 C11         1.5130   -0.5470   -1.4770 c3        1 UBS     -0.220200
     13 P12         1.1950    0.1200    0.2190 p5        1 UBS      1.571200
     14 O22         2.4350    0.0430    1.0190 o         1 UBS     -0.881300
     15 O23         0.0530   -0.7430    0.9200 oh        1 UBS     -0.787400
     16 N13         0.6970    1.7310    0.1120 n3        1 UBS     -0.993300
     17 C14         0.0910    2.3760    1.2540 c3        1 UBS      0.148500
     18 C15        -1.3840    2.2620    1.1610 c         1 UBS      0.614100
     19 O24        -1.9320    2.1270    0.0370 o         1 UBS     -0.626100
     20 C20         0.4940    3.8700    1.2780 c3        1 UBS     -0.109400
     21 C21         1.9230    4.0030    1.7640 c3        1 UBS     -0.063700
     22 C22         1.9420    4.7280    3.1150 c3        1 UBS     -0.089600
     23 C23         2.7360    4.8060    0.7420 c3        1 UBS     -0.089600
     24 N16        -2.2050    2.2490    2.3900 n         1 UBS     -0.483900
     25 C17        -3.5820    1.9630    2.3120 c3        1 UBS     -0.065300
     26 C18        -4.2710    3.0400    1.5180 c         1 UBS      0.900600
     27 O19        -5.0930    2.7280    0.6210 o         1 UBS     -0.831300
     28 C25        -4.1830    1.9070    3.7400 c3        1 UBS     -0.047700
     29 C26        -4.2620    0.3900    4.2280 c3        1 UBS     -0.089600
     30 C31        -5.5900    2.5170    3.7280 c3        1 UBS     -0.089600
     31 O32        -4.0840    4.2590    1.8090 o         1 UBS     -0.831300
     32 H3          2.1240   -7.3280   -3.0560 ha        1 UBS      0.074500
     33 H2          3.5300   -8.6670   -4.4390 ha        1 UBS      0.076250
     34 H1          4.1870   -7.8510   -6.5570 ha        1 UBS      0.076250
     35 H6          3.4740   -5.7140   -7.2960 ha        1 UBS      0.076250
     36 H5          2.0880   -4.3960   -5.9200 ha        1 UBS      0.076250
     37 H7          0.4960   -5.4930   -2.9510 h1        1 UBS      0.064200
     38 H7A         0.4660   -4.3550   -4.0720 h1        1 UBS      0.064200
     39 HN10        2.2880   -2.2880   -0.7510 hn        1 UBS      0.336500
     40 H11         0.7360   -0.3840   -2.0390 h1        1 UBS      0.113200
     41 H11A        2.3050   -0.0970   -1.8680 h1        1 UBS      0.113200
     42 HO23        0.4250   -1.3820    1.4130 ho        1 UBS      0.472000
     43 HN13        0.7720    2.1810   -0.6810 hn        1 UBS      0.461800
     44 H14         0.4010    1.9390    2.0790 h1        1 UBS      0.061700
     45 H20        -0.1190    4.3750    1.8980 hc        1 UBS      0.090700
     46 H20A        0.4210    4.2400    0.3760 hc        1 UBS      0.090700
     47 H21         2.3090    3.1300    1.8640 hc        1 UBS      0.043700
     48 H22         2.8540    5.0500    3.3020 hc        1 UBS      0.032200
     49 H22A        1.6670    4.1170    3.8130 hc        1 UBS      0.032200
     50 H22B        1.3280    5.4880    3.0870 hc        1 UBS      0.032200
     51 H23         2.7950    4.2940   -0.1130 hc        1 UBS      0.032200
     52 H23A        3.6450    4.9640    1.0950 hc        1 UBS      0.032200
     53 H23B        2.2990    5.6590    0.5790 hc        1 UBS      0.032200
     54 HN16       -1.8150    2.4150    3.2060 hn        1 UBS      0.298500
     55 H17        -3.7100    1.1040    1.8730 h1        1 UBS      0.075700
     56 H25        -3.6070    2.4220    4.3600 hc        1 UBS      0.045700
     57 H26        -5.0740   -0.0410    3.8460 hc        1 UBS      0.029367
     58 H26A       -4.3090    0.3640    5.2220 hc        1 UBS      0.029367
     59 H26B       -3.4650   -0.0920    3.9270 hc        1 UBS      0.029367
     60 H31        -5.9920    2.4260    4.6170 hc        1 UBS      0.029367
     61 H31A       -6.1430    2.0520    3.0720 hc        1 UBS      0.029367
     62 H31B       -5.5320    3.4650    3.4910 hc        1 UBS      0.029367
@<TRIPOS>BOND
     1    1    6 3   
     2    1   32 1   
     3    2    3 3   
     4    2   33 1   
     5    3   34 1   
     6    4    5 3   
     7    4   35 1   
     8    5   36 1   
     9    6    7 1   
    10    7    8 1   
    11    7   37 1   
    12    7   38 1   
    13    8    9 1   
    14    9   10 2   
    15    9   11 1   
    16   11   12 1   
    17   11   39 1   
    18   12   13 1   
    19   12   40 1   
    20   12   41 1   
    21   13   14 2   
    22   13   15 1   
    23   13   16 1   
    24   15   42 1   
    25   16   17 1   
    26   16   43 1   
    27   17   18 1   
    28   17   20 1   
    29   17   44 1   
    30   18   19 2   
    31   18   24 1   
    32   20   21 1   
    33   20   45 1   
    34   20   46 1   
    35   21   22 1   
    36   21   23 1   
    37   21   47 1   
    38   22   48 1   
    39   22   49 1   
    40   22   50 1   
    41   23   51 1   
    42   23   52 1   
    43   23   53 1   
    44   24   25 1   
    45   24   54 1   
    46   25   26 1   
    47   25   28 1   
    48   25   55 1   
    49   26   27 1   
    50   26   31 1   
    51   28   29 1   
    52   28   30 1   
    53   28   56 1   
    54   29   57 1   
    55   29   58 1   
    56   29   59 1   
    57   30   60 1   
    58   30   61 1   
    59   30   62 1   
@<TRIPOS>SUBSTRUCTURE
     1 UBS         1 TEMP              0 ****  ****    0 ROOT
