@<TRIPOS>MOLECULE
UBS
   62    62     1     0     0
SMALL
bcc


@<TRIPOS>ATOM
      1 C3         -8.5050    1.0840    0.1640 ca        1 UBS     -0.114000
      2 C2         -9.4720    1.1370   -0.8380 ca        1 UBS     -0.133000
      3 C1         -9.2350    0.5310   -2.0720 ca        1 UBS     -0.131000
      4 C6         -8.0290   -0.1300   -2.3020 ca        1 UBS     -0.133000
      5 C5         -7.0600   -0.1910   -1.3000 ca        1 UBS     -0.114000
      6 C4         -7.2950    0.4160   -0.0620 ca        1 UBS     -0.090300
      7 C7         -6.3020    0.3540    1.0490 c3        1 UBS      0.195700
      8 O8         -5.0090    0.0790    0.4790 os        1 UBS     -0.442900
      9 C9         -3.9850   -0.0320    1.4040 c         1 UBS      0.730100
     10 O21        -4.2360    0.2010    2.5980 o         1 UBS     -0.588000
     11 N10        -2.8030   -0.4720    0.8390 n         1 UBS     -0.492900
     12 C11        -1.5810   -0.2930    1.5660 c3        1 UBS     -0.198200
     13 P12        -0.3280   -1.0890    0.7420 p5        1 UBS      1.567200
     14 O22        -0.5170   -1.0830   -0.7150 o         1 UBS     -0.870300
     15 O23        -0.5370   -2.6260    1.2080 oh        1 UBS     -0.791400
     16 N13         1.0100   -0.5620    1.3540 n3        1 UBS     -1.005300
     17 C14         2.0040    0.0750    0.5300 c3        1 UBS      0.139500
     18 C15         3.3940   -0.6080    0.7260 c         1 UBS      0.629100
     19 O24         3.7370   -0.9520    1.8790 o         1 UBS     -0.642100
     20 C20         2.2040    1.5700    0.8510 c3        1 UBS     -0.082400
     21 C21         2.7850    2.3560   -0.3150 c3        1 UBS     -0.094700
     22 C22         1.7600    2.5680   -1.4090 c3        1 UBS     -0.083600
     23 C23         3.2850    3.6970    0.1890 c3        1 UBS     -0.083600
     24 N16         4.1260   -0.8600   -0.4070 n         1 UBS     -0.486900
     25 C17         5.5790   -0.9660   -0.3540 c3        1 UBS     -0.060300
     26 C18         6.2420    0.3380   -0.9450 c         1 UBS      0.902600
     27 O19         5.5570    1.0320   -1.7520 o         1 UBS     -0.829800
     28 C25         6.1040   -2.1880   -1.1350 c3        1 UBS     -0.050700
     29 C26         7.5590   -2.4200   -0.7770 c3        1 UBS     -0.089600
     30 C31         5.3060   -3.4460   -0.8640 c3        1 UBS     -0.089600
     31 O32         7.4060    0.6180   -0.5610 o         1 UBS     -0.829800
     32 H3         -8.6910    1.5680    1.1340 ha        1 UBS      0.142000
     33 H2        -10.4210    1.6610   -0.6560 ha        1 UBS      0.129500
     34 H1         -9.9980    0.5760   -2.8630 ha        1 UBS      0.127000
     35 H6         -7.8370   -0.6050   -3.2750 ha        1 UBS      0.129500
     36 H5         -6.1050   -0.7080   -1.4800 ha        1 UBS      0.142000
     37 H7         -6.2470    1.3270    1.6070 h1        1 UBS      0.062700
     38 H7A        -6.5600   -0.4680    1.7700 h1        1 UBS      0.062700
     39 HN10       -2.7200   -0.4210   -0.1600 hn        1 UBS      0.344500
     40 H11        -1.3590    0.8010    1.7260 h1        1 UBS      0.097200
     41 H11A       -1.7300   -0.7120    2.6030 h1        1 UBS      0.097200
     42 HO23       -0.6130   -3.2520    0.4920 ho        1 UBS      0.475000
     43 HN13        1.3410   -0.7560    2.2700 hn        1 UBS      0.463800
     44 H14         1.6580   -0.0290   -0.5450 h1        1 UBS      0.089700
     45 H20         1.2270    2.0370    1.1460 hc        1 UBS      0.044200
     46 H20A        2.8910    1.6530    1.7360 hc        1 UBS      0.044200
     47 H21         3.6740    1.8040   -0.7520 hc        1 UBS      0.124700
     48 H22         1.4100    1.5930   -1.8250 hc        1 UBS      0.029200
     49 H22A        0.8740    3.1270   -1.0220 hc        1 UBS      0.029200
     50 H22B        2.2140    3.1570   -2.2430 hc        1 UBS      0.029200
     51 H23         4.0880    3.5490    0.9510 hc        1 UBS      0.029200
     52 H23A        3.7120    4.2850   -0.6590 hc        1 UBS      0.029200
     53 H23B        2.4550    4.2840    0.6500 hc        1 UBS      0.029200
     54 HN16        3.8270   -0.3800   -1.2380 hn        1 UBS      0.313500
     55 H17         5.8980   -1.0640    0.7230 h1        1 UBS      0.076700
     56 H25         6.0380   -1.9470   -2.2330 hc        1 UBS      0.047700
     57 H26         7.6480   -2.7890    0.2740 hc        1 UBS      0.028867
     58 H26A        8.0050   -3.1850   -1.4580 hc        1 UBS      0.028867
     59 H26B        8.1340   -1.4640   -0.8670 hc        1 UBS      0.028867
     60 H31         4.2970   -3.3900   -1.3390 hc        1 UBS      0.028867
     61 H31A        5.8370   -4.3360   -1.2810 hc        1 UBS      0.028867
     62 H31B        5.1730   -3.5950    0.2340 hc        1 UBS      0.028867
@<TRIPOS>BOND
     1    1    2 ar  
     2    1    6 ar  
     3    1   32 1   
     4    2    3 ar  
     5    2   33 1   
     6    3    4 ar  
     7    3   34 1   
     8    4    5 ar  
     9    4   35 1   
    10    5    6 ar  
    11    5   36 1   
    12    6    7 1   
    13    7    8 1   
    14    7   37 1   
    15    7   38 1   
    16    8    9 1   
    17    9   10 2   
    18    9   11 1   
    19   11   12 1   
    20   11   39 1   
    21   12   13 1   
    22   12   40 1   
    23   12   41 1   
    24   13   14 2   
    25   13   15 1   
    26   13   16 1   
    27   15   42 1   
    28   16   17 1   
    29   16   43 1   
    30   17   18 1   
    31   17   20 1   
    32   17   44 1   
    33   18   19 2   
    34   18   24 1   
    35   20   21 1   
    36   20   45 1   
    37   20   46 1   
    38   21   22 1   
    39   21   23 1   
    40   21   47 1   
    41   22   48 1   
    42   22   49 1   
    43   22   50 1   
    44   23   51 1   
    45   23   52 1   
    46   23   53 1   
    47   24   25 1   
    48   24   54 1   
    49   25   26 1   
    50   25   28 1   
    51   25   55 1   
    52   26   27 1   
    53   26   31 1   
    54   28   29 1   
    55   28   30 1   
    56   28   56 1   
    57   29   57 1   
    58   29   58 1   
    59   29   59 1   
    60   30   60 1   
    61   30   61 1   
    62   30   62 1   
@<TRIPOS>SUBSTRUCTURE
     1 UBS         1 TEMP              0 ****  ****    0 ROOT
