@<TRIPOS>MOLECULE
UBT
   53    53     1     0     0
SMALL
bcc


@<TRIPOS>ATOM
      1 C3          7.9170    1.2570    0.8130 ca        1 UBT     -0.112000
      2 C2          9.1680    0.8070    0.3950 ca        1 UBT     -0.133500
      3 C1          9.2750   -0.0380   -0.7100 ca        1 UBT     -0.130000
      4 C6          8.1280   -0.4320   -1.3980 ca        1 UBT     -0.133500
      5 C5          6.8740    0.0210   -0.9870 ca        1 UBT     -0.112000
      6 C4          6.7640    0.8690    0.1200 ca        1 UBT     -0.090300
      7 C7          5.4430    1.4010    0.5620 c3        1 UBT      0.194700
      8 O8          4.4480    0.4020    0.2720 os        1 UBT     -0.446900
      9 C9          3.1480    0.7840    0.5580 c         1 UBT      0.726100
     10 O19         2.9620    1.8710    1.1270 o         1 UBT     -0.574000
     11 N10         2.2110   -0.1190    0.0800 n         1 UBT     -0.477900
     12 C11         0.8870   -0.0910    0.6270 c3        1 UBT     -0.202200
     13 P12        -0.1620   -0.9690   -0.3760 p5        1 UBT      1.564200
     14 O20        -0.3130   -0.5130   -1.7580 o         1 UBT     -0.852300
     15 O21         0.6550   -2.3750   -0.5160 oh        1 UBT     -0.805400
     16 N13        -1.4450   -1.2310    0.4790 n3        1 UBT     -1.004300
     17 C14        -2.7580   -0.9130   -0.0180 c3        1 UBT      0.142500
     18 C15        -3.4970    0.0320    0.9770 c         1 UBT      0.619100
     19 O23        -3.3810   -0.1750    2.2060 o         1 UBT     -0.645100
     20 C18        -3.6610   -2.1480   -0.2030 c3        1 UBT     -0.081400
     21 C20        -4.8170   -1.9070   -1.1640 c3        1 UBT     -0.095700
     22 C22        -4.3410   -1.8300   -2.5990 c3        1 UBT     -0.082600
     23 C24        -5.8270   -3.0290   -1.0160 c3        1 UBT     -0.082600
     24 N16        -4.1680    1.1060    0.4400 n         1 UBT     -0.483900
     25 C17        -5.2710    1.7190    1.1510 c3        1 UBT     -0.081000
     26 C27        -6.6450    1.5360    0.4400 c         1 UBT      0.901600
     27 O28        -6.6810    0.8610   -0.6310 o         1 UBT     -0.835300
     28 O31        -7.6370    2.0830    0.9860 o         1 UBT     -0.835300
     29 H3          7.8340    1.9190    1.6880 ha        1 UBT      0.141000
     30 H2         10.0710    1.1180    0.9390 ha        1 UBT      0.129500
     31 H1         10.2630   -0.3930   -1.0370 ha        1 UBT      0.127000
     32 H6          8.2090   -1.1000   -2.2670 ha        1 UBT      0.129500
     33 H5          5.9650   -0.2900   -1.5240 ha        1 UBT      0.141000
     34 H7          5.4250    1.6110    1.6650 h1        1 UBT      0.064200
     35 H7A         5.1840    2.3420    0.0050 h1        1 UBT      0.064200
     36 HN10        2.5500   -1.0340   -0.1420 hn        1 UBT      0.323500
     37 H11         0.8810   -0.4600    1.6940 h1        1 UBT      0.102700
     38 H11A        0.5610    0.9890    0.6970 h1        1 UBT      0.102700
     39 HO21        0.6950   -2.7120   -1.4070 ho        1 UBT      0.470000
     40 HN13       -1.4630   -1.5590    1.4150 hn        1 UBT      0.456800
     41 H14        -2.6160   -0.4080   -1.0230 h1        1 UBT      0.092700
     42 H18        -3.0550   -3.0130   -0.5840 hc        1 UBT      0.044200
     43 H18A       -4.0670   -2.4430    0.8010 hc        1 UBT      0.044200
     44 H20        -5.3460   -0.9380   -0.9040 hc        1 UBT      0.125700
     45 H22        -5.2140   -1.6690   -3.2780 hc        1 UBT      0.028867
     46 H22A       -3.6310   -0.9800   -2.7410 hc        1 UBT      0.028867
     47 H22B       -3.8260   -2.7740   -2.8990 hc        1 UBT      0.028867
     48 H24        -6.2260   -3.0580    0.0260 hc        1 UBT      0.028867
     49 H24A       -6.6830   -2.8620   -1.7140 hc        1 UBT      0.028867
     50 H24B       -5.3620   -4.0170   -1.2500 hc        1 UBT      0.028867
     51 HN16       -4.3680    1.0310   -0.5440 hn        1 UBT      0.310500
     52 H17        -5.3480    1.3040    2.1920 h1        1 UBT      0.053700
     53 H17A       -5.0550    2.8200    1.2240 h1        1 UBT      0.053700
@<TRIPOS>BOND
     1    1    2 ar  
     2    1    6 ar  
     3    1   29 1   
     4    2    3 ar  
     5    2   30 1   
     6    3    4 ar  
     7    3   31 1   
     8    4    5 ar  
     9    4   32 1   
    10    5    6 ar  
    11    5   33 1   
    12    6    7 1   
    13    7    8 1   
    14    7   34 1   
    15    7   35 1   
    16    8    9 1   
    17    9   10 2   
    18    9   11 1   
    19   11   12 1   
    20   11   36 1   
    21   12   13 1   
    22   12   37 1   
    23   12   38 1   
    24   13   14 2   
    25   13   15 1   
    26   13   16 1   
    27   15   39 1   
    28   16   17 1   
    29   16   40 1   
    30   17   18 1   
    31   17   20 1   
    32   17   41 1   
    33   18   19 2   
    34   18   24 1   
    35   20   21 1   
    36   20   42 1   
    37   20   43 1   
    38   21   22 1   
    39   21   23 1   
    40   21   44 1   
    41   22   45 1   
    42   22   46 1   
    43   22   47 1   
    44   23   48 1   
    45   23   49 1   
    46   23   50 1   
    47   24   25 1   
    48   24   51 1   
    49   25   26 1   
    50   25   52 1   
    51   25   53 1   
    52   26   27 1   
    53   26   28 1   
@<TRIPOS>SUBSTRUCTURE
     1 UBT         1 TEMP              0 ****  ****    0 ROOT
