@<TRIPOS>MOLECULE
UBU
   54    54     1     0     0
SMALL
bcc


@<TRIPOS>ATOM
      1 C23        -5.8530   -0.0290   -1.2220 ca        1 UBU     -0.110000
      2 C22        -7.0290    0.4200   -1.8220 ca        1 UBU     -0.131500
      3 C21        -8.2040    0.5120   -1.0770 ca        1 UBU     -0.122000
      4 C20        -8.2010    0.1590    0.2730 ca        1 UBU     -0.131500
      5 C19        -7.0270   -0.2840    0.8790 ca        1 UBU     -0.110000
      6 C1         -5.8480   -0.3840    0.1300 ca        1 UBU     -0.099300
      7 C2         -4.6140   -0.9060    0.7830 c3        1 UBU      0.196700
      8 O3         -3.5020   -0.1360    0.2760 os        1 UBU     -0.435900
      9 C4         -2.2730   -0.5020    0.7780 c         1 UBU      0.725100
     10 O26        -2.2110   -1.3590    1.6720 o         1 UBU     -0.570000
     11 N5         -1.2150    0.1310    0.1250 n         1 UBU     -0.483900
     12 C6          0.0520    0.1830    0.7960 c3        1 UBU     -0.212200
     13 P7          1.2690    0.3780   -0.3530 p5        1 UBU      1.565200
     14 O24         1.4600   -0.6360   -1.3950 o         1 UBU     -0.859300
     15 O8          0.7780    1.7110   -1.1370 oh        1 UBU     -0.802400
     16 N9          2.5730    0.7130    0.4730 n3        1 UBU     -0.992300
     17 C10         3.8550    0.3260   -0.0430 c3        1 UBU      0.163500
     18 C11         4.3750   -0.9690    0.6540 c         1 UBU      0.631100
     19 N12         3.9440   -2.1640    0.1300 n         1 UBU     -0.562900
     20 C13         4.4130   -3.4350    0.6140 c3        1 UBU      0.083000
     21 C14         5.2240   -4.2330   -0.3960 c3        1 UBU     -0.119100
     22 C15         4.9590    1.3810    0.1180 c3        1 UBU     -0.084400
     23 C16         4.7480    2.6230   -0.7330 c3        1 UBU     -0.070700
     24 C17         5.6570    3.7330   -0.2410 c3        1 UBU     -0.092100
     25 C18         5.0190    2.3470   -2.1980 c3        1 UBU     -0.092100
     26 O25         5.1050   -0.8980    1.6620 o         1 UBU     -0.612100
     27 H23        -4.9210   -0.1000   -1.8040 ha        1 UBU      0.139000
     28 H22        -7.0280    0.7010   -2.8860 ha        1 UBU      0.133500
     29 H21        -9.1320    0.8630   -1.5510 ha        1 UBU      0.133000
     30 H20        -9.1270    0.2320    0.8630 ha        1 UBU      0.133500
     31 H19        -7.0260   -0.5560    1.9450 ha        1 UBU      0.139000
     32 H2         -4.6460   -0.7920    1.9000 h1        1 UBU      0.065700
     33 H2A        -4.4440   -1.9860    0.5250 h1        1 UBU      0.065700
     34 HN5        -1.4480    0.9630   -0.3790 hn        1 UBU      0.322500
     35 H6          0.0600    0.9870    1.5880 h1        1 UBU      0.105200
     36 H6A         0.1830   -0.7840    1.3700 h1        1 UBU      0.105200
     37 HO8         0.7970    1.6490   -2.0890 ho        1 UBU      0.479000
     38 HN9         2.6150    1.2100    1.3260 hn        1 UBU      0.447800
     39 H10         3.7210    0.1140   -1.1500 h1        1 UBU      0.082700
     40 HN12        3.4310   -2.1690   -0.7240 hn        1 UBU      0.335500
     41 H13         5.0350   -3.2660    1.5390 h1        1 UBU      0.060200
     42 H13A        3.5080   -4.0430    0.9090 h1        1 UBU      0.060200
     43 H14         4.6370   -4.4270   -1.3250 hc        1 UBU      0.041700
     44 H14A        6.1620   -3.6950   -0.6750 hc        1 UBU      0.041700
     45 H14B        5.5000   -5.2140    0.0610 hc        1 UBU      0.041700
     46 H15         5.0380    1.6680    1.2010 hc        1 UBU      0.066200
     47 H15A        5.9330    0.8980   -0.1620 hc        1 UBU      0.066200
     48 H16         3.6830    2.9740   -0.6260 hc        1 UBU      0.047700
     49 H17         6.7270    3.4180   -0.2990 hc        1 UBU      0.036200
     50 H17A        5.5220    4.6480   -0.8670 hc        1 UBU      0.036200
     51 H17B        5.4220    3.9910    0.8200 hc        1 UBU      0.036200
     52 H18         6.0680    1.9950   -2.3440 hc        1 UBU      0.036200
     53 H18A        4.3260    1.5650   -2.5910 hc        1 UBU      0.036200
     54 H18B        4.8730    3.2780   -2.7970 hc        1 UBU      0.036200
@<TRIPOS>BOND
     1    1    2 ar  
     2    1    6 ar  
     3    1   27 1   
     4    2    3 ar  
     5    2   28 1   
     6    3    4 ar  
     7    3   29 1   
     8    4    5 ar  
     9    4   30 1   
    10    5    6 ar  
    11    5   31 1   
    12    6    7 1   
    13    7    8 1   
    14    7   32 1   
    15    7   33 1   
    16    8    9 1   
    17    9   10 2   
    18    9   11 1   
    19   11   12 1   
    20   11   34 1   
    21   12   13 1   
    22   12   35 1   
    23   12   36 1   
    24   13   14 2   
    25   13   15 1   
    26   13   16 1   
    27   15   37 1   
    28   16   17 1   
    29   16   38 1   
    30   17   18 1   
    31   17   22 1   
    32   17   39 1   
    33   18   19 1   
    34   18   26 2   
    35   19   20 1   
    36   19   40 1   
    37   20   21 1   
    38   20   41 1   
    39   20   42 1   
    40   21   43 1   
    41   21   44 1   
    42   21   45 1   
    43   22   23 1   
    44   22   46 1   
    45   22   47 1   
    46   23   24 1   
    47   23   25 1   
    48   23   48 1   
    49   24   49 1   
    50   24   50 1   
    51   24   51 1   
    52   25   52 1   
    53   25   53 1   
    54   25   54 1   
@<TRIPOS>SUBSTRUCTURE
     1 UBU         1 TEMP              0 ****  ****    0 ROOT
