@<TRIPOS>MOLECULE
UBU
   54    50     1     0     0
SMALL
bcc


@<TRIPOS>ATOM
      1 C23        -1.7530    4.7190   -4.1410 c1        1 UBU     -0.106000
      2 C22        -2.8220    5.1710   -4.9080 c1        1 UBU     -0.124750
      3 C21        -2.6020    5.6390   -6.2040 c1        1 UBU     -0.124750
      4 C20        -1.3140    5.6540   -6.7270 c1        1 UBU     -0.124750
      5 C19        -0.2510    5.2060   -5.9660 c1        1 UBU     -0.124750
      6 C1         -0.4720    4.7350   -4.6640 c1        1 UBU     -0.122000
      7 C2          0.7210    4.2270   -3.8150 c2        1 UBU      0.037000
      8 O3          0.5710    2.8230   -3.5640 os        1 UBU     -0.271000
      9 C4          1.4220    2.3190   -2.5150 c2        1 UBU      0.383000
     10 O26         2.6050    2.6770   -2.4530 o         1 UBU     -0.393000
     11 N5          0.9500    1.3040   -1.6600 n         1 UBU     -0.305000
     12 C6          1.8670    0.3630   -1.1060 c3        1 UBU     -0.738000
     13 P7          1.3330   -0.0820    0.5950 p5        1 UBU      2.773000
     14 O24         0.1880    0.7980    1.0030 o         1 UBU     -1.144000
     15 O8          2.5430    0.1230    1.6040 oh        1 UBU     -0.821000
     16 N9          0.8410   -1.6920    0.6240 n3        1 UBU     -0.921000
     17 C10         0.2850   -2.2580    1.8340 c3        1 UBU      0.013000
     18 C11         1.2730   -3.2700    2.4240 c2        1 UBU      0.274000
     19 N12         1.5980   -3.2230    3.8360 n         1 UBU     -0.367000
     20 C13         2.5780   -4.0740    4.3580 c3        1 UBU     -0.035000
     21 C14         2.9180   -3.6410    5.7870 c3        1 UBU     -0.239000
     22 C15        -0.9980   -2.9410    1.5160 c3        1 UBU     -0.167000
     23 C16        -2.0930   -2.3610    2.3660 c3        1 UBU     -0.104000
     24 C17        -2.5270   -3.3980    3.4430 c3        1 UBU     -0.214500
     25 C18        -3.2800   -2.0150    1.4950 c3        1 UBU     -0.214500
     26 O25         1.9030   -4.0390    1.6650 o         1 UBU     -0.368000
     27 H23        -1.9120    4.3800   -3.2010 ha        1 UBU      0.133000
     28 H22        -3.7270    5.1600   -4.5400 ha        1 UBU      0.138250
     29 H21        -3.3400    5.9500   -6.7320 ha        1 UBU      0.138250
     30 H20        -1.1580    5.9880   -7.6480 ha        1 UBU      0.138250
     31 H19         0.6680    5.2170   -6.3410 ha        1 UBU      0.138250
     32 H2          0.7430    4.7030   -2.9780 h4        1 UBU      0.114500
     33 H2A         1.5550    4.3820   -4.3010 h4        1 UBU      0.114500
     34 HN5         0.0230    1.1730   -1.5560 hn        1 UBU      0.249000
     35 H6          1.8850   -0.4070   -1.6400 h1        1 UBU      0.142500
     36 H6A         2.7870    0.7700   -1.0760 h1        1 UBU      0.142500
     37 HO8         2.4270    0.8570    2.0470 ho        1 UBU      0.282000
     38 HN9         0.9680   -2.2470   -0.1500 hn        1 UBU      0.255000
     39 H10         0.1180   -1.5240    2.5040 h1        1 UBU      0.134000
     40 HN12        1.2490   -2.5910    4.3460 hn        1 UBU      0.227000
     41 H13         3.3600   -4.0270    3.8180 h1        1 UBU      0.101500
     42 H13A        2.2460   -4.9830    4.3670 h1        1 UBU      0.101500
     43 H14         3.6910   -4.1660    6.1160 hc        1 UBU      0.082333
     44 H14A        3.1430   -2.6850    5.7950 hc        1 UBU      0.082333
     45 H14B        2.1530   -3.7970    6.3610 hc        1 UBU      0.082333
     46 H15        -1.2190   -2.8050    0.5470 hc        1 UBU      0.102000
     47 H15A       -0.9150   -3.8800    1.6950 hc        1 UBU      0.102000
     48 H16        -1.7640   -1.5520    2.8080 hc        1 UBU      0.078000
     49 H17        -1.8050   -3.4930    4.1230 hc        1 UBU      0.077833
     50 H17A       -2.6900   -4.2560    3.0200 hc        1 UBU      0.077833
     51 H17B       -3.3650   -3.0830    3.8890 hc        1 UBU      0.077833
     52 H18        -4.0250   -1.7570    2.0530 hc        1 UBU      0.077833
     53 H18A       -3.0440   -1.2740    0.9010 hc        1 UBU      0.077833
     54 H18B       -3.5360   -2.8160    0.9460 hc        1 UBU      0.077833
@<TRIPOS>BOND
     1    1    6 1   
     2    1   27 1   
     3    2    3 1   
     4    2   28 1   
     5    3   29 1   
     6    4    5 1   
     7    4   30 1   
     8    5   31 1   
     9    7    8 1   
    10    7   32 1   
    11    7   33 1   
    12    8    9 1   
    13    9   10 1   
    14    9   11 1   
    15   11   12 1   
    16   11   34 1   
    17   12   13 1   
    18   12   35 1   
    19   12   36 1   
    20   13   14 1   
    21   13   15 1   
    22   13   16 1   
    23   15   37 1   
    24   16   17 1   
    25   16   38 1   
    26   17   18 1   
    27   17   22 1   
    28   17   39 1   
    29   18   19 1   
    30   18   26 1   
    31   19   20 1   
    32   19   40 1   
    33   20   21 1   
    34   20   41 1   
    35   20   42 1   
    36   21   43 1   
    37   21   44 1   
    38   21   45 1   
    39   22   23 1   
    40   22   46 1   
    41   22   47 1   
    42   23   24 1   
    43   23   25 1   
    44   23   48 1   
    45   24   49 1   
    46   24   50 1   
    47   24   51 1   
    48   25   52 1   
    49   25   53 1   
    50   25   54 1   
@<TRIPOS>SUBSTRUCTURE
     1 UBU         1 TEMP              0 ****  ****    0 ROOT
