@<TRIPOS>MOLECULE
UBV
   65    65     1     0     0
SMALL
bcc


@<TRIPOS>ATOM
      1 C3         -7.7630    0.3820    1.7870 ca        1 UBV     -0.108500
      2 C2         -8.9780   -0.1620    1.3710 ca        1 UBV     -0.135500
      3 C1         -9.3410   -0.1160    0.0250 ca        1 UBV     -0.127000
      4 C6         -8.4880    0.4760   -0.9060 ca        1 UBV     -0.135500
      5 C5         -7.2760    1.0260   -0.4930 ca        1 UBV     -0.108500
      6 C4         -6.9090    0.9830    0.8570 ca        1 UBV     -0.113300
      7 C7         -5.6300    1.6050    1.3150 c3        1 UBV      0.189700
      8 O8         -4.5740    1.3600    0.3780 os        1 UBV     -0.442900
      9 C9         -3.6980    0.3320    0.6780 c         1 UBV      0.724100
     10 O21        -3.8620   -0.3190    1.7210 o         1 UBV     -0.574000
     11 N10        -2.6550    0.2460   -0.2360 n         1 UBV     -0.487900
     12 C11        -1.9250   -0.9880   -0.3210 c3        1 UBV     -0.210200
     13 P12        -0.5780   -0.7450   -1.3150 p5        1 UBV      1.576200
     14 O22        -0.9190    0.0080   -2.5280 o         1 UBV     -0.862300
     15 O23        -0.2180   -2.2700   -1.6950 oh        1 UBV     -0.807400
     16 N13         0.5900   -0.1750   -0.4200 n3        1 UBV     -1.001300
     17 C14         1.8310    0.1850   -1.0450 c3        1 UBV      0.143500
     18 C15         2.8890   -0.9540   -0.8610 c         1 UBV      0.617100
     19 O28         2.8280   -1.9050   -1.6830 o         1 UBV     -0.687100
     20 C24         2.4010    1.5410   -0.6190 c3        1 UBV     -0.088400
     21 C25         1.5810    2.7280   -1.1020 c3        1 UBV     -0.064700
     22 C26         2.1740    4.0050   -0.5360 c3        1 UBV     -0.096600
     23 C27         1.5180    2.8050   -2.6130 c3        1 UBV     -0.096600
     24 N16         3.7400   -0.9000    0.1860 n         1 UBV     -0.493900
     25 C17         4.7870   -1.8640    0.4580 c3        1 UBV     -0.042300
     26 C18         5.3160   -1.6810    1.9320 c         1 UBV      0.918600
     27 O19         5.2690   -0.5250    2.4410 o         1 UBV     -0.826300
     28 C29         5.9630   -1.7850   -0.5410 c3        1 UBV     -0.060700
     29 C30         6.9630   -2.8830   -0.2080 c3        1 UBV     -0.078400
     30 C           6.6150   -0.4190   -0.5120 c3        1 UBV     -0.092100
     31 C31         7.8770   -3.2000   -1.3630 c3        1 UBV     -0.086100
     32 O20         5.7480   -2.7150    2.5020 o         1 UBV     -0.826300
     33 H3         -7.4710    0.3300    2.8470 ha        1 UBV      0.140500
     34 H2         -9.6460   -0.6340    2.1060 ha        1 UBV      0.129500
     35 H1        -10.2970   -0.5490   -0.3010 ha        1 UBV      0.127000
     36 H6         -8.7690    0.5070   -1.9690 ha        1 UBV      0.129500
     37 H5         -6.5930    1.4880   -1.2220 ha        1 UBV      0.140500
     38 H7         -5.7230    2.7280    1.3060 h1        1 UBV      0.075200
     39 H7A        -5.3460    1.2490    2.3410 h1        1 UBV      0.075200
     40 HN10       -2.8080    0.6920   -1.1240 hn        1 UBV      0.334500
     41 H11        -1.6750   -1.3270    0.7250 h1        1 UBV      0.105200
     42 H11A       -2.5560   -1.8250   -0.7400 h1        1 UBV      0.105200
     43 HO23        0.6860   -2.4850   -1.9360 ho        1 UBV      0.501000
     44 HN13        0.5810   -0.0730    0.5630 hn        1 UBV      0.449800
     45 H14         1.6390    0.2280   -2.1650 h1        1 UBV      0.085700
     46 H24         2.4770    1.5960    0.5000 hc        1 UBV      0.059200
     47 H24A        3.4410    1.6210   -1.0350 hc        1 UBV      0.059200
     48 H25         0.5300    2.6270   -0.7080 hc        1 UBV      0.048700
     49 H26         3.2120    4.1550   -0.9170 hc        1 UBV      0.035867
     50 H26A        1.5550    4.8840   -0.8380 hc        1 UBV      0.035867
     51 H26B        2.2090    3.9600    0.5790 hc        1 UBV      0.035867
     52 H27         2.5350    2.6800   -3.0570 hc        1 UBV      0.035867
     53 H27A        0.8450    2.0120   -3.0250 hc        1 UBV      0.035867
     54 H27B        1.1150    3.7970   -2.9300 hc        1 UBV      0.035867
     55 HN16        3.7630   -0.0970    0.7830 hn        1 UBV      0.337500
     56 H17         4.3360   -2.8950    0.3730 h1        1 UBV      0.061700
     57 H29         5.5550   -1.9730   -1.5750 hc        1 UBV      0.036700
     58 H30         7.5590   -2.5720    0.6910 hc        1 UBV      0.062700
     59 H30A        6.4040   -3.8090    0.0920 hc        1 UBV      0.062700
     60 H           5.9510    0.3440   -0.9880 hc        1 UBV      0.030367
     61 HA          6.8050   -0.1080    0.5460 hc        1 UBV      0.030367
     62 HB          7.5830   -0.4320   -1.0680 hc        1 UBV      0.030367
     63 H31         7.2900   -3.5280   -2.2560 hc        1 UBV      0.017700
     64 H31A        8.4830   -2.3080   -1.6550 hc        1 UBV      0.017700
     65 H31B        8.5790   -4.0230   -1.0840 hc        1 UBV      0.017700
@<TRIPOS>BOND
     1    1    2 ar  
     2    1    6 ar  
     3    1   33 1   
     4    2    3 ar  
     5    2   34 1   
     6    3    4 ar  
     7    3   35 1   
     8    4    5 ar  
     9    4   36 1   
    10    5    6 ar  
    11    5   37 1   
    12    6    7 1   
    13    7    8 1   
    14    7   38 1   
    15    7   39 1   
    16    8    9 1   
    17    9   10 2   
    18    9   11 1   
    19   11   12 1   
    20   11   40 1   
    21   12   13 1   
    22   12   41 1   
    23   12   42 1   
    24   13   14 2   
    25   13   15 1   
    26   13   16 1   
    27   15   43 1   
    28   16   17 1   
    29   16   44 1   
    30   17   18 1   
    31   17   20 1   
    32   17   45 1   
    33   18   19 2   
    34   18   24 1   
    35   20   21 1   
    36   20   46 1   
    37   20   47 1   
    38   21   22 1   
    39   21   23 1   
    40   21   48 1   
    41   22   49 1   
    42   22   50 1   
    43   22   51 1   
    44   23   52 1   
    45   23   53 1   
    46   23   54 1   
    47   24   25 1   
    48   24   55 1   
    49   25   26 1   
    50   25   28 1   
    51   25   56 1   
    52   26   27 1   
    53   26   32 1   
    54   28   29 1   
    55   28   30 1   
    56   28   57 1   
    57   29   31 1   
    58   29   58 1   
    59   29   59 1   
    60   30   60 1   
    61   30   61 1   
    62   30   62 1   
    63   31   63 1   
    64   31   64 1   
    65   31   65 1   
@<TRIPOS>SUBSTRUCTURE
     1 UBV         1 TEMP              0 ****  ****    0 ROOT
