@<TRIPOS>MOLECULE
UBW
   62    62     1     0     0
SMALL
bcc


@<TRIPOS>ATOM
      1 C3          7.4460    1.6350    0.8530 ca        1 UBW     -0.109500
      2 C2          8.6230    0.9100    0.6740 ca        1 UBW     -0.135000
      3 C1          8.7790    0.0950   -0.4470 ca        1 UBW     -0.129000
      4 C6          7.7560    0.0050   -1.3900 ca        1 UBW     -0.135000
      5 C5          6.5800    0.7340   -1.2170 ca        1 UBW     -0.109500
      6 C4          6.4200    1.5540   -0.0950 ca        1 UBW     -0.113300
      7 C7          5.1840    2.3730    0.0840 c3        1 UBW      0.188700
      8 O8          4.0320    1.7030   -0.4370 os        1 UBW     -0.443900
      9 C9          3.2540    0.9990    0.4680 c         1 UBW      0.730100
     10 O21         3.4520    1.1530    1.6830 o         1 UBW     -0.578000
     11 N10         2.3560    0.1490   -0.1580 n         1 UBW     -0.487900
     12 C11         1.2030   -0.2930    0.5720 c3        1 UBW     -0.214200
     13 P12         0.4480   -1.5290   -0.3070 p5        1 UBW      1.571200
     14 O22         0.5620   -1.3590   -1.7610 o         1 UBW     -0.872300
     15 O23         1.3680   -2.8180    0.0420 oh        1 UBW     -0.792400
     16 N13        -0.9590   -1.7520    0.3360 n3        1 UBW     -1.002300
     17 C14        -2.1650   -1.5360   -0.4190 c3        1 UBW      0.143500
     18 C15        -3.0380   -0.4360    0.2600 c         1 UBW      0.620100
     19 O28        -3.1710   -0.4560    1.5040 o         1 UBW     -0.642100
     20 C24        -3.0490   -2.7920   -0.5370 c3        1 UBW     -0.081400
     21 C25        -4.0210   -2.7220   -1.7060 c3        1 UBW     -0.094700
     22 C26        -3.3140   -2.9410   -3.0270 c3        1 UBW     -0.082600
     23 C27        -5.1030   -3.7690   -1.5200 c3        1 UBW     -0.082600
     24 N16        -3.5350    0.5530   -0.5530 n         1 UBW     -0.486900
     25 C17        -4.7210    1.3090   -0.1700 c3        1 UBW     -0.070300
     26 C29        -4.5030    2.8210   -0.2520 c3        1 UBW     -0.066400
     27 C30        -3.5610    3.3360    0.8140 c3        1 UBW     -0.079400
     28 C31        -3.4530    4.8390    0.7760 c3        1 UBW     -0.088100
     29 C18        -5.9590    0.9470   -1.0750 c         1 UBW      0.906600
     30 O19        -5.7790    0.1510   -2.0410 o         1 UBW     -0.829800
     31 O20        -7.0560    1.4770   -0.7640 o         1 UBW     -0.829800
     32 H3          7.3200    2.2670    1.7450 ha        1 UBW      0.140500
     33 H2          9.4260    0.9770    1.4220 ha        1 UBW      0.129000
     34 H1          9.7060   -0.4800   -0.5850 ha        1 UBW      0.126000
     35 H6          7.8730   -0.6420   -2.2710 ha        1 UBW      0.129000
     36 H5          5.7640    0.6630   -1.9540 ha        1 UBW      0.140500
     37 H7          5.0320    2.6510    1.1610 h1        1 UBW      0.075700
     38 H7A         5.2440    3.3020   -0.5500 h1        1 UBW      0.075700
     39 HN10        2.2010    0.2960   -1.1390 hn        1 UBW      0.338500
     40 H11         1.5520   -0.6510    1.5850 h1        1 UBW      0.104200
     41 H11A        0.5060    0.5650    0.7970 h1        1 UBW      0.104200
     42 HO23        1.7860   -3.2160   -0.7170 ho        1 UBW      0.472000
     43 HN13       -1.1350   -1.9770    1.2850 hn        1 UBW      0.459800
     44 H14        -1.8490   -1.2150   -1.4600 h1        1 UBW      0.089700
     45 H24        -2.4050   -3.7030   -0.6580 hc        1 UBW      0.046200
     46 H24A       -3.6230   -2.9120    0.4200 hc        1 UBW      0.046200
     47 H25        -4.5280   -1.7080   -1.7310 hc        1 UBW      0.123700
     48 H26        -4.0510   -2.8760   -3.8650 hc        1 UBW      0.028867
     49 H26A       -2.5290   -2.1650   -3.1940 hc        1 UBW      0.028867
     50 H26B       -2.8300   -3.9470   -3.0570 hc        1 UBW      0.028867
     51 H27        -5.6710   -3.5770   -0.5790 hc        1 UBW      0.028867
     52 H27A       -5.8190   -3.7300   -2.3760 hc        1 UBW      0.028867
     53 H27B       -4.6600   -4.7930   -1.4700 hc        1 UBW      0.028867
     54 HN16       -3.5490    0.3350   -1.5350 hn        1 UBW      0.311500
     55 H17        -4.9960    1.0440    0.8910 h1        1 UBW      0.072700
     56 H29        -4.1190    3.1040   -1.2660 hc        1 UBW      0.051700
     57 H29A       -5.5150    3.2950   -0.1300 hc        1 UBW      0.051700
     58 H30        -3.9270    3.0100    1.8230 hc        1 UBW      0.035700
     59 H30A       -2.5440    2.8850    0.6730 hc        1 UBW      0.035700
     60 H31        -3.0690    5.1820   -0.2150 hc        1 UBW      0.020700
     61 H31A       -4.4530    5.3090    0.9430 hc        1 UBW      0.020700
     62 H31B       -2.7560    5.2030    1.5690 hc        1 UBW      0.020700
@<TRIPOS>BOND
     1    1    2 ar  
     2    1    6 ar  
     3    1   32 1   
     4    2    3 ar  
     5    2   33 1   
     6    3    4 ar  
     7    3   34 1   
     8    4    5 ar  
     9    4   35 1   
    10    5    6 ar  
    11    5   36 1   
    12    6    7 1   
    13    7    8 1   
    14    7   37 1   
    15    7   38 1   
    16    8    9 1   
    17    9   10 2   
    18    9   11 1   
    19   11   12 1   
    20   11   39 1   
    21   12   13 1   
    22   12   40 1   
    23   12   41 1   
    24   13   14 2   
    25   13   15 1   
    26   13   16 1   
    27   15   42 1   
    28   16   17 1   
    29   16   43 1   
    30   17   18 1   
    31   17   20 1   
    32   17   44 1   
    33   18   19 2   
    34   18   24 1   
    35   20   21 1   
    36   20   45 1   
    37   20   46 1   
    38   21   22 1   
    39   21   23 1   
    40   21   47 1   
    41   22   48 1   
    42   22   49 1   
    43   22   50 1   
    44   23   51 1   
    45   23   52 1   
    46   23   53 1   
    47   24   25 1   
    48   24   54 1   
    49   25   26 1   
    50   25   29 1   
    51   25   55 1   
    52   26   27 1   
    53   26   56 1   
    54   26   57 1   
    55   27   28 1   
    56   27   58 1   
    57   27   59 1   
    58   28   60 1   
    59   28   61 1   
    60   28   62 1   
    61   29   30 1   
    62   29   31 1   
@<TRIPOS>SUBSTRUCTURE
     1 UBW         1 TEMP              0 ****  ****    0 ROOT
