@<TRIPOS>MOLECULE
UBX
   51    47     1     0     0
SMALL
bcc


@<TRIPOS>ATOM
      1 C3         -1.7110   -5.2480    0.5850 c1        1 UBX     -0.102000
      2 C2         -2.3110   -5.9570    1.6150 c1        1 UBX     -0.132000
      3 C1         -2.4320   -7.3340    1.5290 c1        1 UBX     -0.122000
      4 C6         -1.9550   -8.0020    0.4150 c2        1 UBX     -0.131000
      5 C5         -1.3560   -7.2940   -0.6150 c1        1 UBX     -0.118000
      6 C4         -1.2340   -5.9170   -0.5300 c1        1 UBX     -0.093000
      7 C7         -0.6240   -5.1300   -1.6930 c3        1 UBX      0.039000
      8 O8          0.4180   -4.2950   -1.2070 os        1 UBX     -0.275000
      9 C9          0.6370   -3.1330   -1.9950 c2        1 UBX      0.371000
     10 O19         0.3420   -3.1350   -3.1720 o         1 UBX     -0.379000
     11 N10         1.2990   -1.9920   -1.4230 n         1 UBX     -0.296000
     12 C11         0.9860   -0.6610   -1.8970 c3        1 UBX     -0.748000
     13 P12         1.2930    0.5560   -0.5560 p5        1 UBX      2.779000
     14 O21         2.7260    0.9260   -0.5450 o         1 UBX     -1.142000
     15 O20         0.9030   -0.0840    0.8360 oh        1 UBX     -0.834000
     16 N13         0.3700    1.9180   -0.8190 n3        1 UBX     -0.920000
     17 C14         0.4220    3.0040    0.1050 c3        1 UBX      0.013000
     18 C15        -0.8230    3.0020    0.9530 c2        1 UBX      0.281000
     19 N16        -0.7190    2.9050    2.3700 n         1 UBX     -0.380000
     20 C17        -1.9080    2.8440    3.1730 c3        1 UBX     -0.079000
     21 C22         0.5120    4.3160   -0.6580 c3        1 UBX     -0.171000
     22 O23        -1.9120    3.1160    0.4320 o         1 UBX     -0.370000
     23 C27         1.5000    5.2440    0.0410 c3        1 UBX     -0.107000
     24 C28         2.8040    5.2520   -0.7170 c3        1 UBX     -0.212500
     25 C29         0.9330    6.6490    0.0840 c3        1 UBX     -0.212500
     26 H3         -1.6250   -4.2840    0.6450 ha        1 UBX      0.144000
     27 H2         -2.6470   -5.4850    2.4010 DU        1 UBX      0.133500
     28 H1         -2.8550   -7.8330    2.2540 DU        1 UBX      0.133500
     29 H6         -2.0410   -8.9710    0.3540 ha        1 UBX      0.134000
     30 H5         -1.0200   -7.7650   -1.3990 ha        1 UBX      0.134000
     31 H7         -0.2590   -5.7570   -2.3570 h1        1 UBX      0.105000
     32 H7A        -1.3170   -4.5770   -2.1120 h1        1 UBX      0.105000
     33 HN10        1.9450   -2.1100   -0.7880 hn        1 UBX      0.234000
     34 H11         1.5520   -0.4470   -2.6700 h1        1 UBX      0.152000
     35 H11A        0.0430   -0.6230   -2.1630 h1        1 UBX      0.152000
     36 HO20        1.6380   -0.3630    1.2500 ho        1 UBX      0.278000
     37 HN13       -0.1460    1.9810   -1.5680 hn        1 UBX      0.260000
     38 H14         1.2080    2.9060    0.6790 h1        1 UBX      0.134000
     39 H17        -1.6590    2.7620    4.1210 h1        1 UBX      0.085000
     40 H17A       -2.4350    3.6650    3.0420 h1        1 UBX      0.085000
     41 H22         0.8180    4.1420   -1.5710 hc        1 UBX      0.102500
     42 H22A       -0.3700    4.7390   -0.6850 hc        1 UBX      0.102500
     43 H27         1.6550    4.9280    0.9510 hc        1 UBX      0.086000
     44 H28         3.4650    5.7850   -0.2260 hc        1 UBX      0.077500
     45 H28A        2.6640    5.6420   -1.6050 hc        1 UBX      0.077500
     46 H28B        3.1310    4.3360   -0.8120 hc        1 UBX      0.077500
     47 H29         0.7200    6.9440   -0.8280 hc        1 UBX      0.077500
     48 H29A        1.5960    7.2580    0.4780 hc        1 UBX      0.077500
     49 H29B        0.1200    6.6560    0.6280 hc        1 UBX      0.077500
     50 H25         0.1020    2.8550    2.7650 hn        1 UBX      0.231000
     51 H26        -2.4440    2.0640    2.9060 h1        1 UBX      0.085000
@<TRIPOS>BOND
     1    1    6 1   
     2    1   26 1   
     3    2    3 1   
     4    3    4 1   
     5    4    5 1   
     6    4   29 1   
     7    5   30 1   
     8    6    7 1   
     9    7    8 1   
    10    7   31 1   
    11    7   32 1   
    12    8    9 1   
    13    9   10 1   
    14    9   11 1   
    15   11   12 1   
    16   11   33 1   
    17   12   13 1   
    18   12   34 1   
    19   12   35 1   
    20   13   14 1   
    21   13   15 1   
    22   13   16 1   
    23   15   36 1   
    24   16   17 1   
    25   16   37 1   
    26   17   18 1   
    27   17   21 1   
    28   17   38 1   
    29   18   19 1   
    30   18   22 1   
    31   19   20 1   
    32   19   50 1   
    33   20   39 1   
    34   20   40 1   
    35   20   51 1   
    36   21   23 1   
    37   21   41 1   
    38   21   42 1   
    39   23   24 1   
    40   23   25 1   
    41   23   43 1   
    42   24   44 1   
    43   24   45 1   
    44   24   46 1   
    45   25   47 1   
    46   25   48 1   
    47   25   49 1   
@<TRIPOS>SUBSTRUCTURE
     1 UBX         1 TEMP              0 ****  ****    0 ROOT
