@<TRIPOS>MOLECULE
UBX
   51    51     1     0     0
SMALL
bcc


@<TRIPOS>ATOM
      1 C3         -6.3900    1.0820    0.7410 ca        1 UBX     -0.108500
      2 C2         -7.5550    1.3660    0.0310 ca        1 UBX     -0.131500
      3 C1         -7.7040    0.9150   -1.2810 ca        1 UBX     -0.120000
      4 C6         -6.6850    0.1760   -1.8830 ca        1 UBX     -0.131500
      5 C5         -5.5210   -0.1160   -1.1740 ca        1 UBX     -0.108500
      6 C4         -5.3700    0.3340    0.1410 ca        1 UBX     -0.103300
      7 C7         -4.1520   -0.0030    0.9300 c3        1 UBX      0.196700
      8 O8         -3.0160    0.1720    0.0520 os        1 UBX     -0.426900
      9 C9         -1.7980   -0.0920    0.6240 c         1 UBX      0.710100
     10 O19        -1.7300   -0.3630    1.8370 o         1 UBX     -0.592000
     11 N10        -0.7380   -0.1220   -0.2890 n         1 UBX     -0.479900
     12 C11         0.5730    0.2070    0.2140 c3        1 UBX     -0.235200
     13 P12         1.5460   -1.1980    0.2240 p5        1 UBX      1.581200
     14 O21         1.6440   -1.8680   -1.0760 o         1 UBX     -0.847300
     15 O20         0.8610   -2.0940    1.3730 oh        1 UBX     -0.791400
     16 N13         2.9460   -0.7400    0.8020 n3        1 UBX     -0.994300
     17 C14         4.0220   -0.4660   -0.1050 c3        1 UBX      0.167500
     18 C15         5.0270   -1.6570   -0.1840 c         1 UBX      0.632100
     19 N16         4.7340   -2.6510   -1.0830 n         1 UBX     -0.563900
     20 C17         5.5420   -3.8210   -1.2230 c3        1 UBX      0.076300
     21 C22         4.8480    0.7820    0.2400 c3        1 UBX     -0.084400
     22 O23         6.0450   -1.6750    0.5360 o         1 UBX     -0.617100
     23 C27         4.0660    2.0820    0.1520 c3        1 UBX     -0.067700
     24 C28         4.8820    3.2030    0.7680 c3        1 UBX     -0.093100
     25 C29         3.7080    2.4300   -1.2780 c3        1 UBX     -0.093100
     26 H3         -6.2730    1.4450    1.7730 ha        1 UBX      0.139000
     27 H2         -8.3570    1.9500    0.5060 ha        1 UBX      0.135500
     28 H1         -8.6240    1.1420   -1.8400 ha        1 UBX      0.134000
     29 H6         -6.7990   -0.1780   -2.9180 ha        1 UBX      0.135500
     30 H5         -4.7120   -0.6950   -1.6450 ha        1 UBX      0.139000
     31 H7         -4.0210    0.6710    1.8190 h1        1 UBX      0.066700
     32 H7A        -4.1710   -1.0720    1.2730 h1        1 UBX      0.066700
     33 HN10       -0.9660    0.2650   -1.1850 hn        1 UBX      0.321500
     34 H11         1.0380    1.0080   -0.4280 h1        1 UBX      0.099700
     35 H11A        0.4990    0.6630    1.2440 h1        1 UBX      0.099700
     36 HO20       -0.0340   -1.8990    1.6470 ho        1 UBX      0.495000
     37 HN13        3.2020   -0.7310    1.7570 hn        1 UBX      0.452800
     38 H14         3.5630   -0.3160   -1.1320 h1        1 UBX      0.073700
     39 H17         6.4930   -3.7130   -0.6360 h1        1 UBX      0.044033
     40 H17A        4.9880   -4.7270   -0.8540 h1        1 UBX      0.044033
     41 H22         5.2750    0.6640    1.2720 hc        1 UBX      0.068200
     42 H22A        5.7160    0.8190   -0.4700 hc        1 UBX      0.068200
     43 H27         3.1130    1.9830    0.7440 hc        1 UBX      0.036700
     44 H28         5.8480    3.3280    0.2220 hc        1 UBX      0.036200
     45 H28A        4.3180    4.1650    0.7180 hc        1 UBX      0.036200
     46 H28B        5.1080    2.9790    1.8380 hc        1 UBX      0.036200
     47 H29         4.6260    2.4690   -1.9130 hc        1 UBX      0.036200
     48 H29A        3.0120    1.6720   -1.7110 hc        1 UBX      0.036200
     49 H29B        3.2090    3.4280   -1.3190 hc        1 UBX      0.036200
     50 H25         3.8700   -2.6310   -1.5810 hn        1 UBX      0.346500
     51 H26         5.7950   -3.9750   -2.3070 h1        1 UBX      0.044033
@<TRIPOS>BOND
     1    1    2 ar  
     2    1    6 ar  
     3    1   26 1   
     4    2    3 ar  
     5    2   27 1   
     6    3    4 ar  
     7    3   28 1   
     8    4    5 ar  
     9    4   29 1   
    10    5    6 ar  
    11    5   30 1   
    12    6    7 1   
    13    7    8 1   
    14    7   31 1   
    15    7   32 1   
    16    8    9 1   
    17    9   10 2   
    18    9   11 1   
    19   11   12 1   
    20   11   33 1   
    21   12   13 1   
    22   12   34 1   
    23   12   35 1   
    24   13   14 2   
    25   13   15 1   
    26   13   16 1   
    27   15   36 1   
    28   16   17 1   
    29   16   37 1   
    30   17   18 1   
    31   17   21 1   
    32   17   38 1   
    33   18   19 1   
    34   18   22 2   
    35   19   20 1   
    36   19   50 1   
    37   20   39 1   
    38   20   40 1   
    39   20   51 1   
    40   21   23 1   
    41   21   41 1   
    42   21   42 1   
    43   23   24 1   
    44   23   25 1   
    45   23   43 1   
    46   24   44 1   
    47   24   45 1   
    48   24   46 1   
    49   25   47 1   
    50   25   48 1   
    51   25   49 1   
@<TRIPOS>SUBSTRUCTURE
     1 UBX         1 TEMP              0 ****  ****    0 ROOT
