@<TRIPOS>MOLECULE
UBY
   56    56     1     0     0
SMALL
bcc


@<TRIPOS>ATOM
      1 C3         -8.1310    0.2860    0.2440 ca        1 UBY     -0.115000
      2 C2         -9.1120    0.3360   -0.7430 ca        1 UBY     -0.132000
      3 C1         -8.7490    0.4140   -2.0880 ca        1 UBY     -0.132000
      4 C6         -7.4010    0.4430   -2.4430 ca        1 UBY     -0.132000
      5 C5         -6.4150    0.3960   -1.4580 ca        1 UBY     -0.115000
      6 C4         -6.7760    0.3180   -0.1100 ca        1 UBY     -0.089300
      7 C7         -5.7630    0.2900    0.9850 c3        1 UBY      0.195700
      8 O8         -4.4840   -0.0270    0.4090 os        1 UBY     -0.443900
      9 C9         -3.4550   -0.1550    1.3280 c         1 UBY      0.731100
     10 O21        -3.6910    0.1000    2.5200 o         1 UBY     -0.588000
     11 N10        -2.2880   -0.6290    0.7580 n         1 UBY     -0.492900
     12 C11        -1.0570   -0.4720    1.4740 c3        1 UBY     -0.197200
     13 P12         0.1810   -1.2680    0.6280 p5        1 UBY      1.567200
     14 O22        -0.0290   -1.2470   -0.8260 o         1 UBY     -0.870300
     15 O23        -0.0330   -2.8080    1.0830 oh        1 UBY     -0.792400
     16 N13         1.5290   -0.7560    1.2280 n3        1 UBY     -1.006300
     17 C14         2.5170   -0.1190    0.3970 c3        1 UBY      0.139500
     18 C15         3.9040   -0.8120    0.5710 c         1 UBY      0.628100
     19 O24         4.2660   -1.1510    1.7210 o         1 UBY     -0.644100
     20 C20         2.7300    1.3720    0.7290 c3        1 UBY     -0.082400
     21 C21         3.3290    2.1590   -0.4280 c3        1 UBY     -0.096700
     22 C22         2.3160    2.3860   -1.5300 c3        1 UBY     -0.083100
     23 C23         3.8380    3.4920    0.0870 c3        1 UBY     -0.083100
     24 N16         4.6130   -1.0810   -0.5720 n         1 UBY     -0.484900
     25 C17         6.0640   -1.2230   -0.5380 c3        1 UBY     -0.070300
     26 C18         6.7840   -0.0340   -1.2760 c         1 UBY      0.906600
     27 O32         6.0670    0.8250   -1.8680 o         1 UBY     -0.831800
     28 C25         6.5270   -2.5310   -1.1660 c3        1 UBY     -0.073100
     29 O19         8.0390   -0.0150   -1.2180 o         1 UBY     -0.831800
     30 H3         -8.4190    0.2190    1.3040 ha        1 UBY      0.142500
     31 H2        -10.1750    0.3120   -0.4610 ha        1 UBY      0.130000
     32 H1         -9.5250    0.4530   -2.8660 ha        1 UBY      0.127000
     33 H6         -7.1110    0.5010   -3.5020 ha        1 UBY      0.130000
     34 H5         -5.3500    0.4140   -1.7370 ha        1 UBY      0.142500
     35 H7         -5.6880    1.2930    1.4860 h1        1 UBY      0.063200
     36 H7A        -6.0160   -0.4870    1.7560 h1        1 UBY      0.063200
     37 HN10       -2.2140   -0.5970   -0.2420 hn        1 UBY      0.344500
     38 H11        -0.8240    0.6180    1.6470 h1        1 UBY      0.097200
     39 H11A       -1.2000   -0.9030    2.5080 h1        1 UBY      0.097200
     40 HO23       -0.1230   -3.4270    0.3630 ho        1 UBY      0.476000
     41 HN13        1.8700   -0.9590    2.1390 hn        1 UBY      0.463800
     42 H14         2.1570   -0.2100   -0.6740 h1        1 UBY      0.089700
     43 H20         1.7560    1.8480    1.0190 hc        1 UBY      0.042700
     44 H20A        3.4110    1.4420    1.6190 hc        1 UBY      0.042700
     45 H21         4.2160    1.6000   -0.8610 hc        1 UBY      0.127700
     46 H22         2.7820    2.9780   -2.3540 hc        1 UBY      0.028700
     47 H22A        1.9630    1.4170   -1.9560 hc        1 UBY      0.028700
     48 H22B        1.4300    2.9490   -1.1470 hc        1 UBY      0.028700
     49 H23         4.6280    3.3330    0.8590 hc        1 UBY      0.028700
     50 H23A        4.2820    4.0780   -0.7540 hc        1 UBY      0.028700
     51 H23B        3.0080    4.0870    0.5390 hc        1 UBY      0.028700
     52 HN16        4.3150   -0.5860   -1.3950 hn        1 UBY      0.312500
     53 H17         6.4060   -1.2010    0.5370 h1        1 UBY      0.070700
     54 H25         7.6440   -2.5250   -1.1730 hc        1 UBY      0.028700
     55 H25A        6.1660   -3.4120   -0.5840 hc        1 UBY      0.028700
     56 H25B        6.1650   -2.6250   -2.2170 hc        1 UBY      0.028700
@<TRIPOS>BOND
     1    1    2 ar  
     2    1    6 ar  
     3    1   30 1   
     4    2    3 ar  
     5    2   31 1   
     6    3    4 ar  
     7    3   32 1   
     8    4    5 ar  
     9    4   33 1   
    10    5    6 ar  
    11    5   34 1   
    12    6    7 1   
    13    7    8 1   
    14    7   35 1   
    15    7   36 1   
    16    8    9 1   
    17    9   10 2   
    18    9   11 1   
    19   11   12 1   
    20   11   37 1   
    21   12   13 1   
    22   12   38 1   
    23   12   39 1   
    24   13   14 2   
    25   13   15 1   
    26   13   16 1   
    27   15   40 1   
    28   16   17 1   
    29   16   41 1   
    30   17   18 1   
    31   17   20 1   
    32   17   42 1   
    33   18   19 2   
    34   18   24 1   
    35   20   21 1   
    36   20   43 1   
    37   20   44 1   
    38   21   22 1   
    39   21   23 1   
    40   21   45 1   
    41   22   46 1   
    42   22   47 1   
    43   22   48 1   
    44   23   49 1   
    45   23   50 1   
    46   23   51 1   
    47   24   25 1   
    48   24   52 1   
    49   25   26 1   
    50   25   28 1   
    51   25   53 1   
    52   26   27 1   
    53   26   29 1   
    54   28   54 1   
    55   28   55 1   
    56   28   56 1   
@<TRIPOS>SUBSTRUCTURE
     1 UBY         1 TEMP              0 ****  ****    0 ROOT
