@<TRIPOS>MOLECULE
UBZ
   59    59     1     0     0
SMALL
bcc


@<TRIPOS>ATOM
      1 C3         -7.1990    0.1750   -0.8220 ca        1 UBZ     -0.112500
      2 C2         -8.4920    0.6810   -0.9450 ca        1 UBZ     -0.133500
      3 C1         -9.5710   -0.0130   -0.3990 ca        1 UBZ     -0.130000
      4 C6         -9.3550   -1.2150    0.2780 ca        1 UBZ     -0.133500
      5 C5         -8.0630   -1.7210    0.4090 ca        1 UBZ     -0.112500
      6 C4         -6.9790   -1.0290   -0.1450 ca        1 UBZ     -0.090300
      7 C7         -5.6130   -1.6170   -0.0280 c3        1 UBZ      0.194700
      8 O8         -4.6720   -0.5300    0.0360 os        1 UBZ     -0.446900
      9 C9         -3.3440   -0.9200    0.0680 c         1 UBZ      0.726100
     10 O21        -3.0840   -2.1300    0.1530 o         1 UBZ     -0.574000
     11 N10        -2.4720    0.1500   -0.0750 n         1 UBZ     -0.477900
     12 C11        -1.1090   -0.0150    0.3350 c3        1 UBZ     -0.202200
     13 P12        -0.1660    1.2420   -0.3040 p5        1 UBZ      1.564200
     14 O22        -0.1120    1.3690   -1.7610 o         1 UBZ     -0.852300
     15 O23        -1.0320    2.5430    0.1670 oh        1 UBZ     -0.805400
     16 N13         1.1710    1.2240    0.5050 n3        1 UBZ     -1.004300
     17 C14         2.4500    1.1970   -0.1560 c3        1 UBZ      0.142500
     18 C15         3.2910   -0.0150    0.3500 c         1 UBZ      0.624100
     19 O24         3.2800   -0.2850    1.5730 o         1 UBZ     -0.647100
     20 C20         3.3000    2.4580    0.0980 c3        1 UBZ     -0.082400
     21 C21         4.3710    2.6750   -0.9610 c3        1 UBZ     -0.095700
     22 C22         3.7720    3.1630   -2.2640 c3        1 UBZ     -0.083100
     23 C23         5.3820    3.6840   -0.4500 c3        1 UBZ     -0.083100
     24 N16         3.9280   -0.7730   -0.6010 n         1 UBZ     -0.484900
     25 C17         5.0980   -1.5720   -0.2620 c3        1 UBZ     -0.068300
     26 C18         6.4130   -0.9760   -0.8920 c         1 UBZ      0.905600
     27 O32         6.3060    0.0120   -1.6750 o         1 UBZ     -0.830800
     28 C25         4.9690   -3.0240   -0.7270 c3        1 UBZ     -0.069400
     29 C26         3.9320   -3.7980    0.0410 c3        1 UBZ     -0.085100
     30 O19         7.4940   -1.5270   -0.5630 o         1 UBZ     -0.830800
     31 H3         -6.3420    0.7200   -1.2480 ha        1 UBZ      0.141000
     32 H2         -8.6590    1.6290   -1.4760 ha        1 UBZ      0.129500
     33 H1        -10.5910    0.3850   -0.4990 ha        1 UBZ      0.127000
     34 H6        -10.2040   -1.7630    0.7110 ha        1 UBZ      0.129500
     35 H5         -7.8940   -2.6650    0.9480 ha        1 UBZ      0.141000
     36 H7         -5.5030   -2.2370    0.9010 h1        1 UBZ      0.064200
     37 H7A        -5.3730   -2.2520   -0.9240 h1        1 UBZ      0.064200
     38 HN10       -2.8530    1.0590    0.1010 hn        1 UBZ      0.323500
     39 H11        -1.0290   -0.0920    1.4580 h1        1 UBZ      0.102700
     40 H11A       -0.7480   -1.0170   -0.0450 h1        1 UBZ      0.102700
     41 HO23       -1.1500    3.1970   -0.5160 ho        1 UBZ      0.470000
     42 HN13        1.2530    1.1660    1.4920 hn        1 UBZ      0.457800
     43 H14         2.2450    1.1110   -1.2680 h1        1 UBZ      0.091700
     44 H20         2.6420    3.3660    0.1340 hc        1 UBZ      0.044700
     45 H20A        3.7870    2.3590    1.1050 hc        1 UBZ      0.044700
     46 H21         4.9260    1.7060   -1.1580 hc        1 UBZ      0.125700
     47 H22         4.5810    3.3120   -3.0190 hc        1 UBZ      0.028700
     48 H22A        3.0450    2.4210   -2.6740 hc        1 UBZ      0.028700
     49 H22B        3.2400    4.1340   -2.1180 hc        1 UBZ      0.028700
     50 H23         5.8730    3.3040    0.4780 hc        1 UBZ      0.028700
     51 H23A        6.1710    3.8540   -1.2210 hc        1 UBZ      0.028700
     52 H23B        4.8890    4.6590   -0.2200 hc        1 UBZ      0.028700
     53 HN16        4.0340   -0.3360   -1.5000 hn        1 UBZ      0.312500
     54 H17         5.2320   -1.5650    0.8580 h1        1 UBZ      0.072700
     55 H25         4.7350   -3.0580   -1.8230 hc        1 UBZ      0.050200
     56 H25A        5.9810   -3.4910   -0.5840 hc        1 UBZ      0.050200
     57 H26         2.9100   -3.3850   -0.1360 hc        1 UBZ      0.019700
     58 H26A        3.9340   -4.8710   -0.2730 hc        1 UBZ      0.019700
     59 H26B        4.1390   -3.7520    1.1380 hc        1 UBZ      0.019700
@<TRIPOS>BOND
     1    1    2 ar  
     2    1    6 ar  
     3    1   31 1   
     4    2    3 ar  
     5    2   32 1   
     6    3    4 ar  
     7    3   33 1   
     8    4    5 ar  
     9    4   34 1   
    10    5    6 ar  
    11    5   35 1   
    12    6    7 1   
    13    7    8 1   
    14    7   36 1   
    15    7   37 1   
    16    8    9 1   
    17    9   10 2   
    18    9   11 1   
    19   11   12 1   
    20   11   38 1   
    21   12   13 1   
    22   12   39 1   
    23   12   40 1   
    24   13   14 2   
    25   13   15 1   
    26   13   16 1   
    27   15   41 1   
    28   16   17 1   
    29   16   42 1   
    30   17   18 1   
    31   17   20 1   
    32   17   43 1   
    33   18   19 2   
    34   18   24 1   
    35   20   21 1   
    36   20   44 1   
    37   20   45 1   
    38   21   22 1   
    39   21   23 1   
    40   21   46 1   
    41   22   47 1   
    42   22   48 1   
    43   22   49 1   
    44   23   50 1   
    45   23   51 1   
    46   23   52 1   
    47   24   25 1   
    48   24   53 1   
    49   25   26 1   
    50   25   28 1   
    51   25   54 1   
    52   26   27 1   
    53   26   30 1   
    54   28   29 1   
    55   28   55 1   
    56   28   56 1   
    57   29   57 1   
    58   29   58 1   
    59   29   59 1   
@<TRIPOS>SUBSTRUCTURE
     1 UBZ         1 TEMP              0 ****  ****    0 ROOT
