@<TRIPOS>MOLECULE
UC1
   40    42     1     0     0
SMALL
bcc


@<TRIPOS>ATOM
      1 C2          0.2870    0.4080    0.0020 c3        1 UC1     -0.166000
      2 C4          0.0390    0.1380    2.4770 c2        1 UC1     -0.164000
      3 C5          1.4440    0.2020    2.6480 c1        1 UC1     -0.054000
      4 C6          2.2710    0.4210    1.5160 c2        1 UC1     -0.215000
      5 O7          5.6270    1.2840   -4.3240 os        1 UC1     -0.100000
      6 C8          5.6080    1.2350   -2.8880 c2        1 UC1      0.075000
      7 C9          4.3300    0.9950   -2.4600 c2        1 UC1     -0.254000
      8 C10         3.4480    0.8750   -3.6850 c3        1 UC1     -0.271000
      9 C11         4.4230    1.0830   -4.8300 c1        1 UC1      0.092000
     10 C           3.8800    0.8710   -1.0780 c2        1 UC1      0.075000
     11 S           4.9470    0.9650    0.0890 s         1 UC1     -0.118000
     12 C1          1.7770    0.5110    0.2390 c2        1 UC1      0.063000
     13 C3         -0.5350    0.2230    1.2300 c2        1 UC1      0.096000
     14 Cl         -0.8970   -0.0660    3.8800 cl        1 UC1      0.017000
     15 OB         -1.8940    0.1330    1.1120 os        1 UC1     -0.185000
     16 CC         -2.4510    0.1530   -0.2110 c3        1 UC1     -0.026000
     17 CD         -3.9550    0.0350   -0.0170 c3        1 UC1     -0.136000
     18 CE         -4.6520    0.0460   -1.3370 cx        1 UC1     -0.175000
     19 CF         -6.1230    0.3690   -1.3810 cx        1 UC1     -0.205500
     20 CG         -5.1290    1.3470   -1.9300 cx        1 UC1     -0.205500
     21 H2          0.0810   -0.4600   -0.6900 hc        1 UC1      0.133500
     22 H5          3.3570    0.5070    1.7220 ha        1 UC1      0.200000
     23 H6         -0.0660    1.3510   -0.5100 hc        1 UC1      0.133500
     24 H10         2.6540    1.6620   -3.7230 hc        1 UC1      0.144500
     25 H11         2.9700   -0.1330   -3.7730 hc        1 UC1      0.144500
     26 HA1         6.7850    2.2180   -1.4270 hc        1 UC1      0.124667
     27 HA2         7.2250    0.4930   -1.7420 hc        1 UC1      0.124667
     28 HA3         7.6730    1.7700   -2.9710 hc        1 UC1      0.124667
     29 HN          1.9750    0.6660   -1.7770 hn        1 UC1      0.222000
     30 HC1        -2.1880    1.1180   -0.7180 h1        1 UC1      0.078500
     31 HC2        -2.0520   -0.7120   -0.8020 h1        1 UC1      0.078500
     32 HD         -4.1840   -0.9210    0.5260 hc        1 UC1      0.107500
     33 HF1        -6.6440    0.6070   -0.4370 hc        1 UC1      0.113250
     34 HF2        -4.3110    0.8780    0.6320 hc        1 UC1      0.107500
     35 HF3        -6.7690   -0.1930   -2.0790 hc        1 UC1      0.113250
     36 HG1        -4.2720   -0.7310   -2.0310 hc        1 UC1      0.118000
     37 HG2        -4.9430    2.2860   -1.3780 hc        1 UC1      0.113250
     38 HG3        -5.0620    1.4910   -3.0220 hc        1 UC1      0.113250
     39 N           2.5160    0.6830   -0.9350 ns        1 UC1     -0.254000
     40 CA          6.8960    1.4460   -2.2360 c3        1 UC1     -0.181000
@<TRIPOS>BOND
     1    1   12 1   
     2    1   13 1   
     3    1   21 1   
     4    1   23 1   
     5    2    3 1   
     6    2   13 1   
     7    2   14 1   
     8    3    4 1   
     9    4   12 1   
    10    4   22 1   
    11    5    6 1   
    12    5    9 1   
    13    6    7 1   
    14    6   40 1   
    15    7    8 1   
    16    7   10 1   
    17    8    9 1   
    18    8   24 1   
    19    8   25 1   
    20   10   11 1   
    21   10   39 1   
    22   12   39 1   
    23   13   15 1   
    24   15   16 1   
    25   16   17 1   
    26   16   30 1   
    27   16   31 1   
    28   17   18 1   
    29   17   32 1   
    30   17   34 1   
    31   18   19 1   
    32   18   20 1   
    33   18   36 1   
    34   19   20 1   
    35   19   33 1   
    36   19   35 1   
    37   20   37 1   
    38   20   38 1   
    39   26   40 1   
    40   27   40 1   
    41   28   40 1   
    42   29   39 1   
@<TRIPOS>SUBSTRUCTURE
     1 UC1         1 TEMP              0 ****  ****    0 ROOT
