@<TRIPOS>MOLECULE
UC1
   40    41     1     0     0
SMALL
bcc


@<TRIPOS>ATOM
      1 C2          0.1280   -0.3360    0.7620 ca        1 UC1     -0.249000
      2 C4          2.1970   -0.4360    2.0460 ca        1 UC1     -0.027600
      3 C5          2.9130   -0.4610    0.8520 ca        1 UC1     -0.077000
      4 C6          2.2720   -0.4200   -0.3830 ca        1 UC1     -0.176000
      5 O7         -1.7370    0.0710   -5.8060 os        1 UC1     -0.358800
      6 C8         -0.5450    0.3890   -5.1550 cc        1 UC1      0.356000
      7 C9         -0.4880   -0.2810   -3.9360 cd        1 UC1     -0.292900
      8 C10        -1.7110   -1.0630   -3.8360 cd        1 UC1     -0.252300
      9 C11        -2.4280   -0.8230   -4.9850 cc        1 UC1      0.242600
     10 C           0.5870   -0.2450   -2.9430 c         1 UC1      0.472000
     11 S           2.0910   -0.1290   -3.4410 s         1 UC1     -0.465400
     12 C1          0.8690   -0.3570   -0.4480 ca        1 UC1      0.082600
     13 C3          0.7850   -0.3730    1.9930 ca        1 UC1      0.161100
     14 CL          3.0410   -0.4850    3.5180 cl        1 UC1     -0.069400
     15 OB          0.1290   -0.3810    3.2050 os        1 UC1     -0.314900
     16 CC         -1.2710   -0.0600    3.1710 c3        1 UC1      0.165600
     17 CD         -1.7020    0.0770    4.5860 c2        1 UC1     -0.186200
     18 CE         -2.9640    0.3730    4.9310 c2        1 UC1     -0.108400
     19 CF         -3.3710    0.5040    6.3510 c3        1 UC1     -0.062400
     20 CG         -4.0300    0.5900    3.9240 c3        1 UC1     -0.062400
     21 H2         -0.9710   -0.2930    0.7340 ha        1 UC1      0.137000
     22 H5          4.0150   -0.5120    0.8780 ha        1 UC1      0.154000
     23 H6          2.8810   -0.4320   -1.3080 ha        1 UC1      0.195000
     24 H10        -1.9760   -1.7300   -3.0210 ha        1 UC1      0.162000
     25 H11        -3.3780   -1.1590   -5.3910 h4        1 UC1      0.060100
     26 HA1         0.4320    1.0360   -6.9340 hc        1 UC1      0.078367
     27 HA2        -0.0640    2.3600   -5.7940 hc        1 UC1      0.078367
     28 HA3         1.3610    1.2840   -5.3790 hc        1 UC1      0.078367
     29 HN         -0.8590   -0.3550   -1.5220 hn        1 UC1      0.319500
     30 HC1        -1.8260   -0.8940    2.6600 h1        1 UC1      0.046200
     31 HC2        -1.4290    0.8990    2.6050 h1        1 UC1      0.046200
     32 HD         -0.9130   -0.0830    5.3390 ha        1 UC1      0.152000
     33 HF1        -3.7750    1.5310    6.5390 hc        1 UC1      0.043867
     34 HF2        -4.1750   -0.2370    6.5880 hc        1 UC1      0.043867
     35 HF3        -2.5130    0.3300    7.0450 hc        1 UC1      0.043867
     36 HG1        -4.1550   -0.3220    3.2860 hc        1 UC1      0.043867
     37 HG2        -5.0100    0.8160    4.4110 hc        1 UC1      0.043867
     38 HG3        -3.7640    1.4460    3.2540 hc        1 UC1      0.043867
     39 N           0.1350   -0.3230   -1.6470 n         1 UC1     -0.386100
     40 CA          0.3440    1.3200   -5.8550 c3        1 UC1     -0.161400
@<TRIPOS>BOND
     1    1   12 ar  
     2    1   13 ar  
     3    1   21 1   
     4    2    3 ar  
     5    2   13 ar  
     6    2   14 1   
     7    3    4 ar  
     8    3   22 1   
     9    4   12 ar  
    10    4   23 1   
    11    5    6 1   
    12    5    9 1   
    13    6    7 2   
    14    6   40 1   
    15    7    8 1   
    16    7   10 1   
    17    8    9 2   
    18    8   24 1   
    19    9   25 1   
    20   10   11 2   
    21   10   39 1   
    22   12   39 1   
    23   13   15 1   
    24   15   16 1   
    25   16   17 1   
    26   16   30 1   
    27   16   31 1   
    28   17   18 2   
    29   17   32 1   
    30   18   19 1   
    31   18   20 1   
    32   19   33 1   
    33   19   34 1   
    34   19   35 1   
    35   20   36 1   
    36   20   37 1   
    37   20   38 1   
    38   26   40 1   
    39   27   40 1   
    40   28   40 1   
    41   29   39 1   
@<TRIPOS>SUBSTRUCTURE
     1 UC1         1 TEMP              0 ****  ****    0 ROOT
