@<TRIPOS>MOLECULE
UC1
   40    33     1     0     0
SMALL
bcc


@<TRIPOS>ATOM
      1 C2         -0.1820    0.2070   -0.3270 c1        1 UC1     -0.182000
      2 C4         -0.1960    0.0240    2.0670 c1        1 UC1     -0.097000
      3 C5          1.1870    0.1140    2.0820 c1        1 UC1     -0.096000
      4 C6          1.8860    0.2500    0.8930 c1        1 UC1     -0.150000
      5 O7          5.5550    1.4650   -4.3270 os        1 UC1     -0.100000
      6 C8          5.2490    1.1690   -3.0250 c1        1 UC1     -0.010000
      7 C9          3.8890    1.3410   -2.8560 c1        1 UC1     -0.196500
      8 C10         3.3640    1.7410   -4.0520 c1        1 UC1     -0.196500
      9 C11         4.3950    1.8190   -4.9660 c1        1 UC1     -0.010000
     10 CA          6.2330    0.7570   -1.9510 c2        1 UC1     -0.187000
     11 C           3.1270    1.1850   -1.5570 c1        1 UC1      0.103000
     12 S           3.6880    1.9240   -0.1640 s         1 UC1     -0.190000
     13 N           1.9170    0.4420   -1.5290 n3        1 UC1     -0.240000
     14 C1          1.2020    0.2970   -0.3110 c1        1 UC1      0.066000
     15 C3         -0.8810    0.0710    0.8630 c1        1 UC1      0.078000
     16 CL         -1.0750   -0.1380    3.5640 cl        1 UC1      0.004000
     17 OB         -2.2870    0.0820    0.8550 os        1 UC1     -0.222000
     18 CC         -2.8700   -1.1130    1.3240 c3        1 UC1      0.011000
     19 CD         -4.3630   -1.0790    1.0710 c2        1 UC1     -0.180000
     20 CE         -5.2230   -1.3330    2.0780 c1        1 UC1     -0.104000
     21 CF         -4.6970   -1.6510    3.4600 c2        1 UC1     -0.187000
     22 CG         -6.7150   -1.2990    1.8250 c3        1 UC1     -0.180000
     23 H2         -0.6640    0.2400   -1.1750 ha        1 UC1      0.149000
     24 H5          1.6690    0.0810    2.9310 ha        1 UC1      0.155000
     25 H6          2.8590    0.3130    0.9040 ha        1 UC1      0.196000
     26 H10         2.4240    1.9380   -4.2290 DU        1 UC1      0.180500
     27 H11         4.3130    2.0800   -5.9030 DU        1 UC1      0.180500
     28 HA1         5.9240   -0.0680   -1.5230 ha        1 UC1      0.100333
     29 HA2         7.1140    0.6060   -2.3550 ha        1 UC1      0.100333
     30 HA3         6.3000    1.4680   -1.2800 ha        1 UC1      0.100333
     31 HN          1.6020    0.0530   -2.2920 hn        1 UC1      0.236000
     32 HC1        -2.4760   -1.8760    0.8520 h1        1 UC1      0.086000
     33 HC2        -2.7040   -1.2030    2.2850 h1        1 UC1      0.086000
     34 HD         -4.7020   -0.8740    0.1790 ha        1 UC1      0.147000
     35 HF1        -4.1200   -0.9200    3.7660 ha        1 UC1      0.100333
     36 HF2        -5.4490   -1.7550    4.0800 ha        1 UC1      0.100333
     37 HF3        -4.1810   -2.4830    3.4300 ha        1 UC1      0.100333
     38 HG1        -7.1530   -0.7700    2.5250 hc        1 UC1      0.082667
     39 HG2        -6.8890   -0.8920    0.9510 hc        1 UC1      0.082667
     40 HG3        -7.0690   -2.2130    1.8360 hc        1 UC1      0.082667
@<TRIPOS>BOND
     1    1   15 1   
     2    1   23 1   
     3    2    3 1   
     4    2   16 1   
     5    3   24 1   
     6    4   14 1   
     7    4   25 1   
     8    5    6 1   
     9    5    9 1   
    10    6    7 1   
    11    7    8 1   
    12    8    9 1   
    13   10   28 1   
    14   10   29 1   
    15   10   30 1   
    16   11   12 1   
    17   11   13 1   
    18   13   14 1   
    19   13   31 1   
    20   15   17 1   
    21   17   18 1   
    22   18   19 1   
    23   18   32 1   
    24   18   33 1   
    25   19   20 1   
    26   19   34 1   
    27   20   22 1   
    28   21   35 1   
    29   21   36 1   
    30   21   37 1   
    31   22   38 1   
    32   22   39 1   
    33   22   40 1   
@<TRIPOS>SUBSTRUCTURE
     1 UC1         1 TEMP              0 ****  ****    0 ROOT
