@<TRIPOS>MOLECULE
UC2
   42    43     1     0     0
SMALL
bcc


@<TRIPOS>ATOM
      1 O7          6.5890   -0.8670    0.5680 os        1 UC2     -0.358800
      2 C8          5.2550   -1.2750    0.5450 cc        1 UC2      0.357000
      3 C9          4.4760   -0.2820   -0.0420 cd        1 UC2     -0.291900
      4 C10         5.3830    0.7950   -0.4080 cd        1 UC2     -0.252300
      5 C11         6.6430    0.3960   -0.0260 cc        1 UC2      0.242600
      6 CA          4.9740   -2.5920    1.1210 c3        1 UC2     -0.161400
      7 C           3.0310   -0.3000   -0.2770 c         1 UC2      0.473000
      8 S           2.3270   -1.6780   -0.6460 s         1 UC2     -0.474400
      9 N           2.4390    0.9320   -0.1420 n         1 UC2     -0.384100
     10 C1          1.1000    1.3040   -0.3650 ca        1 UC2      0.044600
     11 C2          0.0560    0.3910   -0.5960 ca        1 UC2     -0.134000
     12 C3         -1.2570    0.8400   -0.7940 ca        1 UC2     -0.088900
     13 C4         -1.5390    2.2100   -0.7710 ca        1 UC2      0.022400
     14 C5         -0.5050    3.1270   -0.5400 ca        1 UC2     -0.109000
     15 C6          0.7940    2.6910   -0.3380 ca        1 UC2     -0.161000
     16 CL         -3.1040    2.8110   -1.0340 cl        1 UC2     -0.074400
     17 CB         -2.2750   -0.1880   -1.0530 ce        1 UC2      0.376800
     18 NC         -3.4130   -0.2080   -0.4140 n2        1 UC2     -0.399200
     19 OD         -4.2090   -1.2020   -0.7510 os        1 UC2     -0.196300
     20 CE         -5.4940   -1.2460   -0.0290 c3        1 UC2      0.173800
     21 CF         -6.3070    0.0010   -0.3200 c3        1 UC2     -0.106100
     22 CG         -6.1580   -2.4810   -0.6270 c3        1 UC2     -0.106100
     23 CH         -5.2580   -1.4250    1.4600 c3        1 UC2     -0.106100
     24 H10         5.1090    1.7160   -0.9160 ha        1 UC2      0.162000
     25 H11         7.6410    0.8220   -0.0810 h4        1 UC2      0.060100
     26 HA1         5.7150   -3.3440    0.7510 hc        1 UC2      0.078700
     27 HA2         5.0430   -2.5460    2.2370 hc        1 UC2      0.078700
     28 HA3         3.9410   -2.9120    0.8190 hc        1 UC2      0.078700
     29 HN          3.0390    1.6950    0.1050 hn        1 UC2      0.320500
     30 H2          0.2590   -0.6990   -0.6260 ha        1 UC2      0.198000
     31 H5         -0.7240    4.2070   -0.5190 ha        1 UC2      0.150000
     32 H6          1.5830    3.4370   -0.1560 ha        1 UC2      0.135000
     33 HB         -1.9840   -0.9480   -1.8080 h4        1 UC2      0.015800
     34 HF1        -6.3480    0.1830   -1.4200 hc        1 UC2      0.048256
     35 HF2        -7.3450   -0.1320    0.0670 hc        1 UC2      0.048256
     36 HF3        -5.8520    0.8940    0.1720 hc        1 UC2      0.048256
     37 HG1        -5.5310   -3.3850   -0.4400 hc        1 UC2      0.048256
     38 HG2        -7.1580   -2.6220   -0.1550 hc        1 UC2      0.048256
     39 HG3        -6.2840   -2.3560   -1.7280 hc        1 UC2      0.048256
     40 HH1        -4.8410   -0.4930    1.9100 hc        1 UC2      0.048256
     41 HH2        -6.2250   -1.6650    1.9630 hc        1 UC2      0.048256
     42 HH3        -4.5390   -2.2600    1.6360 hc        1 UC2      0.048256
@<TRIPOS>BOND
     1    1    2 1   
     2    1    5 1   
     3    2    3 2   
     4    2    6 1   
     5    3    4 1   
     6    3    7 1   
     7    4    5 2   
     8    4   24 1   
     9    5   25 1   
    10    6   26 1   
    11    6   27 1   
    12    6   28 1   
    13    7    8 2   
    14    7    9 1   
    15    9   10 1   
    16    9   29 1   
    17   10   11 ar  
    18   10   15 ar  
    19   11   12 ar  
    20   11   30 1   
    21   12   13 ar  
    22   12   17 1   
    23   13   14 ar  
    24   13   16 1   
    25   14   15 ar  
    26   14   31 1   
    27   15   32 1   
    28   17   18 2   
    29   17   33 1   
    30   18   19 1   
    31   19   20 1   
    32   20   21 1   
    33   20   22 1   
    34   20   23 1   
    35   21   34 1   
    36   21   35 1   
    37   21   36 1   
    38   22   37 1   
    39   22   38 1   
    40   22   39 1   
    41   23   40 1   
    42   23   41 1   
    43   23   42 1   
@<TRIPOS>SUBSTRUCTURE
     1 UC2         1 TEMP              0 ****  ****    0 ROOT
