@<TRIPOS>MOLECULE
UC2
   42    43     1     0     0
SMALL
bcc


@<TRIPOS>ATOM
      1 O7         -0.2560   -0.3090    0.4300 os        1 UC2     -0.358800
      2 C8          1.1130   -0.3020    0.1630 cc        1 UC2      0.357000
      3 C9          1.8210   -0.4020    1.3580 cd        1 UC2     -0.292900
      4 C10         0.8300   -0.4840    2.4200 cd        1 UC2     -0.252300
      5 C11        -0.4040   -0.4280    1.8140 cc        1 UC2      0.242600
      6 CA          1.4940   -0.1880   -1.2470 c3        1 UC2     -0.162400
      7 C           3.2730   -0.4420    1.5390 c         1 UC2      0.474000
      8 S           4.1710   -1.1590    0.4390 s         1 UC2     -0.475400
      9 N           3.6980    0.1680    2.6930 ns        1 UC2     -0.385100
     10 C1          5.0060    0.3050    3.1930 ca        1 UC2      0.044600
     11 C2          6.1170   -0.3940    2.6900 ca        1 UC2     -0.131000
     12 C3          7.3890   -0.2200    3.2550 ca        1 UC2     -0.088900
     13 C4          7.5630    0.6640    4.3260 ca        1 UC2      0.022400
     14 C5          6.4610    1.3650    4.8330 ca        1 UC2     -0.109000
     15 C6          5.2010    1.1930    4.2850 ca        1 UC2     -0.160000
     16 Cl          9.0840    0.9360    5.0270 cl        1 UC2     -0.074400
     17 CB          8.4920   -0.9760    2.6460 ce        1 UC2      0.376800
     18 NC          9.3330   -1.6680    3.3640 n2        1 UC2     -0.399200
     19 OD         10.2550   -2.2990    2.6660 os        1 UC2     -0.196300
     20 CE         11.2040   -3.0990    3.4630 c3        1 UC2      0.173800
     21 CF         10.4710   -4.1930    4.2170 c3        1 UC2     -0.106100
     22 CG         12.1090   -3.6900    2.3890 c3        1 UC2     -0.106100
     23 CH         11.9910   -2.2040    4.4020 c3        1 UC2     -0.106100
     24 H10         1.0390   -0.6010    3.4800 ha        1 UC2      0.163000
     25 H11        -1.4350   -0.4580    2.1520 h4        1 UC2      0.060100
     26 HA1         0.8690   -0.8730   -1.8750 hc        1 UC2      0.078700
     27 HA2         1.3370    0.8610   -1.6040 hc        1 UC2      0.078700
     28 HA3         2.5760   -0.4680   -1.3590 hc        1 UC2      0.078700
     29 HN          2.9970    0.6150    3.2520 hn        1 UC2      0.321500
     30 H2          6.0030   -1.0890    1.8340 ha        1 UC2      0.196000
     31 H5          6.5960    2.0610    5.6770 ha        1 UC2      0.150000
     32 H6          4.3550    1.7580    4.7070 ha        1 UC2      0.135000
     33 HB          8.5300   -0.9260    1.5370 h4        1 UC2      0.015800
     34 HF1        11.2110   -4.9120    4.6430 hc        1 UC2      0.048256
     35 HF2         9.7870   -4.7420    3.5260 hc        1 UC2      0.048256
     36 HF3         9.8670   -3.7640    5.0520 hc        1 UC2      0.048256
     37 HG1        12.6060   -2.8740    1.8120 hc        1 UC2      0.048256
     38 HG2        12.8860   -4.3250    2.8750 hc        1 UC2      0.048256
     39 HG3        11.5120   -4.3140    1.6820 hc        1 UC2      0.048256
     40 HH1        12.8330   -2.7830    4.8500 hc        1 UC2      0.048256
     41 HH2        11.3390   -1.8220    5.2250 hc        1 UC2      0.048256
     42 HH3        12.4050   -1.3320    3.8420 hc        1 UC2      0.048256
@<TRIPOS>BOND
     1    1    2 1   
     2    1    5 1   
     3    2    3 2   
     4    2    6 1   
     5    3    4 1   
     6    3    7 1   
     7    4    5 2   
     8    4   24 1   
     9    5   25 1   
    10    6   26 1   
    11    6   27 1   
    12    6   28 1   
    13    7    8 2   
    14    7    9 1   
    15    9   10 1   
    16    9   29 1   
    17   10   11 ar  
    18   10   15 ar  
    19   11   12 ar  
    20   11   30 1   
    21   12   13 ar  
    22   12   17 1   
    23   13   14 ar  
    24   13   16 1   
    25   14   15 ar  
    26   14   31 1   
    27   15   32 1   
    28   17   18 2   
    29   17   33 1   
    30   18   19 1   
    31   19   20 1   
    32   20   21 1   
    33   20   22 1   
    34   20   23 1   
    35   21   34 1   
    36   21   35 1   
    37   21   36 1   
    38   22   37 1   
    39   22   38 1   
    40   22   39 1   
    41   23   40 1   
    42   23   41 1   
    43   23   42 1   
@<TRIPOS>SUBSTRUCTURE
     1 UC2         1 TEMP              0 ****  ****    0 ROOT
