@<TRIPOS>MOLECULE
UC2
   43    44     1     0     0
SMALL
bcc


@<TRIPOS>ATOM
      1 O7         -0.3300   -0.4310    0.4080 os        1 UC2     -0.326800
      2 C8          0.9190    0.1390    0.2480 cc        1 UC2      0.423000
      3 C9          1.7240   -0.1750    1.3610 cd        1 UC2     -0.343900
      4 C10         0.8930   -0.9870    2.2430 cd        1 UC2     -0.277300
      5 C11        -0.3300   -1.1140    1.6310 cc        1 UC2      0.300600
      6 CA          1.1430    0.9080   -0.9740 c3        1 UC2     -0.172400
      7 C           3.0820    0.2390    1.5460 c         1 UC2      0.192000
      8 S           3.9460    1.1010    0.6280 s         1 UC2     -0.052400
      9 N           3.6330   -0.3060    2.8510 n4        1 UC2     -0.486200
     10 C1          5.0220    0.0520    3.1400 ca        1 UC2     -0.057400
     11 C2          6.0610   -0.7910    2.7170 ca        1 UC2     -0.082000
     12 C3          7.3880   -0.4780    3.0340 ca        1 UC2     -0.073900
     13 C4          7.6710    0.6900    3.7640 ca        1 UC2      0.076400
     14 C5          6.6230    1.5290    4.1780 ca        1 UC2     -0.111000
     15 C6          5.3040    1.2210    3.8720 ca        1 UC2     -0.089000
     16 CL          9.2510    1.1300    4.1500 cl        1 UC2     -0.001400
     17 CB          8.4290   -1.3920    2.5470 ce        1 UC2      0.322800
     18 NC          9.3510   -1.8590    3.3480 n2        1 UC2     -0.358200
     19 OD         10.2070   -2.6700    2.7880 os        1 UC2     -0.186300
     20 CE         11.2660   -3.2040    3.6830 c3        1 UC2      0.175800
     21 CF         10.6430   -4.0170    4.8010 c3        1 UC2     -0.109767
     22 CG         12.0570   -4.0910    2.7310 c3        1 UC2     -0.109767
     23 CH         12.1180   -2.0690    4.2150 c3        1 UC2     -0.109767
     24 H10         1.1720   -1.4150    3.2020 ha        1 UC2      0.163000
     25 H11        -1.2750   -1.6060    1.8640 h4        1 UC2      0.089100
     26 HA1         1.3360    1.9830   -0.7130 hc        1 UC2      0.096367
     27 HA2         0.2570    0.8510   -1.6560 hc        1 UC2      0.096367
     28 HA3         2.0490    0.5150   -1.5080 hc        1 UC2      0.096367
     29 HN          3.5540   -1.3330    2.8260 hn        1 UC2      0.454300
     30 H2          5.8580   -1.7090    2.1400 ha        1 UC2      0.159000
     31 H5          6.8470    2.4450    4.7520 ha        1 UC2      0.179000
     32 H6          4.5010    1.8980    4.2080 ha        1 UC2      0.156000
     33 HB          8.3610   -1.6510    1.4710 h4        1 UC2      0.022800
     34 HF1         9.9060   -4.7450    4.3850 hc        1 UC2      0.054478
     35 HF2        10.1200   -3.3550    5.5330 hc        1 UC2      0.054478
     36 HF3        11.4430   -4.5800    5.3390 hc        1 UC2      0.054478
     37 HG1        12.4620   -3.4860    1.8850 hc        1 UC2      0.054478
     38 HG2        11.4040   -4.8950    2.3160 hc        1 UC2      0.054478
     39 HG3        12.9040   -4.5560    3.2890 hc        1 UC2      0.054478
     40 HH1        12.4410   -1.4050    3.3770 hc        1 UC2      0.054478
     41 HH2        11.5530   -1.4600    4.9590 hc        1 UC2      0.054478
     42 HH3        13.0250   -2.4890    4.7130 hc        1 UC2      0.054478
     43 HN3         3.0370    0.0370    3.6160 hn        1 UC2      0.454300
@<TRIPOS>BOND
     1    1    2 1   
     2    1    5 1   
     3    2    3 2   
     4    2    6 1   
     5    3    4 1   
     6    3    7 1   
     7    4    5 2   
     8    4   24 1   
     9    5   25 1   
    10    6   26 1   
    11    6   27 1   
    12    6   28 1   
    13    7    8 2   
    14    7    9 1   
    15    9   10 1   
    16    9   29 1   
    17    9   43 1   
    18   10   11 ar  
    19   10   15 ar  
    20   11   12 ar  
    21   11   30 1   
    22   12   13 ar  
    23   12   17 1   
    24   13   14 ar  
    25   13   16 1   
    26   14   15 ar  
    27   14   31 1   
    28   15   32 1   
    29   17   18 2   
    30   17   33 1   
    31   18   19 1   
    32   19   20 1   
    33   20   21 1   
    34   20   22 1   
    35   20   23 1   
    36   21   34 1   
    37   21   35 1   
    38   21   36 1   
    39   22   37 1   
    40   22   38 1   
    41   22   39 1   
    42   23   40 1   
    43   23   41 1   
    44   23   42 1   
@<TRIPOS>SUBSTRUCTURE
     1 UC2         1 TEMP              0 ****  ****    0 ROOT
