@<TRIPOS>MOLECULE
UC2
   42    36     1     0     0
SMALL
bcc


@<TRIPOS>ATOM
      1 O7         -6.0810    1.1560   -3.5340 os        1 UC2     -0.100000
      2 C8         -4.7310    1.3550   -3.3740 c1        1 UC2     -0.011500
      3 C9         -4.4200    1.1240   -2.0460 c1        1 UC2     -0.195500
      4 C10        -5.5760    0.7850   -1.3940 c1        1 UC2     -0.195500
      5 C11        -6.6070    0.8040   -2.3140 c1        1 UC2     -0.011500
      6 CA         -3.7680    1.8050   -4.4460 c2        1 UC2     -0.185000
      7 C          -3.0400    1.3040   -1.4000 c1        1 UC2      0.101000
      8 S          -2.3330    2.8180   -1.3440 s         1 UC2     -0.189000
      9 N          -2.3870    0.1940   -0.7990 n3        1 UC2     -0.241000
     10 C1         -1.4650    0.4020    0.2680 c2        1 UC2      0.048000
     11 C2         -0.1300    0.6720   -0.0130 c2        1 UC2     -0.108000
     12 C3          0.7920    0.7640    1.0210 c1        1 UC2     -0.036000
     13 C4          0.3810    0.5880    2.3340 c1        1 UC2     -0.063000
     14 C5         -0.9530    0.3180    2.6140 c1        1 UC2     -0.110000
     15 C6         -1.8750    0.2260    1.5810 c1        1 UC2     -0.158000
     16 CL          1.5150    0.8210    3.6390 cl        1 UC2     -0.009000
     17 CB          2.2230    1.1970    0.7250 c2        1 UC2     -0.113000
     18 NC          3.2220    0.3610    0.9360 n1        1 UC2     -0.023000
     19 OD          2.9730   -0.9030    1.4210 o         1 UC2     -0.219000
     20 CE          4.1730   -1.6490    1.4530 c3        1 UC2      0.101000
     21 CF          4.6740   -1.8620    0.0380 c3        1 UC2     -0.224667
     22 CG          3.9160   -2.9890    2.1030 c3        1 UC2     -0.224667
     23 CH          5.2180   -0.8930    2.2510 c3        1 UC2     -0.224667
     24 H10        -5.6580    0.5680   -0.4460 DU        1 UC2      0.179000
     25 H11        -7.5460    0.6020   -2.1300 DU        1 UC2      0.179000
     26 HA1        -3.0810    1.1210   -4.5760 ha        1 UC2      0.117333
     27 HA2        -4.2560    1.9430   -5.2900 ha        1 UC2      0.117333
     28 HA3        -3.3450    2.6440   -4.1730 ha        1 UC2      0.117333
     29 HN         -2.5900   -0.6490   -1.0640 hn        1 UC2      0.233000
     30 H2          0.1590    0.7960   -0.9380 ha        1 UC2      0.203000
     31 H5         -1.2430    0.1940    3.5410 ha        1 UC2      0.150000
     32 H6         -2.8180    0.0360    1.7790 ha        1 UC2      0.135000
     33 HB          2.4010    2.0970    0.3790 h4        1 UC2      0.169000
     34 HF1         3.9510   -2.2370   -0.5120 hc        1 UC2      0.088000
     35 HF2         5.4310   -2.4830    0.0500 hc        1 UC2      0.088000
     36 HF3         4.9610   -1.0040   -0.3400 hc        1 UC2      0.088000
     37 HG1         3.2650   -3.4880    1.5720 hc        1 UC2      0.088000
     38 HG2         4.7560   -3.4950    2.1520 hc        1 UC2      0.088000
     39 HG3         3.5650   -2.8520    3.0040 hc        1 UC2      0.088000
     40 HH1         5.5320   -0.1250    1.7320 hc        1 UC2      0.088000
     41 HH2         5.9720   -1.4860    2.4450 hc        1 UC2      0.088000
     42 HH3         4.8210   -0.5790    3.0950 hc        1 UC2      0.088000
@<TRIPOS>BOND
     1    1    2 1   
     2    1    5 1   
     3    2    3 1   
     4    3    4 1   
     5    4    5 1   
     6    6   26 1   
     7    6   27 1   
     8    6   28 1   
     9    7    8 1   
    10    7    9 1   
    11    9   10 1   
    12    9   29 1   
    13   10   11 1   
    14   10   15 1   
    15   11   12 1   
    16   11   30 1   
    17   12   17 1   
    18   13   14 1   
    19   13   16 1   
    20   14   31 1   
    21   15   32 1   
    22   17   18 1   
    23   17   33 1   
    24   19   20 1   
    25   20   21 1   
    26   20   22 1   
    27   20   23 1   
    28   21   34 1   
    29   21   35 1   
    30   21   36 1   
    31   22   37 1   
    32   22   38 1   
    33   22   39 1   
    34   23   40 1   
    35   23   41 1   
    36   23   42 1   
@<TRIPOS>SUBSTRUCTURE
     1 UC2         1 TEMP              0 ****  ****    0 ROOT
