@<TRIPOS>MOLECULE
UC3
   39    39     1     0     0
SMALL
bcc


@<TRIPOS>ATOM
      1 C          -0.3840    1.3450   -0.0270 c         1 UC3      0.329500
      2 S           0.0120    2.7420   -0.5150 s         1 UC3     -0.103400
      3 N          -0.7970    1.1070    1.4120 n4        1 UC3     -0.491200
      4 C1          0.3130    0.6410    2.2460 ca        1 UC3     -0.077400
      5 C2          0.7910   -0.6690    2.0930 ca        1 UC3     -0.044000
      6 C3          1.8300   -1.1290    2.9090 ca        1 UC3     -0.097600
      7 C4          2.3790   -0.2880    3.8900 ca        1 UC3      0.103400
      8 CL4         3.5830   -0.8090    4.9420 cl        1 UC3      0.015600
      9 C5          1.8990    1.0280    4.0210 ca        1 UC3     -0.118000
     10 C6          0.8790    1.5010    3.2070 ca        1 UC3     -0.073000
     11 CA          2.2630   -2.5330    2.6900 c         1 UC3      0.640700
     12 OB          3.5950   -2.6750    2.4930 os        1 UC3     -0.420900
     13 OA          1.5080   -3.5040    2.6220 o         1 UC3     -0.513000
     14 CC          4.1050   -4.0250    2.2920 c3        1 UC3      0.153100
     15 CD          5.4450   -3.8320    1.6120 c3        1 UC3     -0.113100
     16 CE          4.2300   -4.7210    3.6290 c3        1 UC3     -0.113100
     17 OF         -0.4910    0.1210   -0.5990 os        1 UC3     -0.388900
     18 CG         -0.1770    0.0180   -2.0380 c3        1 UC3      0.158100
     19 CH          0.5250   -1.3140   -2.1750 c3        1 UC3     -0.122600
     20 CI         -1.4840    0.0750   -2.7950 c3        1 UC3     -0.122600
     21 HN         -1.1520    2.0000    1.7870 hn        1 UC3      0.469800
     22 H2          0.3590   -1.3530    1.3380 ha        1 UC3      0.182000
     23 H5          2.3380    1.6970    4.7840 ha        1 UC3      0.186000
     24 H6          0.5270    2.5390    3.3320 ha        1 UC3      0.164000
     25 HC          3.3870   -4.5780    1.6240 h1        1 UC3      0.072700
     26 HD1         6.1320   -3.2380    2.2610 hc        1 UC3      0.056867
     27 HD2         5.3190   -3.2940    0.6430 hc        1 UC3      0.056867
     28 HD3         5.8990   -4.8340    1.4210 hc        1 UC3      0.056867
     29 HE1         3.2240   -4.8240    4.1030 hc        1 UC3      0.056867
     30 HE2         4.8950   -4.1430    4.3140 hc        1 UC3      0.056867
     31 HE3         4.6640   -5.7390    3.4780 hc        1 UC3      0.056867
     32 HG          0.5000    0.8750   -2.3140 h1        1 UC3      0.090700
     33 HH1         1.4670   -1.3290   -1.5760 hc        1 UC3      0.070367
     34 HH2         0.7770   -1.4730   -3.2530 hc        1 UC3      0.070367
     35 HH3        -0.1330   -2.1480   -1.8310 hc        1 UC3      0.070367
     36 HI1        -2.1750   -0.7330   -2.4550 hc        1 UC3      0.070367
     37 HI2        -1.9850    1.0620   -2.6540 hc        1 UC3      0.070367
     38 HI3        -1.2750   -0.0670   -3.8850 hc        1 UC3      0.070367
     39 HN3        -1.5430    0.3960    1.4440 hn        1 UC3      0.469800
@<TRIPOS>BOND
     1    1    2 2   
     2    1    3 1   
     3    1   17 1   
     4    3    4 1   
     5    3   21 1   
     6    3   39 1   
     7    4    5 ar  
     8    4   10 ar  
     9    5    6 ar  
    10    5   22 1   
    11    6    7 ar  
    12    6   11 1   
    13    7    8 1   
    14    7    9 ar  
    15    9   10 ar  
    16    9   23 1   
    17   10   24 1   
    18   11   12 1   
    19   11   13 2   
    20   12   14 1   
    21   14   15 1   
    22   14   16 1   
    23   14   25 1   
    24   15   26 1   
    25   15   27 1   
    26   15   28 1   
    27   16   29 1   
    28   16   30 1   
    29   16   31 1   
    30   17   18 1   
    31   18   19 1   
    32   18   20 1   
    33   18   32 1   
    34   19   33 1   
    35   19   34 1   
    36   19   35 1   
    37   20   36 1   
    38   20   37 1   
    39   20   38 1   
@<TRIPOS>SUBSTRUCTURE
     1 UC3         1 TEMP              0 ****  ****    0 ROOT
