@<TRIPOS>MOLECULE
UC3
   38    38     1     0     0
SMALL
bcc


@<TRIPOS>ATOM
      1 C           0.4920    0.0290   -0.3710 c         1 UC3      0.591500
      2 S           1.9500   -0.5230   -0.7120 s         1 UC3     -0.510400
      3 N          -0.1590    0.1110    0.8340 n         1 UC3     -0.399100
      4 C1          0.3330   -0.2110    2.1110 ca        1 UC3      0.051600
      5 C2          1.5460   -0.8910    2.3350 ca        1 UC3     -0.107000
      6 C3          1.9610   -1.1800    3.6370 ca        1 UC3     -0.082600
      7 C4          1.1690   -0.8220    4.7340 ca        1 UC3      0.035400
      8 CL4         1.6310   -1.1920    6.3220 cl        1 UC3     -0.061400
      9 C5         -0.0410   -0.1510    4.5180 ca        1 UC3     -0.111000
     10 C6         -0.4560    0.1570    3.2310 ca        1 UC3     -0.145000
     11 CA          3.2670   -1.8540    3.8190 c         1 UC3      0.651700
     12 OB          3.2990   -3.0930    3.2490 os        1 UC3     -0.429900
     13 OA          4.2720   -1.4220    4.3850 o         1 UC3     -0.521000
     14 CC          4.5360   -3.8400    3.3400 c3        1 UC3      0.148100
     15 CD          4.1340   -5.2930    3.1770 c3        1 UC3     -0.110100
     16 CE          5.4830   -3.3830    2.2500 c3        1 UC3     -0.110100
     17 OF         -0.4040    0.5420   -1.2960 os        1 UC3     -0.418900
     18 CG         -0.0100    0.5360   -2.6900 c3        1 UC3      0.131100
     19 CH         -0.9790   -0.3750   -3.4180 c3        1 UC3     -0.107600
     20 CI         -0.1050    1.9710   -3.1690 c3        1 UC3     -0.107600
     21 HN         -1.0800    0.5090    0.8210 hn        1 UC3      0.334500
     22 H2          2.1860   -1.2050    1.4830 ha        1 UC3      0.206000
     23 H5         -0.6690    0.1380    5.3760 ha        1 UC3      0.155000
     24 H6         -1.4110    0.6900    3.0950 ha        1 UC3      0.141000
     25 HC          4.9920   -3.6630    4.3540 h1        1 UC3      0.069700
     26 HD1         5.0460   -5.9330    3.2410 hc        1 UC3      0.049367
     27 HD2         3.6430   -5.4530    2.1870 hc        1 UC3      0.049367
     28 HD3         3.4180   -5.5900    3.9790 hc        1 UC3      0.049367
     29 HE1         6.4130   -3.9980    2.2820 hc        1 UC3      0.049367
     30 HE2         5.7490   -2.3100    2.4050 hc        1 UC3      0.049367
     31 HE3         5.0080   -3.4930    1.2460 hc        1 UC3      0.049367
     32 HG          1.0500    0.1510   -2.7870 h1        1 UC3      0.107700
     33 HH1        -2.0290   -0.0280   -3.2720 hc        1 UC3      0.050033
     34 HH2        -0.7400   -0.3650   -4.5080 hc        1 UC3      0.050033
     35 HH3        -0.8920   -1.4190   -3.0350 hc        1 UC3      0.050033
     36 HI1         0.1460    2.0090   -4.2550 hc        1 UC3      0.050033
     37 HI2         0.6100    2.6160   -2.6050 hc        1 UC3      0.050033
     38 HI3        -1.1370    2.3680   -3.0190 hc        1 UC3      0.050033
@<TRIPOS>BOND
     1    1    2 2   
     2    1    3 1   
     3    1   17 1   
     4    3    4 1   
     5    3   21 1   
     6    4    5 ar  
     7    4   10 ar  
     8    5    6 ar  
     9    5   22 1   
    10    6    7 ar  
    11    6   11 1   
    12    7    8 1   
    13    7    9 ar  
    14    9   10 ar  
    15    9   23 1   
    16   10   24 1   
    17   11   12 1   
    18   11   13 2   
    19   12   14 1   
    20   14   15 1   
    21   14   16 1   
    22   14   25 1   
    23   15   26 1   
    24   15   27 1   
    25   15   28 1   
    26   16   29 1   
    27   16   30 1   
    28   16   31 1   
    29   17   18 1   
    30   18   19 1   
    31   18   20 1   
    32   18   32 1   
    33   19   33 1   
    34   19   34 1   
    35   19   35 1   
    36   20   36 1   
    37   20   37 1   
    38   20   38 1   
@<TRIPOS>SUBSTRUCTURE
     1 UC3         1 TEMP              0 ****  ****    0 ROOT
