@<TRIPOS>MOLECULE
UC3
   38    38     1     0     0
SMALL
bcc


@<TRIPOS>ATOM
      1 C           0.4930    0.0280   -0.3720 c         1 UC3      0.591500
      2 S           1.9460   -0.5340   -0.7150 s         1 UC3     -0.510400
      3 N          -0.1540    0.1190    0.8350 ns        1 UC3     -0.399100
      4 C1          0.3400   -0.2030    2.1120 ca        1 UC3      0.051600
      5 C2          1.5500   -0.8870    2.3340 ca        1 UC3     -0.107000
      6 C3          1.9680   -1.1740    3.6370 ca        1 UC3     -0.082600
      7 C4          1.1800   -0.8100    4.7350 ca        1 UC3      0.035400
      8 Cl4         1.6440   -1.1780    6.3230 cl        1 UC3     -0.061400
      9 C5         -0.0280   -0.1340    4.5190 ca        1 UC3     -0.111000
     10 C6         -0.4450    0.1720    3.2330 ca        1 UC3     -0.145000
     11 CA          3.2710   -1.8530    3.8170 c         1 UC3      0.651700
     12 OB          3.2970   -3.0940    3.2490 os        1 UC3     -0.429900
     13 OA          4.2790   -1.4240    4.3800 o         1 UC3     -0.521000
     14 CC          4.5310   -3.8450    3.3400 c3        1 UC3      0.148100
     15 CD          4.1230   -5.2970    3.1800 c3        1 UC3     -0.110100
     16 CE          5.4780   -3.3940    2.2480 c3        1 UC3     -0.110100
     17 OF         -0.4040    0.5420   -1.2960 os        1 UC3     -0.418900
     18 CG         -0.0140    0.5280   -2.6910 c3        1 UC3      0.131100
     19 CH         -0.9950   -0.3730   -3.4140 c3        1 UC3     -0.107600
     20 CI         -0.0950    1.9630   -3.1730 c3        1 UC3     -0.107600
     21 HN         -1.0730    0.5210    0.8240 hn        1 UC3      0.334500
     22 H2          2.1870   -1.2060    1.4820 ha        1 UC3      0.206000
     23 H5         -0.6530    0.1590    5.3780 ha        1 UC3      0.155000
     24 H6         -1.3980    0.7080    3.0980 ha        1 UC3      0.141000
     25 HC          4.9900   -3.6680    4.3530 h1        1 UC3      0.069700
     26 HD1         3.6290   -5.4570    2.1920 hc        1 UC3      0.049367
     27 HD2         3.4070   -5.5890    3.9850 hc        1 UC3      0.049367
     28 HD3         5.0320   -5.9400    3.2440 hc        1 UC3      0.049367
     29 HE1         5.0010   -3.5040    1.2450 hc        1 UC3      0.049367
     30 HE2         5.7490   -2.3210    2.4010 hc        1 UC3      0.049367
     31 HE3         6.4060   -4.0120    2.2790 hc        1 UC3      0.049367
     32 HG          1.0410    0.1320   -2.7910 h1        1 UC3      0.107700
     33 HH1        -0.9180   -1.4180   -3.0290 hc        1 UC3      0.050033
     34 HH2        -2.0410   -0.0150   -3.2660 hc        1 UC3      0.050033
     35 HH3        -0.7590   -0.3690   -4.5050 hc        1 UC3      0.050033
     36 HI1         0.6290    2.6020   -2.6140 hc        1 UC3      0.050033
     37 HI2         0.1530    1.9960   -4.2610 hc        1 UC3      0.050033
     38 HI3        -1.1220    2.3720   -3.0200 hc        1 UC3      0.050033
@<TRIPOS>BOND
     1    1    2 2   
     2    1    3 1   
     3    1   17 1   
     4    3    4 1   
     5    3   21 1   
     6    4    5 ar  
     7    4   10 ar  
     8    5    6 ar  
     9    5   22 1   
    10    6    7 ar  
    11    6   11 1   
    12    7    8 1   
    13    7    9 ar  
    14    9   10 ar  
    15    9   23 1   
    16   10   24 1   
    17   11   12 1   
    18   11   13 2   
    19   12   14 1   
    20   14   15 1   
    21   14   16 1   
    22   14   25 1   
    23   15   26 1   
    24   15   27 1   
    25   15   28 1   
    26   16   29 1   
    27   16   30 1   
    28   16   31 1   
    29   17   18 1   
    30   18   19 1   
    31   18   20 1   
    32   18   32 1   
    33   19   33 1   
    34   19   34 1   
    35   19   35 1   
    36   20   36 1   
    37   20   37 1   
    38   20   38 1   
@<TRIPOS>SUBSTRUCTURE
     1 UC3         1 TEMP              0 ****  ****    0 ROOT
