@<TRIPOS>MOLECULE
UC3
   38    38     1     0     0
SMALL
bcc


@<TRIPOS>ATOM
      1 C           0.0890    0.2180    2.7880 c         1 UC3      0.591500
      2 S          -1.3010    0.8370    2.3060 s         1 UC3     -0.510400
      3 N           1.1320   -0.2840    2.0510 n         1 UC3     -0.399100
      4 C1          1.2720   -0.3120    0.6520 ca        1 UC3      0.051600
      5 C2          0.2310   -0.0110   -0.2460 ca        1 UC3     -0.106000
      6 C3          0.4510   -0.0690   -1.6250 ca        1 UC3     -0.082600
      7 C4          1.6980   -0.4520   -2.1320 ca        1 UC3      0.035400
      8 CL4         1.9820   -0.5670   -3.7990 cl        1 UC3     -0.061400
      9 C5          2.7360   -0.7580   -1.2440 ca        1 UC3     -0.111000
     10 C6          2.5350   -0.6880    0.1270 ca        1 UC3     -0.145000
     11 CA         -0.6640    0.3040   -2.5250 c         1 UC3      0.651700
     12 OB         -1.7430   -0.5200   -2.3890 os        1 UC3     -0.429900
     13 OA         -0.7150    1.2410   -3.3230 o         1 UC3     -0.521000
     14 CC         -2.9080   -0.2370   -3.2010 c3        1 UC3      0.148100
     15 CD         -3.6580   -1.5520   -3.2880 c3        1 UC3     -0.110100
     16 CE         -3.7320    0.8490   -2.5420 c3        1 UC3     -0.110100
     17 OF          0.4860    0.0780    4.1090 os        1 UC3     -0.418900
     18 CG         -0.4530    0.4740    5.1390 c3        1 UC3      0.131100
     19 CH         -0.8290   -0.7800    5.9020 c3        1 UC3     -0.107600
     20 CI          0.2730    1.4780    6.0120 c3        1 UC3     -0.107600
     21 HN          1.9270   -0.6160    2.5650 hn        1 UC3      0.334500
     22 H2         -0.7740    0.2780    0.1270 ha        1 UC3      0.206000
     23 H5          3.7220   -1.0570   -1.6340 ha        1 UC3      0.155000
     24 H6          3.3740   -0.9310    0.7990 ha        1 UC3      0.141000
     25 HC         -2.5660    0.0970   -4.2210 h1        1 UC3      0.069700
     26 HD1        -4.5740   -1.4080   -3.9090 hc        1 UC3      0.049367
     27 HD2        -3.0150   -2.3350   -3.7550 hc        1 UC3      0.049367
     28 HD3        -3.9560   -1.8990   -2.2700 hc        1 UC3      0.049367
     29 HE1        -4.0160    0.5500   -1.5040 hc        1 UC3      0.049367
     30 HE2        -3.1420    1.7960   -2.4940 hc        1 UC3      0.049367
     31 HE3        -4.6590    1.0270   -3.1350 hc        1 UC3      0.049367
     32 HG         -1.3670    0.9430    4.6650 h1        1 UC3      0.107700
     33 HH1        -1.5120   -0.5060    6.7420 hc        1 UC3      0.050033
     34 HH2        -1.3500   -1.5020    5.2300 hc        1 UC3      0.050033
     35 HH3         0.0810   -1.2740    6.3190 hc        1 UC3      0.050033
     36 HI1         1.2050    1.0330    6.4340 hc        1 UC3      0.050033
     37 HI2         0.5470    2.3820    5.4180 hc        1 UC3      0.050033
     38 HI3        -0.3980    1.7820    6.8510 hc        1 UC3      0.050033
@<TRIPOS>BOND
     1    1    2 2   
     2    1    3 1   
     3    1   17 1   
     4    3    4 1   
     5    3   21 1   
     6    4    5 ar  
     7    4   10 ar  
     8    5    6 ar  
     9    5   22 1   
    10    6    7 ar  
    11    6   11 1   
    12    7    8 1   
    13    7    9 ar  
    14    9   10 ar  
    15    9   23 1   
    16   10   24 1   
    17   11   12 1   
    18   11   13 2   
    19   12   14 1   
    20   14   15 1   
    21   14   16 1   
    22   14   25 1   
    23   15   26 1   
    24   15   27 1   
    25   15   28 1   
    26   16   29 1   
    27   16   30 1   
    28   16   31 1   
    29   17   18 1   
    30   18   19 1   
    31   18   20 1   
    32   18   32 1   
    33   19   33 1   
    34   19   34 1   
    35   19   35 1   
    36   20   36 1   
    37   20   37 1   
    38   20   38 1   
@<TRIPOS>SUBSTRUCTURE
     1 UC3         1 TEMP              0 ****  ****    0 ROOT
