@<TRIPOS>MOLECULE
UC3
   38    35     1     0     0
SMALL
bcc


@<TRIPOS>ATOM
      1 C          -2.0390    0.6790   -1.8890 c1        1 UC3      0.154000
      2 S          -2.6260    1.1740   -0.4020 s         1 UC3     -0.234000
      3 N          -0.7460    0.1060   -1.9860 n2        1 UC3     -0.252000
      4 C1         -0.2030   -0.6090   -0.8870 c2        1 UC3      0.063000
      5 C2          0.9570   -0.1610   -0.2740 c1        1 UC3     -0.128000
      6 C3          1.5210   -0.8920    0.7590 c1        1 UC3     -0.062000
      7 C4          0.9260   -2.0720    1.1800 c1        1 UC3     -0.043000
      8 CL4         1.6400   -2.9950    2.4750 cl        1 UC3      0.012000
      9 C5         -0.2340   -2.5190    0.5670 c2        1 UC3     -0.106000
     10 C6         -0.7980   -1.7880   -0.4660 c2        1 UC3     -0.130000
     11 CA          2.8290   -0.4450    1.3750 c2        1 UC3      0.350000
     12 OB          2.8460    0.1060    2.6680 os        1 UC3     -0.263000
     13 OA          3.8680   -0.5840    0.7610 o         1 UC3     -0.339000
     14 CC          4.0860    0.6620    3.0350 c3        1 UC3      0.037000
     15 CD          3.9060    2.1300    3.3520 c3        1 UC3     -0.227000
     16 CE          4.6190   -0.0550    4.2560 c3        1 UC3     -0.227000
     17 OF         -2.8150    0.8590   -3.0460 os        1 UC3     -0.256000
     18 CG         -4.1350    0.3870   -2.9260 c3        1 UC3      0.020000
     19 CH         -5.1010    1.5250   -3.1680 c3        1 UC3     -0.225500
     20 CI         -4.3750   -0.7040   -3.9460 c3        1 UC3     -0.225500
     21 HN         -0.2710    0.1800   -2.7600 hn        1 UC3      0.250000
     22 H2          1.3760    0.6700   -0.5700 ha        1 UC3      0.150000
     23 H5         -0.6530   -3.3500    0.8630 ha        1 UC3      0.159000
     24 H6         -1.6150   -2.1040   -0.8980 ha        1 UC3      0.200000
     25 HC          4.7190    0.5630    2.2970 h1        1 UC3      0.110000
     26 HD1         4.7660    2.5130    3.6280 hc        1 UC3      0.088500
     27 HD2         3.2560    2.2310    4.0780 hc        1 UC3      0.088500
     28 HD3         3.5810    2.5990    2.5550 hc        1 UC3      0.088500
     29 HE1         5.5020    0.3020    4.4850 hc        1 UC3      0.088500
     30 HE2         4.6940   -1.0140    4.0650 hc        1 UC3      0.088500
     31 HE3         4.0060    0.0810    5.0080 hc        1 UC3      0.088500
     32 HG         -4.2720    0.0290   -2.0270 h1        1 UC3      0.147000
     33 HH1        -5.0050    2.1930   -2.4560 hc        1 UC3      0.089333
     34 HH2        -6.0190    1.1800   -3.1700 hc        1 UC3      0.089333
     35 HH3        -4.9070    1.9410   -4.0340 hc        1 UC3      0.089333
     36 HI1        -4.7620   -0.3130   -4.7580 hc        1 UC3      0.089333
     37 HI2        -4.9950   -1.3670   -3.5760 hc        1 UC3      0.089333
     38 HI3        -3.5250   -1.1390   -4.1660 hc        1 UC3      0.089333
@<TRIPOS>BOND
     1    1    2 1   
     2    1   17 1   
     3    3    4 1   
     4    3   21 1   
     5    4    5 1   
     6    4   10 1   
     7    5   22 1   
     8    6    7 1   
     9    6   11 1   
    10    7    9 1   
    11    9   10 1   
    12    9   23 1   
    13   10   24 1   
    14   11   12 1   
    15   11   13 1   
    16   12   14 1   
    17   14   15 1   
    18   14   16 1   
    19   14   25 1   
    20   15   26 1   
    21   15   27 1   
    22   15   28 1   
    23   16   29 1   
    24   16   30 1   
    25   16   31 1   
    26   17   18 1   
    27   18   19 1   
    28   18   20 1   
    29   18   32 1   
    30   19   33 1   
    31   19   34 1   
    32   19   35 1   
    33   20   36 1   
    34   20   37 1   
    35   20   38 1   
@<TRIPOS>SUBSTRUCTURE
     1 UC3         1 TEMP              0 ****  ****    0 ROOT
