@<TRIPOS>MOLECULE
UC4
   42    39     1     0     0
SMALL
bcc


@<TRIPOS>ATOM
      1 CL          1.3850    1.8960   -0.3480 cl        1 UC4      0.107000
      2 C1          3.0780    0.0870    0.6990 c2        1 UC4     -0.141000
      3 C2          2.4940    0.6520   -0.3840 c2        1 UC4     -0.057000
      4 C3          4.6740    1.1130   -1.4380 c1        1 UC4      0.297000
      5 C4          5.5080    0.1820   -0.9860 c2        1 UC4     -0.489000
      6 C5          5.1320   -0.9660   -0.1830 c2        1 UC4     -0.061000
      7 C6          4.0230   -1.0110    0.6000 c2        1 UC4     -0.039000
      8 O7          2.6590    1.6460    2.5340 o         1 UC4     -0.308000
      9 O8          2.6440   -0.5380    2.9490 oh        1 UC4     -0.321000
     10 C8          1.0840    1.3410    5.5160 c3        1 UC4     -0.212000
     11 C9          2.0610   -0.8360    6.2020 c2        1 UC4     -0.247000
     12 C10         2.0890    0.4950    6.1900 c2        1 UC4     -0.164000
     13 OA          9.8750    2.3250   -0.6270 oh        1 UC4     -0.096000
     14 CB          8.9530   -2.0390    2.1630 c2        1 UC4      0.122000
     15 CC          8.2170   -1.9820    1.0200 c2        1 UC4     -0.503000
     16 S           8.9560   -1.6300   -0.4850 ss        1 UC4      0.608000
     17 CD          9.1820   -0.0880   -0.5110 c1        1 UC4     -0.563000
     18 CE          9.4520    1.0910   -0.5940 c1        1 UC4      0.081000
     19 N           6.0380   -2.1220   -0.2500 n4        1 UC4     -0.071000
     20 H3          2.6430    0.2470   -1.4060 h4        1 UC4      0.175000
     21 H4          6.5900    0.3400   -1.2030 ha        1 UC4      0.208000
     22 H6          3.8030   -1.8720    1.2680 ha        1 UC4      0.198000
     23 H8          2.4180   -0.2050    3.8430 ho        1 UC4      0.277000
     24 H91         0.2420    0.7360    5.0980 hc        1 UC4      0.092000
     25 H92         1.2680   -1.4190    5.7150 ha        1 UC4      0.114500
     26 H93         2.8190   -1.4340    6.7250 ha        1 UC4      0.114500
     27 H101        1.5610    1.9130    4.6770 hc        1 UC4      0.092000
     28 H102        2.8910    1.0500    6.7080 ha        1 UC4      0.125000
     29 H103        0.6570    2.0800    6.2400 hc        1 UC4      0.092000
     30 HD1         7.1940    2.2230    3.4640 ha        1 UC4      0.000000
     31 HD2         7.0980    2.7580    3.8670 ha        1 UC4      0.000000
     32 HE1         9.1820    2.8710   -1.0600 ho        1 UC4      0.251000
     33 HE2        10.0320   -1.7790    2.1000 ha        1 UC4      0.175000
     34 HF1         7.5300   -1.8440    3.7540 hc        1 UC4      0.135667
     35 HF2         8.1690   -3.5090    3.4900 hc        1 UC4      0.135667
     36 HF3         9.2270   -2.2540    4.2800 hc        1 UC4      0.135667
     37 HN          6.7270   -1.9740   -1.0150 hn        1 UC4      0.266000
     38 HN3         5.4830   -2.9650   -0.4410 hn        1 UC4      0.266000
     39 C7          2.7750    0.5060    2.0860 c2        1 UC4      0.345000
     40 CG          6.8050   -2.3300    1.0540 c2        1 UC4      0.323000
     41 CF          8.4550   -2.4210    3.4870 c3        1 UC4     -0.258000
     42 OG          6.1410   -2.8000    1.9700 o         1 UC4     -0.208000
@<TRIPOS>BOND
     1    1    3 1   
     2    2    3 1   
     3    2    7 1   
     4    2   39 1   
     5    3   20 1   
     6    4    5 1   
     7    5    6 1   
     8    5   21 1   
     9    6    7 1   
    10    6   19 1   
    11    7   22 1   
    12    8   39 1   
    13    9   23 1   
    14    9   39 1   
    15   10   12 1   
    16   10   24 1   
    17   10   27 1   
    18   10   29 1   
    19   11   12 1   
    20   11   25 1   
    21   11   26 1   
    22   12   28 1   
    23   13   18 1   
    24   13   32 1   
    25   14   15 1   
    26   14   33 1   
    27   14   41 1   
    28   15   16 1   
    29   15   40 1   
    30   16   17 1   
    31   17   18 1   
    32   19   37 1   
    33   19   38 1   
    34   19   40 1   
    35   30   31 1   
    36   34   41 1   
    37   35   41 1   
    38   36   41 1   
    39   40   42 1   
@<TRIPOS>SUBSTRUCTURE
     1 UC4         1 TEMP              0 ****  ****    0 ROOT
