@<TRIPOS>MOLECULE
UC4
   41    39     1     0     0
SMALL
bcc


@<TRIPOS>ATOM
      1 Cl         -0.1380    0.4400   -0.3110 cl        1 UC4      0.019000
      2 C1          2.1020    0.1090    1.1420 c2        1 UC4     -0.051000
      3 C2          1.5220    0.4530   -0.0260 c2        1 UC4     -0.111000
      4 C3          2.8410   -1.2200   -1.1940 c1        1 UC4      0.199000
      5 C4          3.9900   -1.3170   -0.5520 c2        1 UC4     -0.462000
      6 C5          4.4420   -0.5090    0.5740 c2        1 UC4      0.176000
      7 C6          3.5320    0.1420    1.3630 c2        1 UC4     -0.260000
      8 O7          0.5790   -1.2900    2.4570 o         1 UC4     -0.328000
      9 O8          1.4770    0.5300    3.3930 os        1 UC4     -0.275000
     10 C8          0.7530    0.1870    4.5890 c3        1 UC4     -0.013000
     11 C9          2.4790    1.0480    6.1920 c3        1 UC4     -0.211000
     12 C10         1.1000    1.2440    5.6210 c3        1 UC4     -0.163000
     13 OA         13.5050   -1.6920    0.6070 o         1 UC4     -0.178000
     14 CB          9.0610   -1.6350    1.3350 c2        1 UC4     -0.105000
     15 CC          8.2220   -0.7140    0.8350 c2        1 UC4     -0.337000
     16 S           8.5110    0.9500    0.6730 ss        1 UC4      0.237000
     17 CD         10.0440    1.2500    1.4590 c3        1 UC4     -0.372000
     18 CE         12.5400   -1.1760    1.0200 c1        1 UC4      0.181000
     19 CG          6.8710   -1.0940    0.3080 c2        1 UC4      0.375000
     20 N           5.8090   -0.3820    0.8600 ns        1 UC4     -0.323000
     21 H3          2.0930    0.8610   -0.8780 h4        1 UC4      0.176000
     22 H4          4.6760   -2.1210   -0.9190 ha        1 UC4      0.237000
     23 H6          3.8350    0.7020    2.2640 ha        1 UC4      0.159000
     24 H8         -0.3430    0.1860    4.3530 h1        1 UC4      0.093500
     25 H91         2.5550    0.0650    6.7180 hc        1 UC4      0.075667
     26 H92         3.2410    1.0700    5.3760 hc        1 UC4      0.075667
     27 H93         1.0620   -0.8390    4.9170 h1        1 UC4      0.093500
     28 H101        1.0260    2.2590    5.1490 hc        1 UC4      0.094000
     29 H102        0.3330    1.1890    6.4380 hc        1 UC4      0.094000
     30 H103        2.7150    1.8590    6.9230 hc        1 UC4      0.075667
     31 HD1        10.2420    2.3380    1.3080 h1        1 UC4      0.115333
     32 HD2        10.0100    1.0350    2.5500 h1        1 UC4      0.115333
     33 HE1        10.0680   -1.3240    1.6800 ha        1 UC4      0.137000
     34 HE2        10.8810    0.6640    1.0120 h1        1 UC4      0.115333
     35 HF1         8.8350   -3.3610    2.5630 hc        1 UC4      0.096333
     36 HF2         7.7800   -3.3600    1.0820 hc        1 UC4      0.096333
     37 HF3         9.5580   -3.6640    0.9280 hc        1 UC4      0.096333
     38 HN          6.0440    0.3080    1.5440 hn        1 UC4      0.247000
     39 C7          1.3120   -0.3100    2.3250 c2        1 UC4      0.343000
     40 CF          8.7840   -3.0740    1.4820 c3        1 UC4     -0.198000
     41 OG          6.7300   -1.9820   -0.5490 o         1 UC4     -0.335000
@<TRIPOS>BOND
     1    1    3 1   
     2    2    3 1   
     3    2    7 1   
     4    2   39 1   
     5    3   21 1   
     6    4    5 1   
     7    5    6 1   
     8    5   22 1   
     9    6    7 1   
    10    6   20 1   
    11    7   23 1   
    12    8   39 1   
    13    9   10 1   
    14    9   39 1   
    15   10   12 1   
    16   10   24 1   
    17   10   27 1   
    18   11   12 1   
    19   11   25 1   
    20   11   26 1   
    21   11   30 1   
    22   12   28 1   
    23   12   29 1   
    24   13   18 1   
    25   14   15 1   
    26   14   33 1   
    27   14   40 1   
    28   15   16 1   
    29   15   19 1   
    30   16   17 1   
    31   17   31 1   
    32   17   32 1   
    33   17   34 1   
    34   19   20 1   
    35   19   41 1   
    36   20   38 1   
    37   35   40 1   
    38   36   40 1   
    39   37   40 1   
@<TRIPOS>SUBSTRUCTURE
     1 UC4         1 TEMP              0 ****  ****    0 ROOT
