@<TRIPOS>MOLECULE
UC4
   41    38     1     0     0
SMALL
bcc


@<TRIPOS>ATOM
      1 CL         -0.0760   -0.4200    0.2800 cl        1 UC4      0.022000
      2 C1          2.2930    0.1740    1.4070 c2        1 UC4     -0.053000
      3 C2          1.5880   -0.1670    0.3090 c2        1 UC4     -0.107000
      4 C3          2.9960   -2.1270    0.0030 c1        1 UC4      0.199000
      5 C4          4.1940   -1.8140    0.4610 c2        1 UC4     -0.462000
      6 C5          4.6380   -0.5160    0.9530 c2        1 UC4      0.180000
      7 C6          3.7230    0.3990    1.4030 c2        1 UC4     -0.264000
      8 O7          1.0500   -0.4310    3.4300 o         1 UC4     -0.318000
      9 O8          1.8030    1.6720    3.1750 os        1 UC4     -0.233000
     10 C8          1.2550    2.0080    4.4160 c2        1 UC4     -0.031000
     11 C9          0.3040   -3.2710    5.3470 c3        1 UC4     -0.272000
     12 C10         1.3910    3.2730    4.8200 c2        1 UC4     -0.258000
     13 OA         12.7520   -0.2240    0.8560 o         1 UC4     -0.220000
     14 CB          9.3950   -0.8260    1.6020 c2        1 UC4     -0.102000
     15 CC          8.4240   -0.3430    0.8110 c2        1 UC4     -0.338000
     16 S           8.5140    1.0150   -0.2030 ss        1 UC4      0.238000
     17 CD         10.0810    1.7320    0.0940 c3        1 UC4     -0.369000
     18 CE         13.8050   -0.7270    0.7390 c1        1 UC4      0.221000
     19 CG          7.0880   -1.0150    0.7160 c2        1 UC4      0.376000
     20 N           5.9990   -0.1840    0.9650 n         1 UC4     -0.324000
     21 H3          2.0430   -0.2270   -0.6960 h4        1 UC4      0.178000
     22 H4          4.9340   -2.6530    0.4760 ha        1 UC4      0.238000
     23 H6          4.0290    1.3620    1.8450 ha        1 UC4      0.160000
     24 H8          0.7540    1.1950    4.9620 h4        1 UC4      0.167000
     25 H91         0.4860   -4.2050    4.7720 hc        1 UC4      0.067750
     26 H92         0.5150   -2.3900    4.7010 hc        1 UC4      0.067750
     27 H93        -0.7570   -3.2430    5.6780 hc        1 UC4      0.067750
     28 H101        0.9690   -3.2490    6.2370 hc        1 UC4      0.067750
     29 H102        0.9850    3.5970    5.7850 ha        1 UC4      0.130000
     30 H103        1.9010    4.0380    4.2230 ha        1 UC4      0.130000
     31 HD1        10.1900    2.0960    1.1400 h1        1 UC4      0.114333
     32 HD2        10.1400    2.6020   -0.6030 h1        1 UC4      0.114333
     33 HE1        10.3820   -0.3230    1.6230 ha        1 UC4      0.135000
     34 HE2        10.9220    1.0350   -0.1240 h1        1 UC4      0.114333
     35 HF1         9.4470   -1.6880    3.5500 hc        1 UC4      0.096667
     36 HF2        10.0910   -2.7400    2.2200 hc        1 UC4      0.096667
     37 HF3         8.3030   -2.5140    2.4020 hc        1 UC4      0.096667
     38 HN          6.2080    0.7710    1.1790 hn        1 UC4      0.248000
     39 C7          1.6480    0.3780    2.7260 c2        1 UC4      0.354000
     40 CF          9.2930   -2.0000    2.4860 c3        1 UC4     -0.198000
     41 OG          6.9800   -2.2230    0.4430 o         1 UC4     -0.334000
@<TRIPOS>BOND
     1    1    3 1   
     2    2    3 1   
     3    2    7 1   
     4    2   39 1   
     5    3   21 1   
     6    4    5 1   
     7    5    6 1   
     8    5   22 1   
     9    6    7 1   
    10    6   20 1   
    11    7   23 1   
    12    8   39 1   
    13    9   10 1   
    14    9   39 1   
    15   10   12 1   
    16   10   24 1   
    17   11   25 1   
    18   11   26 1   
    19   11   27 1   
    20   11   28 1   
    21   12   29 1   
    22   12   30 1   
    23   13   18 1   
    24   14   15 1   
    25   14   33 1   
    26   14   40 1   
    27   15   16 1   
    28   15   19 1   
    29   16   17 1   
    30   17   31 1   
    31   17   32 1   
    32   17   34 1   
    33   19   20 1   
    34   19   41 1   
    35   20   38 1   
    36   35   40 1   
    37   36   40 1   
    38   37   40 1   
@<TRIPOS>SUBSTRUCTURE
     1 UC4         1 TEMP              0 ****  ****    0 ROOT
