@<TRIPOS>MOLECULE
UC4
   41    42     1     0     0
SMALL
bcc


@<TRIPOS>ATOM
      1 CL         -2.1890   -0.1530    4.4780 cl        1 UC4     -0.069400
      2 C1         -0.4700   -0.2170    2.3880 ca        1 UC4     -0.080600
      3 C2         -1.7970   -0.1280    2.8280 ca        1 UC4      0.022400
      4 C3         -2.8240   -0.0030    1.8860 ca        1 UC4     -0.105000
      5 C4         -2.5370    0.0340    0.5290 ca        1 UC4     -0.161000
      6 C5         -1.1980   -0.0460    0.0700 ca        1 UC4      0.074600
      7 C6         -0.1670   -0.1620    1.0260 ca        1 UC4     -0.111000
      8 O7          0.8530   -1.3300    4.1130 o         1 UC4     -0.524000
      9 O8          1.5340    0.6480    3.3060 os        1 UC4     -0.430900
     10 C8          2.6770    0.5830    4.1890 c3        1 UC4      0.148100
     11 C9          3.7560   -0.2720    3.5580 c3        1 UC4     -0.109100
     12 C10         3.1210    2.0220    4.3700 c3        1 UC4     -0.109100
     13 OA          1.0450   -0.7690   -5.5990 os        1 UC4     -0.317900
     14 CB          1.0200   -0.8070   -4.2240 c2        1 UC4      0.169900
     15 CC          0.1990   -0.0470   -3.4510 ce        1 UC4     -0.231600
     16 S          -0.8680    1.1400   -4.0320 ss        1 UC4     -0.186700
     17 CD         -0.3760    1.2230   -5.7200 c3        1 UC4     -0.075300
     18 CE         -0.0570   -0.1470   -6.2650 c3        1 UC4      0.120400
     19 CG          0.2440   -0.1960   -1.9710 c         1 UC4      0.715300
     20 N          -0.9660    0.0070   -1.3110 n         1 UC4     -0.466100
     21 H3         -3.8710    0.0660    2.2220 ha        1 UC4      0.152000
     22 H4         -3.3690    0.1290   -0.1860 ha        1 UC4      0.139000
     23 H6          0.8930   -0.2080    0.7180 ha        1 UC4      0.189000
     24 H8          2.3530    0.1390    5.1720 h1        1 UC4      0.068700
     25 H91         4.6610   -0.2760    4.2110 hc        1 UC4      0.048367
     26 H92         3.3870   -1.3200    3.4400 hc        1 UC4      0.048367
     27 H93         4.0340    0.1260    2.5530 hc        1 UC4      0.048367
     28 H101        3.4010    2.4700    3.3870 hc        1 UC4      0.048367
     29 H102        2.2970    2.6280    4.8140 hc        1 UC4      0.048367
     30 H103        4.0060    2.0480    5.0500 hc        1 UC4      0.048367
     31 HD1         0.5110    1.8940   -5.8320 h1        1 UC4      0.093700
     32 HD2        -1.2300    1.6740   -6.2840 h1        1 UC4      0.093700
     33 HE1         0.2970   -0.0900   -7.3310 h1        1 UC4      0.073700
     34 HE2        -0.9490   -0.8250   -6.1940 h1        1 UC4      0.073700
     35 HF1         2.4900   -2.3480   -4.5520 hc        1 UC4      0.075367
     36 HF2         2.8470   -1.1820   -3.1910 hc        1 UC4      0.075367
     37 HF3         1.5750   -2.4510   -2.9720 hc        1 UC4      0.075367
     38 HN         -1.7670    0.2020   -1.8750 hn        1 UC4      0.328500
     39 C7          0.6450   -0.3890    3.3450 c         1 UC4      0.651700
     40 CF          2.0420   -1.7580   -3.7160 c3        1 UC4     -0.063900
     41 OG          1.2900   -0.5030   -1.3700 o         1 UC4     -0.590100
@<TRIPOS>BOND
     1    1    3 1   
     2    2    3 ar  
     3    2    7 ar  
     4    2   39 1   
     5    3    4 ar  
     6    4    5 ar  
     7    4   21 1   
     8    5    6 ar  
     9    5   22 1   
    10    6    7 ar  
    11    6   20 1   
    12    7   23 1   
    13    8   39 2   
    14    9   10 1   
    15    9   39 1   
    16   10   11 1   
    17   10   12 1   
    18   10   24 1   
    19   11   25 1   
    20   11   26 1   
    21   11   27 1   
    22   12   28 1   
    23   12   29 1   
    24   12   30 1   
    25   13   14 1   
    26   13   18 1   
    27   14   15 2   
    28   14   40 1   
    29   15   16 1   
    30   15   19 1   
    31   16   17 1   
    32   17   18 1   
    33   17   31 1   
    34   17   32 1   
    35   18   33 1   
    36   18   34 1   
    37   19   20 1   
    38   19   41 2   
    39   20   38 1   
    40   35   40 1   
    41   36   40 1   
    42   37   40 1   
@<TRIPOS>SUBSTRUCTURE
     1 UC4         1 TEMP              0 ****  ****    0 ROOT
