@<TRIPOS>MOLECULE
UCB
   73    73     1     0     0
SMALL
bcc


@<TRIPOS>ATOM
      1 N1          0.6210   -1.5190    0.7230 n3        1 UCB     -0.153000
      2 N2          4.5890    3.6470   -0.0180 n3        1 UCB     -0.388000
      3 C1          5.8970    6.1140    0.7160 c3        1 UCB     -0.011000
      4 C2          4.0690    4.4570    0.9500 c2        1 UCB      0.311000
      5 C3          0.3770    1.7250    2.7040 c1        1 UCB     -0.137000
      6 C4         -0.3210   -2.0510   -0.0350 c2        1 UCB      0.200000
      7 C5          2.3470    2.8140    1.4700 c3        1 UCB     -0.059000
      8 C6         -0.6020   -5.5280   -1.7180 c3        1 UCB     -0.157000
      9 C7          4.6400    5.7640    5.6070 c2        1 UCB     -0.518000
     10 C8         -1.6630   -3.9760    0.7160 c3        1 UCB     -0.147500
     11 C9          3.4350    5.5260    4.8550 c2        1 UCB      0.052000
     12 C10         1.2080    2.8460    2.4880 c3        1 UCB     -0.171000
     13 C11         7.5540    9.5610    0.3890 c1        1 UCB      0.532000
     14 C12         4.7070    5.5890    1.4600 c2        1 UCB     -0.325000
     15 C13         4.8660    5.6350    6.9080 c1        1 UCB      0.355000
     16 C14         0.0810   -6.3350   -0.6380 c3        1 UCB     -0.164000
     17 C15         3.2720    5.7470    3.5350 c2        1 UCB     -0.196000
     18 C16         0.1170    0.4140    2.2350 c3        1 UCB     -0.162000
     19 C17         0.8340   -0.1020    0.9730 c3        1 UCB     -0.126000
     20 C18        -1.8470   -5.4790    0.8200 c3        1 UCB     -0.157000
     21 C19        -0.5750   -6.2910    0.7320 c3        1 UCB     -0.164000
     22 C20         6.2400    7.5320    1.0720 c2        1 UCB      0.330000
     23 C21        -0.4480   -3.5650   -0.1120 c3        1 UCB     -0.127000
     24 C22         7.1380    5.2890    0.8720 c2        1 UCB     -0.260000
     25 C23        -0.5040   -4.0220   -1.5620 c3        1 UCB     -0.147500
     26 C24         4.8210    7.5050    2.9500 c2        1 UCB     -0.156000
     27 C25         7.3940    4.5380    1.9500 c2        1 UCB     -0.087000
     28 C26         4.2860    6.2930    2.6430 c2        1 UCB      0.095000
     29 C27        -0.7170   -0.7310   -2.1160 c3        1 UCB     -0.222000
     30 C28         7.1410    8.2890    0.2750 c2        1 UCB     -0.571000
     31 O1          2.8060    4.1800    1.4280 os        1 UCB     -0.213000
     32 O2          5.7420    8.1570    2.1250 os        1 UCB     -0.035000
     33 CL2         8.7800    3.6080    2.1100 cl        1 UCB      0.054000
     34 C29        -1.3020   -1.2190   -0.8100 c3        1 UCB     -0.189000
     35 H25         4.0160    2.9920   -0.4890 hn        1 UCB      0.251000
     36 H32         5.5010    3.8210   -0.3670 hn        1 UCB      0.251000
     37 H2          1.9520   -3.9850    1.9800 ha        1 UCB      0.002000
     38 H12         2.0910   -4.6240    2.1590 ha        1 UCB      0.002000
     39 H7          1.2330   -2.1390    1.2360 hn        1 UCB      0.273000
     40 H16         3.1710    2.1320    1.7970 h1        1 UCB      0.084500
     41 H21        -0.1370   -5.7960   -2.7080 hc        1 UCB      0.106500
     42 H5          5.5140    6.1210    5.0130 ha        1 UCB      0.196000
     43 H9         -1.5420   -3.5520    1.7500 hc        1 UCB      0.089500
     44 H27        -2.5920   -3.5300    0.2730 hc        1 UCB      0.089500
     45 H6          1.6350    3.1360    3.5020 hc        1 UCB      0.188500
     46 H20         0.5040    3.7040    2.2310 hc        1 UCB      0.188500
     47 H30         6.7130    4.4670    2.8130 h4        1 UCB      0.162000
     48 H17         5.6430    6.1420   -0.3940 hc        1 UCB      0.137000
     49 H29         4.6070    8.1640    3.8060 h4        1 UCB      0.232000
     50 H1          1.1500   -6.0020   -0.5480 hc        1 UCB      0.092000
     51 H28         0.1120   -7.4050   -0.9840 hc        1 UCB      0.092000
     52 H18         2.3000    5.5340    3.0500 ha        1 UCB      0.175000
     53 H11        -1.0030    0.3490    2.0770 hc        1 UCB      0.169000
     54 H14         0.3440   -0.2570    3.1230 hc        1 UCB      0.169000
     55 H8          0.4860    0.4910    0.0800 h1        1 UCB      0.123000
     56 H23         1.9460    0.0510    1.0840 h1        1 UCB      0.123000
     57 H19        -2.3370   -5.6920    1.8110 hc        1 UCB      0.106500
     58 H24        -2.5690   -5.8230    0.0320 hc        1 UCB      0.106500
     59 H15        -0.8230   -7.3440    1.0420 hc        1 UCB      0.092000
     60 H34         0.1630   -5.9070    1.4880 hc        1 UCB      0.092000
     61 H33         0.4660   -4.0450    0.3570 hc        1 UCB      0.134000
     62 H13         7.8440    5.3490    0.0260 ha        1 UCB      0.158000
     63 H10        -1.3830   -3.5540   -2.0800 hc        1 UCB      0.089500
     64 H31         0.4260   -3.6600   -2.0780 hc        1 UCB      0.089500
     65 H22        -0.4080   -1.5890   -2.7630 hc        1 UCB      0.105667
     66 H26        -1.4940   -0.1430   -2.6660 hc        1 UCB      0.105667
     67 H4          7.5940    7.7390   -0.5920 ha        1 UCB      0.245000
     68 H291        0.1690   -0.0730   -1.9490 hc        1 UCB      0.105667
     69 H292       -1.6470   -0.3420   -0.1940 hc        1 UCB      0.142000
     70 H293       -2.2130   -1.8490   -1.0210 hc        1 UCB      0.142000
     71 CL1         2.1230    4.8810    5.7370 cl        1 UCB      0.016000
     72 H221        1.9830    2.5250    0.4500 h1        1 UCB      0.084500
     73 H3         -1.6820   -5.8280   -1.7860 hc        1 UCB      0.106500
@<TRIPOS>BOND
     1    1    6 1   
     2    1   19 1   
     3    1   39 1   
     4    2    4 1   
     5    2   35 1   
     6    2   36 1   
     7    3   14 1   
     8    3   22 1   
     9    3   24 1   
    10    3   48 1   
    11    4   14 1   
    12    4   31 1   
    13    5   12 1   
    14    5   18 1   
    15    6   23 1   
    16    6   34 1   
    17    7   12 1   
    18    7   31 1   
    19    7   40 1   
    20    7   72 1   
    21    8   16 1   
    22    8   25 1   
    23    8   41 1   
    24    8   73 1   
    25    9   11 1   
    26    9   15 1   
    27    9   42 1   
    28   10   20 1   
    29   10   23 1   
    30   10   43 1   
    31   10   44 1   
    32   11   17 1   
    33   11   71 1   
    34   12   45 1   
    35   12   46 1   
    36   13   30 1   
    37   14   28 1   
    38   16   21 1   
    39   16   50 1   
    40   16   51 1   
    41   17   28 1   
    42   17   52 1   
    43   18   19 1   
    44   18   53 1   
    45   18   54 1   
    46   19   55 1   
    47   19   56 1   
    48   20   21 1   
    49   20   57 1   
    50   20   58 1   
    51   21   59 1   
    52   21   60 1   
    53   22   30 1   
    54   22   32 1   
    55   23   25 1   
    56   23   61 1   
    57   24   27 1   
    58   24   62 1   
    59   25   63 1   
    60   25   64 1   
    61   26   28 1   
    62   26   32 1   
    63   26   49 1   
    64   27   33 1   
    65   27   47 1   
    66   29   34 1   
    67   29   65 1   
    68   29   66 1   
    69   29   68 1   
    70   30   67 1   
    71   34   69 1   
    72   34   70 1   
    73   37   38 1   
@<TRIPOS>SUBSTRUCTURE
     1 UCB         1 TEMP              0 ****  ****    0 ROOT
