@<TRIPOS>MOLECULE
UCB
   72    76     1     0     0
SMALL
bcc


@<TRIPOS>ATOM
      1 N1         -1.4890    0.6600   -0.5470 n4        1 UCB     -0.605800
      2 N2          0.4070    3.5460    0.8630 n         1 UCB     -0.576900
      3 C1          1.1140    5.8860    2.6080 ca        1 UCB     -0.135300
      4 C2          0.9080    4.7610    0.4110 c         1 UCB      0.662100
      5 C3          0.9010    2.2930    0.3310 c3        1 UCB      0.101700
      6 C4         -0.9410   -0.6560   -1.0290 c3        1 UCB      0.110800
      7 C5         -0.9480    1.8250   -1.3390 c3        1 UCB      0.117800
      8 C6         -0.4310   -1.4340   -4.7350 c3        1 UCB     -0.078400
      9 C7         -3.7320    6.4300    1.4620 ca        1 UCB     -0.093000
     10 C8         -1.2510   -2.7140   -2.3560 c3        1 UCB     -0.076400
     11 C9         -3.0360    6.9180    0.3480 ca        1 UCB     -0.001100
     12 C10         0.5360    2.0780   -1.1470 c3        1 UCB     -0.115900
     13 C11         2.1220    5.6330    5.2170 ca        1 UCB     -0.093000
     14 C12         0.5430    6.0070    1.2320 c3        1 UCB     -0.024100
     15 C13        -3.0410    5.8130    2.4990 ca        1 UCB     -0.129000
     16 C14         0.6920   -2.4320   -4.5250 c3        1 UCB     -0.077400
     17 C15        -1.6460    6.7970    0.2620 ca        1 UCB     -0.085000
     18 C16         0.3890    1.0820    1.1230 c3        1 UCB     -0.115900
     19 C17        -1.0970    0.8430    0.9010 c3        1 UCB      0.117800
     20 C18         0.1670   -3.2040   -2.1650 c3        1 UCB     -0.078400
     21 C19         1.1800   -2.5840   -3.1020 c3        1 UCB     -0.077400
     22 C20         0.3080    5.4140    3.6560 ca        1 UCB      0.097100
     23 C21        -1.4230   -1.1980   -2.3840 c3        1 UCB     -0.068700
     24 C22         2.4350    6.2480    2.8820 ca        1 UCB     -0.085000
     25 C23        -0.7280   -0.5250   -3.5620 c3        1 UCB     -0.076400
     26 C24        -1.6500    5.6810    2.4000 ca        1 UCB      0.097100
     27 C25         2.9340    6.1140    4.1810 ca        1 UCB     -0.001100
     28 C26        -0.9420    6.1630    1.2880 ca        1 UCB     -0.135300
     29 C27        -2.9940    0.7020   -0.6450 c3        1 UCB      0.116800
     30 C28         0.7990    5.2870    4.9620 ca        1 UCB     -0.129000
     31 O1          1.5810    4.8440   -0.6300 o         1 UCB     -0.583100
     32 O2         -1.0120    5.0140    3.4450 os        1 UCB     -0.250200
     33 CL2         4.5410    6.5430    4.5060 cl        1 UCB     -0.060400
     34 C29        -3.7210   -0.4460    0.0230 c3        1 UCB     -0.127100
     35 H25         0.0270    3.5240    1.7840 hn        1 UCB      0.320500
     36 H32         2.0350    2.2990    0.3890 h1        1 UCB      0.084700
     37 H2          0.1830   -0.5610   -1.0590 hx        1 UCB      0.094200
     38 H12        -1.2070   -1.4150   -0.2350 hx        1 UCB      0.094200
     39 H7         -1.5200    2.7430   -1.0150 hx        1 UCB      0.098700
     40 H16        -1.1660    1.6330   -2.4270 hx        1 UCB      0.098700
     41 H3         -0.1640   -0.7790   -5.6100 hc        1 UCB      0.049200
     42 H21        -1.3710   -1.9750   -5.0270 hc        1 UCB      0.049200
     43 H5         -4.8260    6.5500    1.5270 ha        1 UCB      0.164000
     44 H9         -1.6590   -3.1310   -3.3160 hc        1 UCB      0.048950
     45 H27        -1.8900   -3.1300   -1.5290 hc        1 UCB      0.048950
     46 H6          1.1500    1.2280   -1.5440 hc        1 UCB      0.092950
     47 H20         0.8080    2.9930   -1.7460 hc        1 UCB      0.092950
     48 H30         2.5250    5.5400    6.2390 ha        1 UCB      0.164000
     49 H17         1.0050    6.8890    0.6990 hc        1 UCB      0.119700
     50 H29        -3.5660    5.4440    3.3930 ha        1 UCB      0.163500
     51 H1          1.5690   -2.1250   -5.1570 hc        1 UCB      0.047700
     52 H28         0.3590   -3.4360   -4.9020 hc        1 UCB      0.047700
     53 H18        -1.1020    7.2020   -0.6070 ha        1 UCB      0.165500
     54 H11         0.5460    1.2250    2.2260 hc        1 UCB      0.092950
     55 H14         0.9890    0.1840    0.8190 hc        1 UCB      0.092950
     56 H8         -1.4190   -0.0760    1.4680 hx        1 UCB      0.098700
     57 H23        -1.6780    1.7270    1.2940 hx        1 UCB      0.098700
     58 H19         0.1650   -4.3190   -2.3120 hc        1 UCB      0.049200
     59 H24         0.4910   -3.0160   -1.1060 hc        1 UCB      0.049200
     60 H15         2.0960   -3.2350   -3.1090 hc        1 UCB      0.047700
     61 H34         1.5040   -1.5860   -2.7020 hc        1 UCB      0.047700
     62 H33        -2.5310   -1.0190   -2.4930 hc        1 UCB      0.056700
     63 H13         3.0760    6.6370    2.0740 ha        1 UCB      0.165500
     64 H10         0.2280   -0.0400   -3.2280 hc        1 UCB      0.048950
     65 H31        -1.3980    0.2970   -3.9390 hc        1 UCB      0.048950
     66 H22        -3.3320    1.6750   -0.1820 hx        1 UCB      0.095700
     67 H26        -3.2570    0.7330   -1.7420 hx        1 UCB      0.095700
     68 H4          0.1400    4.9260    5.7650 ha        1 UCB      0.163500
     69 H291       -4.8200   -0.2860   -0.1270 hc        1 UCB      0.072700
     70 H292       -3.4490   -1.4320   -0.4280 hc        1 UCB      0.072700
     71 H293       -3.5220   -0.4830    1.1210 hc        1 UCB      0.072700
     72 CL1        -3.8880    7.6730   -0.9080 cl        1 UCB     -0.060400
@<TRIPOS>BOND
     1    1    6 1   
     2    1    7 1   
     3    1   19 1   
     4    1   29 1   
     5    2    4 1   
     6    2    5 1   
     7    2   35 1   
     8    3   14 1   
     9    3   22 ar  
    10    3   24 ar  
    11    4   14 1   
    12    4   31 2   
    13    5   12 1   
    14    5   18 1   
    15    5   36 1   
    16    6   23 1   
    17    6   37 1   
    18    6   38 1   
    19    7   12 1   
    20    7   39 1   
    21    7   40 1   
    22    8   16 1   
    23    8   25 1   
    24    8   41 1   
    25    8   42 1   
    26    9   11 ar  
    27    9   15 ar  
    28    9   43 1   
    29   10   20 1   
    30   10   23 1   
    31   10   44 1   
    32   10   45 1   
    33   11   17 ar  
    34   11   72 1   
    35   12   46 1   
    36   12   47 1   
    37   13   27 ar  
    38   13   30 ar  
    39   13   48 1   
    40   14   28 1   
    41   14   49 1   
    42   15   26 ar  
    43   15   50 1   
    44   16   21 1   
    45   16   51 1   
    46   16   52 1   
    47   17   28 ar  
    48   17   53 1   
    49   18   19 1   
    50   18   54 1   
    51   18   55 1   
    52   19   56 1   
    53   19   57 1   
    54   20   21 1   
    55   20   58 1   
    56   20   59 1   
    57   21   60 1   
    58   21   61 1   
    59   22   30 ar  
    60   22   32 1   
    61   23   25 1   
    62   23   62 1   
    63   24   27 ar  
    64   24   63 1   
    65   25   64 1   
    66   25   65 1   
    67   26   28 ar  
    68   26   32 1   
    69   27   33 1   
    70   29   34 1   
    71   29   66 1   
    72   29   67 1   
    73   30   68 1   
    74   34   69 1   
    75   34   70 1   
    76   34   71 1   
@<TRIPOS>SUBSTRUCTURE
     1 UCB         1 TEMP              0 ****  ****    0 ROOT
