@<TRIPOS>MOLECULE
UCB
   73    74     1     0     0
SMALL
bcc


@<TRIPOS>ATOM
      1 N1         -0.6140   -0.2270   -0.8410 n4        1 UCB      0.028000
      2 N2          2.1460    3.7250    2.1810 n4        1 UCB     -0.189000
      3 C1          5.7370    4.8940    1.3260 c3        1 UCB     -0.007000
      4 C2          3.4660    3.9060    1.4740 c2        1 UCB      0.322000
      5 C3          0.6570    1.8450    0.7770 c1        1 UCB     -0.063000
      6 C4         -0.7140   -1.2090    0.2970 c3        1 UCB     -0.131000
      7 C5          0.8090    0.1780   -1.1180 c3        1 UCB     -0.145000
      8 C6          0.6390   -4.7450   -0.4350 c3        1 UCB     -0.156500
      9 C7          3.6500    4.9340    5.9130 c2        1 UCB     -0.485000
     10 C8          0.1080   -3.0110    1.7470 c3        1 UCB     -0.152000
     11 C9          2.6770    5.5730    5.0570 c2        1 UCB      0.054000
     12 C10         1.4780    0.9350    0.0230 c3        1 UCB     -0.252000
     13 C11         8.5130    3.9370    1.0540 c1        1 UCB      0.402000
     14 C12         4.4300    4.7560    2.0420 c2        1 UCB     -0.408000
     15 C13         4.9610    4.8920    5.6980 c1        1 UCB      0.242000
     16 C14         2.0750   -4.8610    0.0210 c3        1 UCB     -0.159000
     17 C15         2.9430    5.8760    3.7640 c2        1 UCB     -0.279000
     18 C16        -0.7780    1.8730    0.6190 c3        1 UCB     -0.252000
     19 C17        -1.3970    1.0110   -0.4800 c3        1 UCB     -0.145000
     20 C18         1.2600   -3.8800    2.2240 c3        1 UCB     -0.156500
     21 C19         2.4130   -4.0660    1.2640 c3        1 UCB     -0.159000
     22 C20         6.8490    5.2440    2.2780 c2        1 UCB      0.299000
     23 C21         0.3190   -2.3450    0.3880 c3        1 UCB     -0.109000
     24 C22         6.1450    3.7380    0.4710 c2        1 UCB     -0.175000
     25 C23         0.1990   -3.3340   -0.7620 c3        1 UCB     -0.152000
     26 C24         5.3300    6.1940    3.7830 c2        1 UCB     -0.168000
     27 C25         6.5790    2.5510    0.9440 c2        1 UCB     -0.112000
     28 C26         4.2520    5.5980    3.1760 c2        1 UCB      0.080000
     29 C27        -1.1830   -0.7860   -2.1310 c3        1 UCB     -0.120000
     30 C28         8.1830    4.8620    1.9760 c2        1 UCB     -0.529000
     31 O1          3.5190    3.2300    0.4260 o         1 UCB     -0.385000
     32 O2          6.6490    5.9360    3.3850 os        1 UCB     -0.006000
     33 CL2         6.9550    1.2510   -0.0520 cl        1 UCB      0.057000
     34 C29        -2.6290   -1.2270   -2.0850 c3        1 UCB     -0.250000
     35 H25         2.3080    3.4950    3.1590 hn        1 UCB      0.254667
     36 H32         1.5670    2.9400    1.6880 hn        1 UCB      0.254667
     37 H2         -0.6260   -0.5970    1.2430 hx        1 UCB      0.130000
     38 H12        -1.7480   -1.6580    0.2630 hx        1 UCB      0.130000
     39 H7          1.3980   -0.7500   -1.3690 hx        1 UCB      0.150500
     40 H16         0.7970    0.8380   -2.0350 hx        1 UCB      0.150500
     41 H21         0.5110   -5.3670   -1.3640 hc        1 UCB      0.100500
     42 H5          3.2790    4.4790    6.8590 ha        1 UCB      0.221000
     43 H9         -0.0700   -2.2160    2.5210 hc        1 UCB      0.081000
     44 H27        -0.8300   -3.6270    1.6990 hc        1 UCB      0.081000
     45 H6          1.9560    0.2200    0.7630 hc        1 UCB      0.198500
     46 H20         2.3590    1.5260   -0.4020 hc        1 UCB      0.198500
     47 H30         6.6750    2.3160    2.0170 h4        1 UCB      0.164000
     48 H17         5.6560    5.8040    0.6400 hc        1 UCB      0.153000
     49 H29         5.3540    6.9950    4.5420 h4        1 UCB      0.236000
     50 H1          2.7600   -4.5470   -0.8100 hc        1 UCB      0.088750
     51 H28         2.2810   -5.9490    0.2180 hc        1 UCB      0.088750
     52 H18         2.2340    6.4370    3.1340 ha        1 UCB      0.170000
     53 H11        -1.1030    2.9450    0.4400 hc        1 UCB      0.198500
     54 H14        -1.2210    1.6040    1.6290 hc        1 UCB      0.198500
     55 H8         -2.4300    0.6850   -0.1620 hx        1 UCB      0.150500
     56 H23        -1.4990    1.6280   -1.4200 hx        1 UCB      0.150500
     57 H19         1.6670   -3.4360    3.1730 hc        1 UCB      0.100500
     58 H24         0.8530   -4.8930    2.4930 hc        1 UCB      0.100500
     59 H15         3.2350   -4.6030    1.8130 hc        1 UCB      0.088750
     60 H34         2.8380   -3.0670    0.9770 hc        1 UCB      0.088750
     61 H33         1.3510   -1.8940    0.3790 hc        1 UCB      0.095000
     62 H13         6.0060    3.9000   -0.6150 ha        1 UCB      0.183000
     63 H10        -0.8730   -3.3830   -1.1000 hc        1 UCB      0.081000
     64 H31         0.8190   -2.9630   -1.6230 hc        1 UCB      0.081000
     65 H22        -0.5320   -1.6570   -2.4300 hx        1 UCB      0.143000
     66 H26        -1.0710    0.0210   -2.9140 hx        1 UCB      0.143000
     67 H4          9.0110    5.3360    2.5560 ha        1 UCB      0.249000
     68 H291       -3.3160   -0.4090   -1.7600 hc        1 UCB      0.120000
     69 H292       -2.9190   -1.5240   -3.1290 hc        1 UCB      0.120000
     70 H293       -2.7830   -2.1180   -1.4290 hc        1 UCB      0.120000
     71 CL1         1.1640    5.9280    5.7280 cl        1 UCB      0.044000
     72 H221        1.6230    4.5990    2.1450 hn        1 UCB      0.254667
     73 H3         -0.0400   -5.1840    0.3430 hc        1 UCB      0.100500
@<TRIPOS>BOND
     1    1    6 1   
     2    1    7 1   
     3    1   19 1   
     4    1   29 1   
     5    2    4 1   
     6    2   35 1   
     7    2   36 1   
     8    2   72 1   
     9    3   14 1   
    10    3   22 1   
    11    3   24 1   
    12    3   48 1   
    13    4   14 1   
    14    4   31 1   
    15    5   12 1   
    16    5   18 1   
    17    6   23 1   
    18    6   37 1   
    19    6   38 1   
    20    7   12 1   
    21    7   39 1   
    22    7   40 1   
    23    8   16 1   
    24    8   25 1   
    25    8   41 1   
    26    8   73 1   
    27    9   11 1   
    28    9   15 1   
    29    9   42 1   
    30   10   20 1   
    31   10   23 1   
    32   10   43 1   
    33   10   44 1   
    34   11   17 1   
    35   11   71 1   
    36   12   45 1   
    37   12   46 1   
    38   13   30 1   
    39   14   28 1   
    40   16   21 1   
    41   16   50 1   
    42   16   51 1   
    43   17   28 1   
    44   17   52 1   
    45   18   19 1   
    46   18   53 1   
    47   18   54 1   
    48   19   55 1   
    49   19   56 1   
    50   20   21 1   
    51   20   57 1   
    52   20   58 1   
    53   21   59 1   
    54   21   60 1   
    55   22   30 1   
    56   22   32 1   
    57   23   25 1   
    58   23   61 1   
    59   24   27 1   
    60   24   62 1   
    61   25   63 1   
    62   25   64 1   
    63   26   28 1   
    64   26   32 1   
    65   26   49 1   
    66   27   33 1   
    67   27   47 1   
    68   29   34 1   
    69   29   65 1   
    70   29   66 1   
    71   30   67 1   
    72   34   68 1   
    73   34   69 1   
    74   34   70 1   
@<TRIPOS>SUBSTRUCTURE
     1 UCB         1 TEMP              0 ****  ****    0 ROOT
