@<TRIPOS>MOLECULE
UCD
   46    47     1     0     0
SMALL
bcc


@<TRIPOS>ATOM
      1 CAA         3.2330    4.1460    0.1190 c3        1 UCD     -0.174100
      2 CAP         3.2420    2.6690   -0.2010 c         1 UCD      0.655100
      3 OAB         4.0080    2.2020   -1.0700 o         1 UCD     -0.622100
      4 N2          2.4120    1.8550    0.5510 n         1 UCD     -0.535900
      5 C2          2.1720    0.4860    0.1560 c3        1 UCD      0.027700
      6 C1          3.2470   -0.4960    0.7080 c3        1 UCD      0.340900
      7 O1          4.5560   -0.1720    0.3460 oh        1 UCD     -0.589800
      8 O5          3.0720   -1.7740    0.1070 os        1 UCD     -0.441600
      9 C5          1.8120   -2.3690    0.4200 c3        1 UCD      0.102100
     10 C6          1.7550   -3.6870   -0.3650 c3        1 UCD      0.150400
     11 O6          0.6360   -4.4500    0.0220 oh        1 UCD     -0.623800
     12 C4          0.6140   -1.4760    0.0600 c3        1 UCD      0.089100
     13 O4          0.4880   -1.4050   -1.3450 oh        1 UCD     -0.609800
     14 C3          0.8060   -0.0610    0.6350 c3        1 UCD      0.128100
     15 O3         -0.1980    0.8230    0.1380 os        1 UCD     -0.435600
     16 CAX        -1.3750    0.9060    0.9310 c3        1 UCD      0.332900
     17 OAM        -1.9130   -0.4040    0.9090 os        1 UCD     -0.350900
     18 CAR        -2.9680   -0.6740    0.0590 ce        1 UCD      0.064900
     19 CAQ        -3.0220   -2.1390   -0.3900 c         1 UCD      0.936800
     20 OAE        -1.9290   -2.6960   -0.6940 o         1 UCD     -0.808300
     21 OAC        -4.1550   -2.6720   -0.4570 o         1 UCD     -0.808300
     22 CAJ        -3.8600    0.2730   -0.2840 c2        1 UCD     -0.349200
     23 CAS        -3.7070    1.6680    0.1930 c3        1 UCD      0.165300
     24 OAF        -4.3450    2.6280   -0.6400 oh        1 UCD     -0.618800
     25 CAU        -2.2130    2.0310    0.2990 c3        1 UCD      0.092100
     26 OAH        -2.0290    3.1720    1.1290 oh        1 UCD     -0.613800
     27 HAA1        3.9720    4.6610   -0.5410 hc        1 UCD      0.060700
     28 HAA2        2.2190    4.5770   -0.0610 hc        1 UCD      0.060700
     29 HAA3        3.5170    4.3150    1.1850 hc        1 UCD      0.060700
     30 HN2         1.6700    2.2910    1.0510 hn        1 UCD      0.308500
     31 H2          2.1950    0.4090   -0.9760 h1        1 UCD      0.106700
     32 H1          3.2300   -0.5660    1.8310 h2        1 UCD      0.061700
     33 HO1         4.5610    0.0410   -0.5990 ho        1 UCD      0.433000
     34 H5          1.7770   -2.5760    1.5270 h1        1 UCD      0.037700
     35 H61         1.7340   -3.4630   -1.4640 h1        1 UCD      0.052200
     36 H62         2.6490   -4.3160   -0.1170 h1        1 UCD      0.052200
     37 HO6        -0.1620   -3.9830   -0.2810 ho        1 UCD      0.451000
     38 H4         -0.3200   -1.9280    0.5150 h1        1 UCD      0.122700
     39 HO4        -0.4570   -1.5360   -1.5380 ho        1 UCD      0.449000
     40 H3          0.7660   -0.1050    1.7580 h1        1 UCD      0.040700
     41 HAX        -1.1330    1.1180    2.0110 h2        1 UCD      0.071700
     42 HAJ        -4.7390    0.0240   -0.8910 ha        1 UCD      0.162000
     43 HAS        -4.2010    1.8100    1.1990 h1        1 UCD      0.077700
     44 HAF        -4.2170    2.3470   -1.5540 ho        1 UCD      0.407000
     45 HAU        -1.8100    2.2610   -0.7290 h1        1 UCD      0.068700
     46 HAH        -2.7060    3.8070    0.8610 ho        1 UCD      0.413000
@<TRIPOS>BOND
     1    1    2 1   
     2    1   27 1   
     3    1   28 1   
     4    1   29 1   
     5    2    3 2   
     6    2    4 1   
     7    4    5 1   
     8    4   30 1   
     9    5    6 1   
    10    5   14 1   
    11    5   31 1   
    12    6    7 1   
    13    6    8 1   
    14    6   32 1   
    15    7   33 1   
    16    8    9 1   
    17    9   10 1   
    18    9   12 1   
    19    9   34 1   
    20   10   11 1   
    21   10   35 1   
    22   10   36 1   
    23   11   37 1   
    24   12   13 1   
    25   12   14 1   
    26   12   38 1   
    27   13   39 1   
    28   14   15 1   
    29   14   40 1   
    30   15   16 1   
    31   16   17 1   
    32   16   25 1   
    33   16   41 1   
    34   17   18 1   
    35   18   19 1   
    36   18   22 2   
    37   19   20 1   
    38   19   21 1   
    39   22   23 1   
    40   22   42 1   
    41   23   24 1   
    42   23   25 1   
    43   23   43 1   
    44   24   44 1   
    45   25   26 1   
    46   25   45 1   
    47   26   46 1   
@<TRIPOS>SUBSTRUCTURE
     1 UCD         1 TEMP              0 ****  ****    0 ROOT
