@<TRIPOS>MOLECULE
UCK
   44    46     1     0     0
SMALL
bcc


@<TRIPOS>ATOM
      1 O01         2.6320   -3.7600   -1.9710 oh        1 UCK     -0.589800
      2 C02         1.9270   -3.4430   -0.7850 c3        1 UCK      0.131100
      3 C03         0.5150   -3.0040   -1.1940 c3        1 UCK     -0.088400
      4 C04         0.3280   -1.5710   -0.6570 c3        1 UCK      0.029700
      5 C05        -0.8090   -1.5160    0.3920 c         1 UCK      0.650100
      6 N06        -1.0730   -0.2880    0.9560 n         1 UCK     -0.551900
      7 C07        -2.1810   -0.0840    1.8500 c3        1 UCK      0.132300
      8 C08        -3.4730    0.2970    1.1820 ca        1 UCK     -0.121300
      9 C09        -4.2050   -0.6740    0.4900 ca        1 UCK     -0.107500
     10 C10        -5.4180   -0.3460   -0.1110 ca        1 UCK     -0.128500
     11 C11        -5.8990    0.9650   -0.0190 ca        1 UCK      0.021400
     12 CL1        -7.3800    1.3730   -0.7490 cl        1 UCK     -0.097400
     13 C13        -5.1730    1.9430    0.6680 ca        1 UCK     -0.128500
     14 C14        -3.9590    1.6040    1.2640 ca        1 UCK     -0.107500
     15 O15        -1.4460   -2.5400    0.7110 o         1 UCK     -0.621100
     16 N16         1.6090   -1.1370   -0.1060 n         1 UCK     -0.445800
     17 C17         1.9940    0.1950   -0.1630 c         1 UCK      0.681700
     18 C18         3.3990    0.5340    0.2140 ca        1 UCK     -0.127600
     19 C19         4.4090    0.6390   -0.7520 ca        1 UCK      0.038400
     20 CL2         4.0840    0.3060   -2.3850 cl        1 UCK     -0.070400
     21 C21         5.7020    1.0230   -0.3770 ca        1 UCK     -0.128000
     22 C22         5.9810    1.2960    0.9610 ca        1 UCK     -0.106000
     23 C23         4.9790    1.1910    1.9250 ca        1 UCK     -0.132000
     24 C24         3.6900    0.8120    1.5540 ca        1 UCK     -0.088000
     25 O25         1.1640    1.0830   -0.4410 o         1 UCK     -0.598100
     26 C26         2.5620   -2.2290   -0.0600 c3        1 UCK      0.049000
     27 H01         3.4970   -4.0950   -1.7050 ho        1 UCK      0.403000
     28 H02         1.9010   -4.3330   -0.1020 h1        1 UCK      0.055700
     29 H031        0.4190   -3.0090   -2.3080 hc        1 UCK      0.090700
     30 H032       -0.2500   -3.6990   -0.7650 hc        1 UCK      0.090700
     31 H261        2.7670   -2.4840    1.0160 h1        1 UCK      0.059700
     32 H262        3.5310   -1.9410   -0.5540 h1        1 UCK      0.059700
     33 H04         0.0250   -0.8780   -1.4990 h1        1 UCK      0.089700
     34 H06        -0.6630    0.5240    0.5460 hn        1 UCK      0.336500
     35 H071       -2.3500   -1.0380    2.4320 h1        1 UCK      0.067700
     36 H072       -1.8830    0.7280    2.5760 h1        1 UCK      0.067700
     37 H09        -3.8120   -1.7030    0.4260 ha        1 UCK      0.148000
     38 H14        -3.3860    2.3740    1.8030 ha        1 UCK      0.148000
     39 H10        -5.9920   -1.1130   -0.6530 ha        1 UCK      0.147500
     40 H13        -5.5530    2.9730    0.7370 ha        1 UCK      0.147500
     41 H24         2.8940    0.7370    2.3100 ha        1 UCK      0.150000
     42 H21         6.4930    1.1110   -1.1370 ha        1 UCK      0.153000
     43 H22         6.9980    1.5990    1.2530 ha        1 UCK      0.143000
     44 H23         5.2030    1.4110    2.9800 ha        1 UCK      0.143000
@<TRIPOS>BOND
     1    1    2 1   
     2    1   27 1   
     3    2    3 1   
     4    2   26 1   
     5    2   28 1   
     6    3    4 1   
     7    3   29 1   
     8    3   30 1   
     9    4    5 1   
    10    4   16 1   
    11    4   33 1   
    12    5    6 1   
    13    5   15 2   
    14    6    7 1   
    15    6   34 1   
    16    7    8 1   
    17    7   35 1   
    18    7   36 1   
    19    8    9 ar  
    20    8   14 ar  
    21    9   10 ar  
    22    9   37 1   
    23   10   11 ar  
    24   10   39 1   
    25   11   12 1   
    26   11   13 ar  
    27   13   14 ar  
    28   13   40 1   
    29   14   38 1   
    30   16   17 1   
    31   16   26 1   
    32   17   18 1   
    33   17   25 2   
    34   18   19 ar  
    35   18   24 ar  
    36   19   20 1   
    37   19   21 ar  
    38   21   22 ar  
    39   21   42 1   
    40   22   23 ar  
    41   22   43 1   
    42   23   24 ar  
    43   23   44 1   
    44   24   41 1   
    45   26   31 1   
    46   26   32 1   
@<TRIPOS>SUBSTRUCTURE
     1 UCK         1 TEMP              0 ****  ****    0 ROOT
