@<TRIPOS>MOLECULE
UCK
   45    47     1     0     0
SMALL
bcc


@<TRIPOS>ATOM
      1 O01         0.0920   -0.1880   -0.3220 oh        1 UCK     -0.582800
      2 C02         1.4870   -0.1640   -0.1000 c3        1 UCK      0.136100
      3 C03         1.7030   -0.3540    1.4080 c3        1 UCK     -0.094400
      4 C04         2.2850    0.9770    1.9330 c3        1 UCK      0.038700
      5 C05         3.6170    0.7160    2.6590 c         1 UCK      0.534100
      6 N06         4.2570    1.9340    3.2720 ny        1 UCK     -0.677800
      7 C07         5.1430    1.6570    4.4500 c3        1 UCK      0.173100
      8 C08         4.3640    1.5330    5.7140 ca        1 UCK     -0.188300
      9 C09         4.2110    0.2840    6.3250 ca        1 UCK     -0.091000
     10 C10         3.5250    0.1760    7.5320 ca        1 UCK     -0.120000
     11 C11         2.9830    1.3220    8.1290 ca        1 UCK      0.052400
     12 Cl1         2.1480    1.1940    9.5910 cl        1 UCK     -0.033400
     13 C13         3.1340    2.5750    7.5190 ca        1 UCK     -0.120000
     14 C14         3.8250    2.6780    6.3160 ca        1 UCK     -0.091000
     15 O15         4.1810   -0.3560    2.8060 o         1 UCK     -0.416100
     16 N16         2.4470    1.8830    0.8050 n         1 UCK     -0.463800
     17 C17         2.3050    3.2630    0.9920 c         1 UCK      0.702700
     18 C18         2.0000    4.1280   -0.1770 ca        1 UCK     -0.156600
     19 C19         0.6710    4.4060   -0.5310 ca        1 UCK      0.041400
     20 Cl2        -0.6140    3.6980    0.3210 cl        1 UCK     -0.059400
     21 C21         0.4000    5.2770   -1.5910 ca        1 UCK     -0.115000
     22 C22         1.4520    5.8620   -2.2940 ca        1 UCK     -0.084000
     23 C23         2.7750    5.5850   -1.9440 ca        1 UCK     -0.121000
     24 C24         3.0500    4.7210   -0.8850 ca        1 UCK     -0.086000
     25 O25         2.5300    3.7280    2.1300 o         1 UCK     -0.633100
     26 C26         2.0740    1.2290   -0.4430 c3        1 UCK      0.036000
     27 H01        -0.0510   -0.3190   -1.2680 ho        1 UCK      0.423000
     28 H02         2.0020   -0.9640   -0.6950 h1        1 UCK      0.073700
     29 H031        2.3900   -1.2140    1.5990 hc        1 UCK      0.103200
     30 H032        0.7230   -0.5590    1.9130 hc        1 UCK      0.103200
     31 H261        1.3150    1.8400   -1.0060 h1        1 UCK      0.082700
     32 H262        3.0000    1.1210   -1.0730 h1        1 UCK      0.082700
     33 H04         1.5900    1.4280    2.7080 h1        1 UCK      0.112700
     34 H06         3.5030    2.5880    3.5570 hn        1 UCK      0.475300
     35 H071        5.7250    0.7130    4.2380 hx        1 UCK      0.112700
     36 H072        5.8660    2.5220    4.5260 hx        1 UCK      0.112700
     37 H09         4.6400   -0.6190    5.8600 ha        1 UCK      0.147000
     38 H14         3.9580    3.6670    5.8510 ha        1 UCK      0.147000
     39 H10         3.4130   -0.8090    8.0160 ha        1 UCK      0.171000
     40 H13         2.7140    3.4780    7.9940 ha        1 UCK      0.171000
     41 H24         4.0920    4.5130   -0.6020 ha        1 UCK      0.140000
     42 H21        -0.6440    5.5040   -1.8650 ha        1 UCK      0.169000
     43 H22         1.2360    6.5510   -3.1270 ha        1 UCK      0.160000
     44 H23         3.6030    6.0530   -2.4990 ha        1 UCK      0.157000
     45 H062        4.7990    2.4010    2.5360 hn        1 UCK      0.475300
@<TRIPOS>BOND
     1    1    2 1   
     2    1   27 1   
     3    2    3 1   
     4    2   26 1   
     5    2   28 1   
     6    3    4 1   
     7    3   29 1   
     8    3   30 1   
     9    4    5 1   
    10    4   16 1   
    11    4   33 1   
    12    5    6 1   
    13    5   15 2   
    14    6    7 1   
    15    6   34 1   
    16    6   45 1   
    17    7    8 1   
    18    7   35 1   
    19    7   36 1   
    20    8    9 ar  
    21    8   14 ar  
    22    9   10 ar  
    23    9   37 1   
    24   10   11 ar  
    25   10   39 1   
    26   11   12 1   
    27   11   13 ar  
    28   13   14 ar  
    29   13   40 1   
    30   14   38 1   
    31   16   17 1   
    32   16   26 1   
    33   17   18 1   
    34   17   25 2   
    35   18   19 ar  
    36   18   24 ar  
    37   19   20 1   
    38   19   21 ar  
    39   21   22 ar  
    40   21   42 1   
    41   22   23 ar  
    42   22   43 1   
    43   23   24 ar  
    44   23   44 1   
    45   24   41 1   
    46   26   31 1   
    47   26   32 1   
@<TRIPOS>SUBSTRUCTURE
     1 UCK         1 TEMP              0 ****  ****    0 ROOT
