@<TRIPOS>MOLECULE
UCK
   45    47     1     0     0
SMALL
bcc


@<TRIPOS>ATOM
      1 O01         0.0520   -0.1640   -0.3040 oh        1 UCK     -0.582800
      2 C02         1.4470   -0.1650   -0.0810 c3        1 UCK      0.136100
      3 C03         1.6570   -0.3440    1.4300 c3        1 UCK     -0.094400
      4 C04         2.2630    0.9800    1.9430 c3        1 UCK      0.038700
      5 C05         3.5890    0.7010    2.6740 c         1 UCK      0.534100
      6 N06         4.2520    1.9120    3.2750 n4        1 UCK     -0.677800
      7 C07         5.1320    1.6300    4.4560 c3        1 UCK      0.173100
      8 C08         4.3500    1.5360    5.7210 ca        1 UCK     -0.188300
      9 C09         4.1730    0.2960    6.3450 ca        1 UCK     -0.091000
     10 C10         3.4840    0.2150    7.5530 ca        1 UCK     -0.120000
     11 C11         2.9650    1.3780    8.1370 ca        1 UCK      0.052400
     12 CL1         2.1270    1.2820    9.6010 cl        1 UCK     -0.033400
     13 C13         3.1400    2.6210    7.5140 ca        1 UCK     -0.120000
     14 C14         3.8340    2.6970    6.3100 ca        1 UCK     -0.091000
     15 O15         4.1310   -0.3810    2.8320 o         1 UCK     -0.416100
     16 N16         2.4440    1.8720    0.8070 n         1 UCK     -0.463800
     17 C17         2.3270    3.2560    0.9820 c         1 UCK      0.702700
     18 C18         2.0390    4.1160   -0.1960 ca        1 UCK     -0.156600
     19 C19         0.7160    4.4160   -0.5540 ca        1 UCK      0.041400
     20 CL2        -0.5820    3.7400    0.3020 cl        1 UCK     -0.059400
     21 C21         0.4620    5.2820   -1.6230 ca        1 UCK     -0.115000
     22 C22         1.5270    5.8410   -2.3290 ca        1 UCK     -0.084000
     23 C23         2.8430    5.5420   -1.9740 ca        1 UCK     -0.121000
     24 C24         3.1010    4.6830   -0.9080 ca        1 UCK     -0.086000
     25 O25         2.5580    3.7280    2.1150 o         1 UCK     -0.633100
     26 C26         2.0600    1.2140   -0.4350 c3        1 UCK      0.036000
     27 H01        -0.0930   -0.3020   -1.2500 ho        1 UCK      0.423000
     28 H02         1.9470   -0.9800   -0.6670 h1        1 UCK      0.073700
     29 H031        2.3270   -1.2160    1.6300 hc        1 UCK      0.103200
     30 H032        0.6720   -0.5270    1.9350 hc        1 UCK      0.103200
     31 H261        2.9840    1.0830   -1.0620 h1        1 UCK      0.082700
     32 H262        1.3130    1.8340   -1.0050 h1        1 UCK      0.082700
     33 H04         1.5760    1.4510    2.7130 h1        1 UCK      0.112700
     34 H06         4.8030    2.3610    2.5340 hn        1 UCK      0.475300
     35 H071        5.8720    2.4810    4.5230 hx        1 UCK      0.112700
     36 H072        5.6950    0.6720    4.2550 hx        1 UCK      0.112700
     37 H09         4.5850   -0.6200    5.8910 ha        1 UCK      0.147000
     38 H14         3.9860    3.6780    5.8340 ha        1 UCK      0.147000
     39 H10         3.3540   -0.7620    8.0480 ha        1 UCK      0.171000
     40 H13         2.7380    3.5370    7.9780 ha        1 UCK      0.171000
     41 H24         4.1390    4.4590   -0.6210 ha        1 UCK      0.140000
     42 H21        -0.5770    5.5250   -1.9000 ha        1 UCK      0.169000
     43 H22         1.3240    6.5260   -3.1690 ha        1 UCK      0.160000
     44 H23         3.6800    5.9900   -2.5330 ha        1 UCK      0.157000
     45 H062        3.5100    2.5830    3.5530 hn        1 UCK      0.475300
@<TRIPOS>BOND
     1    1    2 1   
     2    1   27 1   
     3    2    3 1   
     4    2   26 1   
     5    2   28 1   
     6    3    4 1   
     7    3   29 1   
     8    3   30 1   
     9    4    5 1   
    10    4   16 1   
    11    4   33 1   
    12    5    6 1   
    13    5   15 2   
    14    6    7 1   
    15    6   34 1   
    16    6   45 1   
    17    7    8 1   
    18    7   35 1   
    19    7   36 1   
    20    8    9 ar  
    21    8   14 ar  
    22    9   10 ar  
    23    9   37 1   
    24   10   11 ar  
    25   10   39 1   
    26   11   12 1   
    27   11   13 ar  
    28   13   14 ar  
    29   13   40 1   
    30   14   38 1   
    31   16   17 1   
    32   16   26 1   
    33   17   18 1   
    34   17   25 2   
    35   18   19 ar  
    36   18   24 ar  
    37   19   20 1   
    38   19   21 ar  
    39   21   22 ar  
    40   21   42 1   
    41   22   23 ar  
    42   22   43 1   
    43   23   24 ar  
    44   23   44 1   
    45   24   41 1   
    46   26   31 1   
    47   26   32 1   
@<TRIPOS>SUBSTRUCTURE
     1 UCK         1 TEMP              0 ****  ****    0 ROOT
