@<TRIPOS>MOLECULE
UCK
   45    47     1     0     0
SMALL
bcc


@<TRIPOS>ATOM
      1 O01         0.1090   -0.1860   -0.3320 oh        1 UCK     -0.582800
      2 C02         1.5020   -0.1650   -0.1010 c3        1 UCK      0.136100
      3 C03         1.7060   -0.3510    1.4100 c3        1 UCK     -0.094400
      4 C04         2.2880    0.9800    1.9350 c3        1 UCK      0.038700
      5 C05         3.6130    0.7180    2.6720 c         1 UCK      0.534100
      6 N06         4.2510    1.9350    3.2870 n4        1 UCK     -0.677800
      7 C07         5.1270    1.6600    4.4730 c3        1 UCK      0.173100
      8 C08         4.3380    1.5410    5.7310 ca        1 UCK     -0.188300
      9 C09         4.1770    0.2940    6.3440 ca        1 UCK     -0.091000
     10 C10         3.4800    0.1910    7.5450 ca        1 UCK     -0.120000
     11 C11         2.9370    1.3390    8.1340 ca        1 UCK      0.052400
     12 CL1         2.0890    1.2180    9.5910 cl        1 UCK     -0.033400
     13 C13         3.0950    2.5910    7.5230 ca        1 UCK     -0.120000
     14 C14         3.7970    2.6880    6.3250 ca        1 UCK     -0.091000
     15 O15         4.1730   -0.3550    2.8260 o         1 UCK     -0.416100
     16 N16         2.4610    1.8820    0.8060 n         1 UCK     -0.463800
     17 C17         2.3200    3.2630    0.9890 c         1 UCK      0.702700
     18 C18         2.0260    4.1250   -0.1850 ca        1 UCK     -0.156600
     19 C19         0.7010    4.4060   -0.5500 ca        1 UCK      0.041400
     20 CL2        -0.5920    3.7040    0.2940 cl        1 UCK     -0.059400
     21 C21         0.4390    5.2750   -1.6150 ca        1 UCK     -0.115000
     22 C22         1.4990    5.8550   -2.3110 ca        1 UCK     -0.084000
     23 C23         2.8180    5.5750   -1.9500 ca        1 UCK     -0.121000
     24 C24         3.0830    4.7140   -0.8870 ca        1 UCK     -0.086000
     25 O25         2.5370    3.7310    2.1270 o         1 UCK     -0.633100
     26 C26         2.0950    1.2260   -0.4420 c3        1 UCK      0.036000
     27 H01        -0.0280   -0.3200   -1.2790 ho        1 UCK      0.423000
     28 H02         2.0190   -0.9680   -0.6890 h1        1 UCK      0.073700
     29 H031        2.3890   -1.2130    1.6090 hc        1 UCK      0.103200
     30 H032        0.7220   -0.5530    1.9080 hc        1 UCK      0.103200
     31 H261        1.3420    1.8370   -1.0130 h1        1 UCK      0.082700
     32 H262        3.0250    1.1140   -1.0650 h1        1 UCK      0.082700
     33 H04         1.5880    1.4340    2.7040 h1        1 UCK      0.112700
     34 H06         3.4970    2.5920    3.5640 hn        1 UCK      0.475300
     35 H071        5.7080    0.7130    4.2680 hx        1 UCK      0.112700
     36 H072        5.8520    2.5220    4.5520 hx        1 UCK      0.112700
     37 H09         4.6070   -0.6110    5.8850 ha        1 UCK      0.147000
     38 H14         3.9360    3.6760    5.8590 ha        1 UCK      0.147000
     39 H10         3.3630   -0.7920    8.0310 ha        1 UCK      0.171000
     40 H13         2.6740    3.4960    7.9910 ha        1 UCK      0.171000
     41 H24         4.1230    4.5040   -0.5950 ha        1 UCK      0.140000
     42 H21        -0.6010    5.5030   -1.8970 ha        1 UCK      0.169000
     43 H22         1.2900    6.5420   -3.1480 ha        1 UCK      0.160000
     44 H23         3.6510    6.0390   -2.5010 ha        1 UCK      0.157000
     45 H062        4.8010    2.3990    2.5540 hn        1 UCK      0.475300
@<TRIPOS>BOND
     1    1    2 1   
     2    1   27 1   
     3    2    3 1   
     4    2   26 1   
     5    2   28 1   
     6    3    4 1   
     7    3   29 1   
     8    3   30 1   
     9    4    5 1   
    10    4   16 1   
    11    4   33 1   
    12    5    6 1   
    13    5   15 2   
    14    6    7 1   
    15    6   34 1   
    16    6   45 1   
    17    7    8 1   
    18    7   35 1   
    19    7   36 1   
    20    8    9 ar  
    21    8   14 ar  
    22    9   10 ar  
    23    9   37 1   
    24   10   11 ar  
    25   10   39 1   
    26   11   12 1   
    27   11   13 ar  
    28   13   14 ar  
    29   13   40 1   
    30   14   38 1   
    31   16   17 1   
    32   16   26 1   
    33   17   18 1   
    34   17   25 2   
    35   18   19 ar  
    36   18   24 ar  
    37   19   20 1   
    38   19   21 ar  
    39   21   22 ar  
    40   21   42 1   
    41   22   23 ar  
    42   22   43 1   
    43   23   24 ar  
    44   23   44 1   
    45   24   41 1   
    46   26   31 1   
    47   26   32 1   
@<TRIPOS>SUBSTRUCTURE
     1 UCK         1 TEMP              0 ****  ****    0 ROOT
