@<TRIPOS>MOLECULE
UCL
   31    32     1     0     0
SMALL
bcc


@<TRIPOS>ATOM
      1 O3P        -3.9390    0.5690   -0.2860 o         1 UCL     -0.928833
      2 P          -4.1030   -0.4200    0.8520 p5        1 UCL      1.330900
      3 O1P        -3.5760   -1.7920    0.5450 o         1 UCL     -0.928833
      4 O2P        -5.3350   -0.2960    1.6910 o         1 UCL     -0.928833
      5 O5'        -2.8340    0.2050    1.8830 os        1 UCL     -0.551200
      6 C5'        -1.5910    0.1260    1.3250 c3        1 UCL      0.228400
      7 C4'        -1.1400    1.5120    0.8020 c3        1 UCL      0.049100
      8 O4'         0.2910    1.6730    1.0130 os        1 UCL     -0.436600
      9 C3'        -1.4240    1.7420   -0.6950 c3        1 UCL      0.156100
     10 O3'        -2.3880    2.7520   -0.8820 oh        1 UCL     -0.670800
     11 C2'        -0.0930    2.2240   -1.2920 c3        1 UCL     -0.132400
     12 C1'         0.9610    1.9530   -0.2000 c3        1 UCL      0.305500
     13 N1          1.8760    0.8290   -0.5290 n         1 UCL     -0.366000
     14 C2          3.1960    1.1270   -0.9320 c         1 UCL      0.800500
     15 O2          3.6140    2.3000   -1.0850 o         1 UCL     -0.677500
     16 N3          4.0750    0.0590   -1.1860 n         1 UCL     -0.595500
     17 C4          3.7170   -1.2940   -1.0330 c         1 UCL      0.727700
     18 O4          4.5880   -2.1510   -1.2800 o         1 UCL     -0.653500
     19 C5          2.3420   -1.5320   -0.5930 cc        1 UCL     -0.231800
     20 C6          1.4910   -0.4810   -0.3510 cd        1 UCL      0.104600
     21 CL          1.8240   -3.1240   -0.3860 cl        1 UCL     -0.050400
     22 H5'1       -1.5760   -0.6240    0.4810 h1        1 UCL     -0.003800
     23 H5'2       -0.8370   -0.1880    2.1070 h1        1 UCL     -0.003800
     24 H4'        -1.6190    2.3170    1.4220 h1        1 UCL      0.082700
     25 H3'        -1.7760    0.7910   -1.1840 h1        1 UCL      0.104700
     26 HO3'       -3.2550    2.3170   -0.7010 ho        1 UCL      0.502000
     27 H2'1        0.1280    1.7030   -2.2510 hc        1 UCL      0.055200
     28 H2'2       -0.1320    3.3240   -1.4900 hc        1 UCL      0.055200
     29 H1'         1.6260    2.8470   -0.0120 h2        1 UCL      0.083700
     30 HN3         4.9980    0.2910   -1.4750 hn        1 UCL      0.333500
     31 H6          0.4400   -0.6260    0.0060 h4        1 UCL      0.239000
@<TRIPOS>BOND
     1    1    2 1   
     2    2    3 1   
     3    2    4 1   
     4    2    5 1   
     5    5    6 1   
     6    6    7 1   
     7    6   22 1   
     8    6   23 1   
     9    7    8 1   
    10    7    9 1   
    11    7   24 1   
    12    8   12 1   
    13    9   10 1   
    14    9   11 1   
    15    9   25 1   
    16   10   26 1   
    17   11   12 1   
    18   11   27 1   
    19   11   28 1   
    20   12   13 1   
    21   12   29 1   
    22   13   14 1   
    23   13   20 1   
    24   14   15 2   
    25   14   16 1   
    26   16   17 1   
    27   16   30 1   
    28   17   18 2   
    29   17   19 1   
    30   19   20 2   
    31   19   21 1   
    32   20   31 1   
@<TRIPOS>SUBSTRUCTURE
     1 UCL         1 TEMP              0 ****  ****    0 ROOT
