@<TRIPOS>MOLECULE
UCM
   45    52     1     0     0
SMALL
bcc


@<TRIPOS>ATOM
      1 N18        -0.0390    0.1940   -0.0210 ns        1 UCM     -0.624500
      2 C29         1.3770    0.1720   -0.0310 c         1 UCM      0.733100
      3 O30         2.0560    0.1620   -1.0620 o         1 UCM     -0.587500
      4 C10         1.8160    0.1650    1.4010 ca        1 UCM     -0.123600
      5 C09         3.0750    0.1320    1.9580 cp        1 UCM      0.022000
      6 C15         4.4400    0.0480    1.4660 cp        1 UCM     -0.090000
      7 C16         5.3080    0.0060    2.6260 ca        1 UCM      0.019800
      8 C34         6.6940   -0.0930    2.4730 ca        1 UCM     -0.171000
      9 C33         7.2050   -0.1460    1.1770 ca        1 UCM     -0.087000
     10 C32         6.3710   -0.1010    0.0560 ca        1 UCM     -0.166000
     11 C31         4.9860   -0.0030    0.1910 ca        1 UCM     -0.055000
     12 N17         4.5330    0.1140    3.7980 na        1 UCM     -0.105300
     13 C08         3.1830    0.1460    3.4090 ca        1 UCM     -0.011200
     14 C07         2.0400    0.1630    4.2000 ca        1 UCM     -0.011200
     15 N06         1.9290    0.1510    5.6010 na        1 UCM     -0.105300
     16 C14         0.5580    0.0750    5.9170 ca        1 UCM      0.019800
     17 C13        -0.2220    0.1150    4.6960 cp        1 UCM     -0.090000
     18 C22        -1.6090    0.0930    4.7590 ca        1 UCM     -0.055000
     19 C21        -2.2230    0.0240    6.0090 ca        1 UCM     -0.166000
     20 C20        -1.4680   -0.0200    7.1850 ca        1 UCM     -0.087000
     21 C19        -0.0740    0.0060    7.1620 ca        1 UCM     -0.171000
     22 C12         0.7200    0.1660    3.5900 cp        1 UCM      0.022000
     23 C11         0.6410    0.1820    2.2150 ca        1 UCM     -0.123600
     24 C27        -0.5450    0.2000    1.3010 c         1 UCM      0.733100
     25 O28        -1.7490    0.2170    1.5740 o         1 UCM     -0.587500
     26 C05         3.0480   -0.0240    6.4970 c3        1 UCM      0.252800
     27 O01         4.0480   -0.8730    5.9000 os        1 UCM     -0.403600
     28 C02         4.9750   -0.0520    5.1630 c3        1 UCM      0.252800
     29 C03         5.0470    1.2810    5.9620 c3        1 UCM     -0.116400
     30 C04         3.7970    1.2990    6.8280 c3        1 UCM     -0.116400
     31 H18        -0.6010    0.2010   -0.8330 hn        1 UCM      0.346500
     32 H34         7.3650   -0.1280    3.3410 ha        1 UCM      0.135000
     33 H33         8.2940   -0.2270    1.0360 ha        1 UCM      0.134000
     34 H32         6.8140   -0.1430   -0.9500 ha        1 UCM      0.138000
     35 H31         4.3270    0.0330   -0.6940 ha        1 UCM      0.171000
     36 H22        -2.2040    0.1280    3.8310 ha        1 UCM      0.171000
     37 H21        -3.3210    0.0040    6.0710 ha        1 UCM      0.138000
     38 H20        -1.9840   -0.0780    8.1560 ha        1 UCM      0.134000
     39 H19         0.5020   -0.0280    8.0950 ha        1 UCM      0.135000
     40 H05         2.7010   -0.5680    7.4210 h2        1 UCM      0.102700
     41 H02         5.9510   -0.6160    5.1690 h2        1 UCM      0.102700
     42 H031        5.9720    1.2660    6.5890 hc        1 UCM      0.072200
     43 H032        5.0960    2.1730    5.2920 hc        1 UCM      0.072200
     44 H041        4.0590    1.2940    7.9140 hc        1 UCM      0.072200
     45 H042        3.1700    2.2010    6.6260 hc        1 UCM      0.072200
@<TRIPOS>BOND
     1    1    2 1   
     2    1   24 1   
     3    1   31 1   
     4    2    3 2   
     5    2    4 1   
     6    4    5 ar  
     7    4   23 ar  
     8    5    6 1   
     9    5   13 ar  
    10    6    7 ar  
    11    6   11 ar  
    12    7    8 ar  
    13    7   12 1   
    14    8    9 ar  
    15    8   32 1   
    16    9   10 ar  
    17    9   33 1   
    18   10   11 ar  
    19   10   34 1   
    20   11   35 1   
    21   12   13 1   
    22   12   28 1   
    23   13   14 ar  
    24   14   15 1   
    25   14   22 ar  
    26   15   16 1   
    27   15   26 1   
    28   16   17 ar  
    29   16   21 ar  
    30   17   18 ar  
    31   17   22 1   
    32   18   19 ar  
    33   18   36 1   
    34   19   20 ar  
    35   19   37 1   
    36   20   21 ar  
    37   20   38 1   
    38   21   39 1   
    39   22   23 ar  
    40   23   24 1   
    41   24   25 2   
    42   26   27 1   
    43   26   30 1   
    44   26   40 1   
    45   27   28 1   
    46   28   29 1   
    47   28   41 1   
    48   29   30 1   
    49   29   42 1   
    50   29   43 1   
    51   30   44 1   
    52   30   45 1   
@<TRIPOS>SUBSTRUCTURE
     1 UCM         1 TEMP              0 ****  ****    0 ROOT
