@<TRIPOS>MOLECULE
UCN
   62    69     1     0     0
SMALL
bcc


@<TRIPOS>ATOM
      1 O37         4.5630    0.9700    0.4740 oh        1 UCN     -0.590800
      2 C9          4.0000   -0.1750    1.1010 c3        1 UCN      0.319800
      3 N1          4.1250   -0.1510    2.5710 n         1 UCN     -0.570900
      4 C8          2.8410   -0.0570    3.1670 c         1 UCN      0.711100
      5 O5          2.6660    0.0790    4.3850 o         1 UCN     -0.609500
      6 C7          1.8220   -0.1920    2.0860 ca        1 UCN     -0.137600
      7 C6          0.4440   -0.2800    2.1450 cp        1 UCN      0.018000
      8 C5         -0.5500   -0.3060    3.2030 cp        1 UCN     -0.086000
      9 C20        -1.8440   -0.4420    2.5620 ca        1 UCN      0.017800
     10 C1         -3.0140   -0.5050    3.3280 ca        1 UCN     -0.179000
     11 C2         -2.8910   -0.4320    4.7130 ca        1 UCN     -0.091000
     12 C3         -1.6450   -0.2970    5.3340 ca        1 UCN     -0.173000
     13 C4         -0.4700   -0.2320    4.5880 ca        1 UCN     -0.055000
     14 N3         -1.6720   -0.4770    1.1670 na        1 UCN     -0.095300
     15 C19        -0.2980   -0.3960    0.9020 ca        1 UCN     -0.001200
     16 C18         0.3640   -0.4250   -0.3230 ca        1 UCN      0.019800
     17 N2         -0.1480   -0.5120   -1.6310 na        1 UCN     -0.087300
     18 C17         0.9570   -0.4720   -2.5140 ca        1 UCN      0.017800
     19 C12         2.1830   -0.3470   -1.7530 cp        1 UCN     -0.077000
     20 C13         3.4050   -0.2460   -2.4020 ca        1 UCN     -0.071000
     21 C14         3.4340   -0.2780   -3.7950 ca        1 UCN     -0.163000
     22 C15         2.2510   -0.3850   -4.5320 ca        1 UCN     -0.105000
     23 C16         1.0060   -0.4720   -3.9120 ca        1 UCN     -0.151000
     24 C11         1.8120   -0.3200   -0.3520 cp        1 UCN     -0.027000
     25 C10         2.4990   -0.2160    0.8390 ca        1 UCN     -0.059300
     26 C21        -1.5120   -0.8700   -1.9900 c3        1 UCN      0.297500
     27 O4         -2.2190   -1.4970   -0.9040 os        1 UCN     -0.413600
     28 C25        -2.7030   -0.7190    0.1890 c3        1 UCN      0.280800
     29 C24        -3.4590    0.5360   -0.2730 c3        1 UCN     -0.113400
     30 C23        -2.7060    1.3350   -1.3430 c3        1 UCN      0.163500
     31 N4         -1.5410    2.0220   -0.8140 n3        1 UCN     -0.819200
     32 C28        -1.8260    3.3070   -0.2340 c3        1 UCN      0.156100
     33 C22        -2.3750    0.3440   -2.4800 c3        1 UCN      0.098100
     34 O6         -1.6790    0.9800   -3.5450 os        1 UCN     -0.408600
     35 C27        -2.5290    1.6880   -4.4350 c3        1 UCN      0.110700
     36 C26        -1.5800   -1.9670   -3.0850 c3        1 UCN     -0.105100
     37 H37         5.5210    0.8520    0.4710 ho        1 UCN      0.404000
     38 H9          4.5010   -1.1130    0.7190 h2        1 UCN      0.070700
     39 HN1         4.8680    0.3740    2.9650 hn        1 UCN      0.305500
     40 H1         -3.9990   -0.6080    2.8540 ha        1 UCN      0.129000
     41 H2         -3.8000   -0.4830    5.3320 ha        1 UCN      0.129000
     42 H3         -1.5920   -0.2410    6.4310 ha        1 UCN      0.134000
     43 H4          0.5130   -0.1240    5.0770 ha        1 UCN      0.173000
     44 H13         4.3270   -0.1210   -1.8130 ha        1 UCN      0.139000
     45 H14         4.3970   -0.2060   -4.3220 ha        1 UCN      0.131000
     46 H15         2.3000   -0.3910   -5.6310 ha        1 UCN      0.129000
     47 H16         0.0860   -0.5020   -4.5110 ha        1 UCN      0.144000
     48 H25        -3.4540   -1.4340    0.6670 h2        1 UCN      0.085700
     49 H241       -3.6890    1.1860    0.6100 hc        1 UCN      0.065700
     50 H242       -4.4320    0.1930   -0.7150 hc        1 UCN      0.065700
     51 H23        -3.4470    2.0830   -1.7720 h1        1 UCN      0.026700
     52 HN4        -0.8300    2.0950   -1.5190 hn        1 UCN      0.388800
     53 H281       -0.8660    3.7350    0.1580 h1        1 UCN      0.031033
     54 H282       -2.2770    4.0420   -0.9580 h1        1 UCN      0.031033
     55 H283       -2.5390    3.1800    0.6220 h1        1 UCN      0.031033
     56 H22        -3.3470   -0.0890   -2.8540 h1        1 UCN      0.057700
     57 H271       -1.8290    2.1050   -5.2030 h1        1 UCN      0.039700
     58 H272       -3.2670    0.9950   -4.9100 h1        1 UCN      0.039700
     59 H273       -3.0640    2.5130   -3.9050 h1        1 UCN      0.039700
     60 H261       -0.6890   -2.6360   -3.0470 hc        1 UCN      0.063033
     61 H262       -2.4960   -2.5840   -2.9160 hc        1 UCN      0.063033
     62 H263       -1.6440   -1.4850   -4.0890 hc        1 UCN      0.063033
@<TRIPOS>BOND
     1    1    2 1   
     2    1   37 1   
     3    2    3 1   
     4    2   25 1   
     5    2   38 1   
     6    3    4 1   
     7    3   39 1   
     8    4    5 2   
     9    4    6 1   
    10    6    7 ar  
    11    6   25 ar  
    12    7    8 1   
    13    7   15 ar  
    14    8    9 ar  
    15    8   13 ar  
    16    9   10 ar  
    17    9   14 1   
    18   10   11 ar  
    19   10   40 1   
    20   11   12 ar  
    21   11   41 1   
    22   12   13 ar  
    23   12   42 1   
    24   13   43 1   
    25   14   15 1   
    26   14   28 1   
    27   15   16 ar  
    28   16   17 1   
    29   16   24 ar  
    30   17   18 1   
    31   17   26 1   
    32   18   19 ar  
    33   18   23 ar  
    34   19   20 ar  
    35   19   24 1   
    36   20   21 ar  
    37   20   44 1   
    38   21   22 ar  
    39   21   45 1   
    40   22   23 ar  
    41   22   46 1   
    42   23   47 1   
    43   24   25 ar  
    44   26   27 1   
    45   26   33 1   
    46   26   36 1   
    47   27   28 1   
    48   28   29 1   
    49   28   48 1   
    50   29   30 1   
    51   29   49 1   
    52   29   50 1   
    53   30   31 1   
    54   30   33 1   
    55   30   51 1   
    56   31   32 1   
    57   31   52 1   
    58   32   53 1   
    59   32   54 1   
    60   32   55 1   
    61   33   34 1   
    62   33   56 1   
    63   34   35 1   
    64   35   57 1   
    65   35   58 1   
    66   35   59 1   
    67   36   60 1   
    68   36   61 1   
    69   36   62 1   
@<TRIPOS>SUBSTRUCTURE
     1 UCN         1 TEMP              0 ****  ****    0 ROOT
