@<TRIPOS>MOLECULE
UCN
   63    70     1     0     0
SMALL
bcc


@<TRIPOS>ATOM
      1 O37         0.6190    0.7050   -0.0940 oh        1 UCN     -0.595800
      2 C9          2.0110    0.4530   -0.2180 c3        1 UCN      0.330800
      3 N1          2.7510    0.5700    1.0490 n         1 UCN     -0.576900
      4 C8          3.2690   -0.6770    1.4500 c         1 UCN      0.714100
      5 O5          3.8580   -0.8810    2.5170 o         1 UCN     -0.588500
      6 C7          3.0070   -1.6540    0.3440 ca        1 UCN     -0.120600
      7 C6          3.3870   -2.9660    0.1910 cp        1 UCN      0.048000
      8 C5          4.1900   -3.9210    0.9460 cp        1 UCN     -0.073000
      9 C20         4.1970   -5.1550    0.1960 ca        1 UCN     -0.043200
     10 C1          4.9080   -6.2600    0.6520 ca        1 UCN     -0.153000
     11 C2          5.6040   -6.1370    1.8610 ca        1 UCN     -0.088000
     12 C3          5.5890   -4.9510    2.5930 ca        1 UCN     -0.136000
     13 C4          4.8810   -3.8300    2.1430 ca        1 UCN     -0.051000
     14 N3          3.3390   -5.0490   -0.9520 na        1 UCN     -0.109300
     15 C19         2.9430   -3.6800   -0.9940 ca        1 UCN     -0.075200
     16 C18         2.1900   -3.0430   -1.9600 ca        1 UCN     -0.057200
     17 N2          1.6200   -3.6040   -3.1460 na        1 UCN     -0.101300
     18 C17         0.9110   -2.5100   -3.7620 ca        1 UCN     -0.041200
     19 C12         0.9690   -1.3320   -2.9280 cp        1 UCN     -0.064000
     20 C13         0.2660   -0.1900   -3.2720 ca        1 UCN     -0.067000
     21 C14        -0.4900   -0.1950   -4.4490 ca        1 UCN     -0.130000
     22 C15        -0.5560   -1.3340   -5.2500 ca        1 UCN     -0.101000
     23 C16         0.1300   -2.5070   -4.9150 ca        1 UCN     -0.136000
     24 C11         1.7940   -1.6590   -1.7740 cp        1 UCN      0.001000
     25 C10         2.2120   -0.9990   -0.6470 ca        1 UCN     -0.045300
     26 C21         2.4560   -4.5000   -3.9650 c3        1 UCN      0.229500
     27 O4          3.7060   -4.8490   -3.3380 os        1 UCN     -0.394600
     28 C25         3.7260   -5.7060   -2.1990 c3        1 UCN      0.215800
     29 C24         2.9020   -6.9880   -2.4330 c3        1 UCN     -0.131400
     30 C23         1.5220   -6.7130   -3.0150 c3        1 UCN      0.116500
     31 N4          0.5620   -6.0930   -2.0380 n4        1 UCN     -0.747000
     32 C28        -0.1100   -7.0960   -1.1860 c3        1 UCN      0.082100
     33 C22         1.7040   -5.8390   -4.2820 c3        1 UCN      0.101100
     34 O6          0.4200   -5.5910   -4.8290 os        1 UCN     -0.431600
     35 C27         0.2340   -6.1030   -6.1470 c3        1 UCN      0.106700
     36 C26         2.9320   -3.8890   -5.3010 c3        1 UCN     -0.106100
     37 H37         0.5050    1.6540    0.0530 ho        1 UCN      0.419000
     38 H9          2.4700    1.1650   -0.9670 h2        1 UCN      0.082700
     39 HN1         2.4640    1.2320    1.7270 hn        1 UCN      0.328500
     40 H1          4.9330   -7.2020    0.0890 ha        1 UCN      0.132000
     41 H2          6.1770   -7.0010    2.2350 ha        1 UCN      0.148000
     42 H3          6.1460   -4.8890    3.5410 ha        1 UCN      0.155000
     43 H4          4.8710   -2.8910    2.7250 ha        1 UCN      0.187000
     44 H13         0.2900    0.6930   -2.6140 ha        1 UCN      0.156000
     45 H14        -1.0470    0.7100   -4.7390 ha        1 UCN      0.151000
     46 H15        -1.1670   -1.3190   -6.1670 ha        1 UCN      0.146000
     47 H16         0.0350   -3.4040   -5.5450 ha        1 UCN      0.144000
     48 H25         4.8280   -5.9980   -2.1490 h2        1 UCN      0.118700
     49 H241        3.4610   -7.6130   -3.1820 hc        1 UCN      0.094700
     50 H242        2.8330   -7.5820   -1.4840 hc        1 UCN      0.094700
     51 H23         1.0520   -7.6920   -3.3390 hx        1 UCN      0.103700
     52 HN4         1.0590   -5.4200   -1.4350 hn        1 UCN      0.478800
     53 H281       -0.7790   -6.5630   -0.4570 hx        1 UCN      0.102367
     54 H282        0.6590   -7.6880   -0.6220 hx        1 UCN      0.102367
     55 H283       -0.7250   -7.7870   -1.8220 hx        1 UCN      0.102367
     56 H22         2.3600   -6.4190   -4.9910 h1        1 UCN      0.100700
     57 H271        0.3390   -7.2150   -6.1510 h1        1 UCN      0.057700
     58 H272        0.9630   -5.6360   -6.8530 h1        1 UCN      0.057700
     59 H273       -0.8140   -5.7990   -6.4020 h1        1 UCN      0.057700
     60 H261        3.3510   -2.8680   -5.1340 hc        1 UCN      0.073367
     61 H262        2.0750   -3.8310   -6.0120 hc        1 UCN      0.073367
     62 H263        3.7350   -4.5350   -5.7310 hc        1 UCN      0.073367
     63 H42        -0.1420   -5.5700   -2.5830 hn        1 UCN      0.478800
@<TRIPOS>BOND
     1    1    2 1   
     2    1   37 1   
     3    2    3 1   
     4    2   25 1   
     5    2   38 1   
     6    3    4 1   
     7    3   39 1   
     8    4    5 2   
     9    4    6 1   
    10    6    7 ar  
    11    6   25 ar  
    12    7    8 1   
    13    7   15 ar  
    14    8    9 ar  
    15    8   13 ar  
    16    9   10 ar  
    17    9   14 1   
    18   10   11 ar  
    19   10   40 1   
    20   11   12 ar  
    21   11   41 1   
    22   12   13 ar  
    23   12   42 1   
    24   13   43 1   
    25   14   15 1   
    26   14   28 1   
    27   15   16 ar  
    28   16   17 1   
    29   16   24 ar  
    30   17   18 1   
    31   17   26 1   
    32   18   19 ar  
    33   18   23 ar  
    34   19   20 ar  
    35   19   24 1   
    36   20   21 ar  
    37   20   44 1   
    38   21   22 ar  
    39   21   45 1   
    40   22   23 ar  
    41   22   46 1   
    42   23   47 1   
    43   24   25 ar  
    44   26   27 1   
    45   26   33 1   
    46   26   36 1   
    47   27   28 1   
    48   28   29 1   
    49   28   48 1   
    50   29   30 1   
    51   29   49 1   
    52   29   50 1   
    53   30   31 1   
    54   30   33 1   
    55   30   51 1   
    56   31   32 1   
    57   31   52 1   
    58   31   63 1   
    59   32   53 1   
    60   32   54 1   
    61   32   55 1   
    62   33   34 1   
    63   33   56 1   
    64   34   35 1   
    65   35   57 1   
    66   35   58 1   
    67   35   59 1   
    68   36   60 1   
    69   36   61 1   
    70   36   62 1   
@<TRIPOS>SUBSTRUCTURE
     1 UCN         1 TEMP              0 ****  ****    0 ROOT
