@<TRIPOS>MOLECULE
UCN
   63    70     1     0     0
SMALL
bcc


@<TRIPOS>ATOM
      1 O37         0.6520    0.7210   -0.1050 oh        1 UCN     -0.595800
      2 C9          2.0420    0.4590   -0.2330 c3        1 UCN      0.330800
      3 N1          2.7860    0.5760    1.0310 n         1 UCN     -0.576900
      4 C8          3.2970   -0.6730    1.4350 c         1 UCN      0.714100
      5 O5          3.8880   -0.8760    2.5020 o         1 UCN     -0.588500
      6 C7          3.0250   -1.6530    0.3340 ca        1 UCN     -0.120600
      7 C6          3.3960   -2.9670    0.1850 cp        1 UCN      0.048000
      8 C5          4.1940   -3.9240    0.9410 cp        1 UCN     -0.073000
      9 C20         4.1910   -5.1620    0.1960 ca        1 UCN     -0.043200
     10 C1          4.8960   -6.2690    0.6550 ca        1 UCN     -0.153000
     11 C2          5.5970   -6.1460    1.8610 ca        1 UCN     -0.088000
     12 C3          5.5930   -4.9580    2.5880 ca        1 UCN     -0.136000
     13 C4          4.8900   -3.8340    2.1360 ca        1 UCN     -0.051000
     14 N3          3.3300   -5.0540   -0.9500 na        1 UCN     -0.109300
     15 C19         2.9430   -3.6830   -0.9950 ca        1 UCN     -0.075200
     16 C18         2.1920   -3.0450   -1.9610 ca        1 UCN     -0.057200
     17 N2          1.6140   -3.6070   -3.1440 na        1 UCN     -0.101300
     18 C17         0.9100   -2.5100   -3.7610 ca        1 UCN     -0.041200
     19 C12         0.9790   -1.3300   -2.9330 cp        1 UCN     -0.064000
     20 C13         0.2820   -0.1850   -3.2790 ca        1 UCN     -0.067000
     21 C14        -0.4780   -0.1890   -4.4540 ca        1 UCN     -0.130000
     22 C15        -0.5540   -1.3310   -5.2490 ca        1 UCN     -0.101000
     23 C16         0.1260   -2.5070   -4.9120 ca        1 UCN     -0.136000
     24 C11         1.8050   -1.6580   -1.7800 cp        1 UCN      0.001000
     25 C10         2.2310   -0.9960   -0.6570 ca        1 UCN     -0.045300
     26 C21         2.4410   -4.5110   -3.9620 c3        1 UCN      0.229500
     27 O4          3.6910   -4.8670   -3.3370 os        1 UCN     -0.394600
     28 C25         3.7090   -5.7190   -2.1950 c3        1 UCN      0.215800
     29 C24         2.8750   -6.9960   -2.4210 c3        1 UCN     -0.131400
     30 C23         1.4950   -6.7150   -3.0000 c3        1 UCN      0.116500
     31 N4          0.5430   -6.0840   -2.0220 n4        1 UCN     -0.747000
     32 C28        -0.1330   -7.0790   -1.1650 c3        1 UCN      0.082100
     33 C22         1.6790   -5.8470   -4.2710 c3        1 UCN      0.101100
     34 O6          0.3960   -5.5930   -4.8150 os        1 UCN     -0.431600
     35 C27         0.2010   -6.1080   -6.1300 c3        1 UCN      0.106700
     36 C26         2.9170   -3.9090   -5.3010 c3        1 UCN     -0.106100
     37 H37         0.5440    1.6710    0.0380 ho        1 UCN      0.419000
     38 H9          2.5030    1.1650   -0.9860 h2        1 UCN      0.082700
     39 HN1         2.5060    1.2430    1.7070 hn        1 UCN      0.328500
     40 H1          4.9130   -7.2140    0.0950 ha        1 UCN      0.132000
     41 H2          6.1650   -7.0130    2.2360 ha        1 UCN      0.148000
     42 H3          6.1540   -4.8950    3.5340 ha        1 UCN      0.155000
     43 H4          4.8880   -2.8930    2.7150 ha        1 UCN      0.187000
     44 H13         0.3140    0.7010   -2.6240 ha        1 UCN      0.156000
     45 H14        -1.0290    0.7180   -4.7450 ha        1 UCN      0.151000
     46 H15        -1.1680   -1.3150   -6.1640 ha        1 UCN      0.146000
     47 H16         0.0230   -3.4060   -5.5380 ha        1 UCN      0.144000
     48 H25         4.8090   -6.0180   -2.1470 h2        1 UCN      0.118700
     49 H241        3.4270   -7.6280   -3.1700 hc        1 UCN      0.094700
     50 H242        2.8060   -7.5860   -1.4700 hc        1 UCN      0.094700
     51 H23         1.0180   -7.6920   -3.3180 hx        1 UCN      0.103700
     52 HN4         1.0460   -5.4120   -1.4240 hn        1 UCN      0.478800
     53 H281       -0.7970   -6.5390   -0.4350 hx        1 UCN      0.102367
     54 H282        0.6330   -7.6740   -0.6000 hx        1 UCN      0.102367
     55 H283       -0.7550   -7.7690   -1.7960 hx        1 UCN      0.102367
     56 H22         2.3290   -6.4340   -4.9800 h1        1 UCN      0.100700
     57 H271        0.9310   -5.6480   -6.8410 h1        1 UCN      0.057700
     58 H272       -0.8450   -5.7990   -6.3830 h1        1 UCN      0.057700
     59 H273        0.2990   -7.2200   -6.1310 h1        1 UCN      0.057700
     60 H261        3.7140   -4.5620   -5.7320 hc        1 UCN      0.073367
     61 H262        2.0580   -3.8480   -6.0100 hc        1 UCN      0.073367
     62 H263        3.3430   -2.8900   -5.1400 hc        1 UCN      0.073367
     63 H42        -0.1600   -5.5590   -2.5670 hn        1 UCN      0.478800
@<TRIPOS>BOND
     1    1    2 1   
     2    1   37 1   
     3    2    3 1   
     4    2   25 1   
     5    2   38 1   
     6    3    4 1   
     7    3   39 1   
     8    4    5 2   
     9    4    6 1   
    10    6    7 ar  
    11    6   25 ar  
    12    7    8 1   
    13    7   15 ar  
    14    8    9 ar  
    15    8   13 ar  
    16    9   10 ar  
    17    9   14 1   
    18   10   11 ar  
    19   10   40 1   
    20   11   12 ar  
    21   11   41 1   
    22   12   13 ar  
    23   12   42 1   
    24   13   43 1   
    25   14   15 1   
    26   14   28 1   
    27   15   16 ar  
    28   16   17 1   
    29   16   24 ar  
    30   17   18 1   
    31   17   26 1   
    32   18   19 ar  
    33   18   23 ar  
    34   19   20 ar  
    35   19   24 1   
    36   20   21 ar  
    37   20   44 1   
    38   21   22 ar  
    39   21   45 1   
    40   22   23 ar  
    41   22   46 1   
    42   23   47 1   
    43   24   25 ar  
    44   26   27 1   
    45   26   33 1   
    46   26   36 1   
    47   27   28 1   
    48   28   29 1   
    49   28   48 1   
    50   29   30 1   
    51   29   49 1   
    52   29   50 1   
    53   30   31 1   
    54   30   33 1   
    55   30   51 1   
    56   31   32 1   
    57   31   52 1   
    58   31   63 1   
    59   32   53 1   
    60   32   54 1   
    61   32   55 1   
    62   33   34 1   
    63   33   56 1   
    64   34   35 1   
    65   35   57 1   
    66   35   58 1   
    67   35   59 1   
    68   36   60 1   
    69   36   61 1   
    70   36   62 1   
@<TRIPOS>SUBSTRUCTURE
     1 UCN         1 TEMP              0 ****  ****    0 ROOT
