@<TRIPOS>MOLECULE
UCN
   63    70     1     0     0
SMALL
bcc


@<TRIPOS>ATOM
      1 O37         0.6260    0.7100   -0.0970 oh        1 UCN     -0.595800
      2 C9          2.0180    0.4600   -0.2290 c3        1 UCN      0.330800
      3 N1          2.7640    0.5810    1.0340 ns        1 UCN     -0.576900
      4 C8          3.2870   -0.6640    1.4350 c         1 UCN      0.714100
      5 O5          3.8820   -0.8640    2.4990 o         1 UCN     -0.588500
      6 C7          3.0210   -1.6440    0.3330 ca        1 UCN     -0.120600
      7 C6          3.4020   -2.9550    0.1810 cp        1 UCN      0.048000
      8 C5          4.2100   -3.9070    0.9330 cp        1 UCN     -0.073000
      9 C20         4.2150   -5.1430    0.1860 ca        1 UCN     -0.043200
     10 C1          4.9310   -6.2450    0.6410 ca        1 UCN     -0.153000
     11 C2          5.6340   -6.1190    1.8460 ca        1 UCN     -0.088000
     12 C3          5.6210   -4.9310    2.5750 ca        1 UCN     -0.136000
     13 C4          4.9080   -3.8130    2.1260 ca        1 UCN     -0.051000
     14 N3          3.3510   -5.0410   -0.9570 na        1 UCN     -0.109300
     15 C19         2.9520   -3.6730   -1.0000 ca        1 UCN     -0.075200
     16 C18         2.1930   -3.0400   -1.9630 ca        1 UCN     -0.057200
     17 N2          1.6170   -3.6050   -3.1450 na        1 UCN     -0.101300
     18 C17         0.9020   -2.5130   -3.7590 ca        1 UCN     -0.041200
     19 C12         0.9640   -1.3330   -2.9290 cp        1 UCN     -0.064000
     20 C13         0.2560   -0.1940   -3.2720 ca        1 UCN     -0.067000
     21 C14        -0.5060   -0.2030   -4.4440 ca        1 UCN     -0.130000
     22 C15        -0.5750   -1.3430   -5.2420 ca        1 UCN     -0.101000
     23 C16         0.1160   -2.5140   -4.9080 ca        1 UCN     -0.136000
     24 C11         1.7960   -1.6560   -1.7790 cp        1 UCN      0.001000
     25 C10         2.2190   -0.9920   -0.6550 ca        1 UCN     -0.045300
     26 C21         2.4500   -4.5010   -3.9670 c3        1 UCN      0.229500
     27 O4          3.7040   -4.8470   -3.3450 os        1 UCN     -0.394600
     28 C25         3.7320   -5.7010   -2.2040 c3        1 UCN      0.215800
     29 C24         2.9090   -6.9840   -2.4300 c3        1 UCN     -0.131400
     30 C23         1.5250   -6.7130   -3.0060 c3        1 UCN      0.116500
     31 N4          0.5700   -6.0930   -2.0250 ny        1 UCN     -0.747000
     32 C28        -0.0960   -7.0940   -1.1670 c3        1 UCN      0.082100
     33 C22         1.6980   -5.8430   -4.2760 c3        1 UCN      0.101100
     34 O6          0.4110   -5.5980   -4.8160 os        1 UCN     -0.431600
     35 C27         0.2180   -6.1120   -6.1320 c3        1 UCN      0.106700
     36 C26         2.9170   -3.8930   -5.3060 c3        1 UCN     -0.106100
     37 H37         0.5110    1.6590    0.0480 ho        1 UCN      0.419000
     38 H9          2.4720    1.1710   -0.9820 h2        1 UCN      0.082700
     39 HN1         2.4800    1.2450    1.7120 hn        1 UCN      0.328500
     40 H1          4.9550   -7.1890    0.0800 ha        1 UCN      0.132000
     41 H2          6.2100   -6.9810    2.2190 ha        1 UCN      0.148000
     42 H3          6.1840   -4.8660    3.5200 ha        1 UCN      0.155000
     43 H4          4.9000   -2.8720    2.7070 ha        1 UCN      0.187000
     44 H13         0.2830    0.6910   -2.6150 ha        1 UCN      0.156000
     45 H14        -1.0660    0.7010   -4.7340 ha        1 UCN      0.151000
     46 H15        -1.1900   -1.3320   -6.1550 ha        1 UCN      0.146000
     47 H16         0.0190   -3.4130   -5.5350 ha        1 UCN      0.144000
     48 H25         4.8350   -5.9910   -2.1600 h2        1 UCN      0.118700
     49 H241        2.8460   -7.5760   -1.4800 hc        1 UCN      0.094700
     50 H242        3.4640   -7.6100   -3.1820 hc        1 UCN      0.094700
     51 H23         1.0550   -7.6940   -3.3250 hx        1 UCN      0.103700
     52 HN4         1.0690   -5.4180   -1.4270 hn        1 UCN      0.478800
     53 H281       -0.7130   -7.7880   -1.7980 hx        1 UCN      0.102367
     54 H282       -0.7620   -6.5610   -0.4360 hx        1 UCN      0.102367
     55 H283        0.6770   -7.6840   -0.6050 hx        1 UCN      0.102367
     56 H22         2.3520   -6.4230   -4.9870 h1        1 UCN      0.100700
     57 H271        0.3260   -7.2240   -6.1360 h1        1 UCN      0.057700
     58 H272        0.9430   -5.6450   -6.8430 h1        1 UCN      0.057700
     59 H273       -0.8310   -5.8110   -6.3820 h1        1 UCN      0.057700
     60 H261        2.0570   -3.8380   -6.0130 hc        1 UCN      0.073367
     61 H262        3.7190   -4.5380   -5.7390 hc        1 UCN      0.073367
     62 H263        3.3360   -2.8710   -5.1440 hc        1 UCN      0.073367
     63 H42        -0.1390   -5.5720   -2.5670 hn        1 UCN      0.478800
@<TRIPOS>BOND
     1    1    2 1   
     2    1   37 1   
     3    2    3 1   
     4    2   25 1   
     5    2   38 1   
     6    3    4 1   
     7    3   39 1   
     8    4    5 2   
     9    4    6 1   
    10    6    7 ar  
    11    6   25 ar  
    12    7    8 1   
    13    7   15 ar  
    14    8    9 ar  
    15    8   13 ar  
    16    9   10 ar  
    17    9   14 1   
    18   10   11 ar  
    19   10   40 1   
    20   11   12 ar  
    21   11   41 1   
    22   12   13 ar  
    23   12   42 1   
    24   13   43 1   
    25   14   15 1   
    26   14   28 1   
    27   15   16 ar  
    28   16   17 1   
    29   16   24 ar  
    30   17   18 1   
    31   17   26 1   
    32   18   19 ar  
    33   18   23 ar  
    34   19   20 ar  
    35   19   24 1   
    36   20   21 ar  
    37   20   44 1   
    38   21   22 ar  
    39   21   45 1   
    40   22   23 ar  
    41   22   46 1   
    42   23   47 1   
    43   24   25 ar  
    44   26   27 1   
    45   26   33 1   
    46   26   36 1   
    47   27   28 1   
    48   28   29 1   
    49   28   48 1   
    50   29   30 1   
    51   29   49 1   
    52   29   50 1   
    53   30   31 1   
    54   30   33 1   
    55   30   51 1   
    56   31   32 1   
    57   31   52 1   
    58   31   63 1   
    59   32   53 1   
    60   32   54 1   
    61   32   55 1   
    62   33   34 1   
    63   33   56 1   
    64   34   35 1   
    65   35   57 1   
    66   35   58 1   
    67   35   59 1   
    68   36   60 1   
    69   36   61 1   
    70   36   62 1   
@<TRIPOS>SUBSTRUCTURE
     1 UCN         1 TEMP              0 ****  ****    0 ROOT
