@<TRIPOS>MOLECULE
UD5
   33    34     1     0     0
SMALL
bcc


@<TRIPOS>ATOM
      1 P          -4.2530   -1.0730   -0.2330 p3        1 UD5      0.313300
      2 OP1        -4.7920   -0.7570    1.2580 oh        1 UD5     -0.515600
      3 OP2        -4.1370   -2.6830   -0.1220 oh        1 UD5     -0.515600
      4 O5'        -2.6760   -0.8220    0.1450 os        1 UD5     -0.372900
      5 C5'        -2.0140    0.0680   -0.7180 c3        1 UD5      0.144400
      6 C4'        -1.5320    1.2980    0.0590 c3        1 UD5      0.116100
      7 O4'        -0.5130    0.9250    0.9980 os        1 UD5     -0.408600
      8 C3'        -0.9370    2.3550   -0.8920 c3        1 UD5      0.085100
      9 O3'        -1.6750    3.5480   -0.7070 oh        1 UD5     -0.593800
     10 C2'         0.5300    2.5500   -0.4470 c3        1 UD5      0.093100
     11 O2'         0.7480    3.8220    0.1130 oh        1 UD5     -0.583800
     12 C1'         0.7670    1.4460    0.6280 c3        1 UD5      0.272500
     13 N1          1.6830    0.3760    0.2360 n         1 UD5     -0.366000
     14 C2          1.6430   -0.2040   -1.0590 c         1 UD5      0.813500
     15 O2          0.9320    0.2710   -1.9740 o         1 UD5     -0.660500
     16 N3          2.4530   -1.3170   -1.3290 n         1 UD5     -0.580500
     17 C4          3.2540   -1.9490   -0.3670 c         1 UD5      0.702700
     18 O4          3.9370   -2.9330   -0.6830 o         1 UD5     -0.571500
     19 C5          3.1950   -1.3500    0.9900 cc        1 UD5     -0.021700
     20 C6          2.4130   -0.2540    1.2380 cd        1 UD5      0.002600
     21 F           3.9360   -1.9270    1.9590 f         1 UD5     -0.129500
     22 H1P        -4.1630   -1.0600    1.9160 ho        1 UD5      0.428000
     23 H2P        -3.4450   -2.9300    0.4940 ho        1 UD5      0.428000
     24 H5'        -2.6900    0.4010   -1.5510 h1        1 UD5      0.060700
     25 H5''       -1.1180   -0.4700   -1.1440 h1        1 UD5      0.060700
     26 H4'        -2.3590    1.7330    0.6860 h1        1 UD5      0.102700
     27 H3'        -0.9770    2.0200   -1.9620 h1        1 UD5      0.086700
     28 H2         -1.2900    4.2100   -1.2960 ho        1 UD5      0.422000
     29 H2'         1.2460    2.4840   -1.3100 h1        1 UD5      0.123700
     30 H1          0.0240    4.0060    0.7310 ho        1 UD5      0.421000
     31 H1'         1.1850    1.9090    1.5740 h2        1 UD5      0.102700
     32 HN3         2.4290   -1.6780   -2.2600 hn        1 UD5      0.360500
     33 H6          2.3450    0.1870    2.2510 h4        1 UD5      0.184000
@<TRIPOS>BOND
     1    1    2 1   
     2    1    3 1   
     3    1    4 1   
     4    2   22 1   
     5    3   23 1   
     6    4    5 1   
     7    5    6 1   
     8    5   24 1   
     9    5   25 1   
    10    6    7 1   
    11    6    8 1   
    12    6   26 1   
    13    7   12 1   
    14    8    9 1   
    15    8   10 1   
    16    8   27 1   
    17    9   28 1   
    18   10   11 1   
    19   10   12 1   
    20   10   29 1   
    21   11   30 1   
    22   12   13 1   
    23   12   31 1   
    24   13   14 1   
    25   13   20 1   
    26   14   15 2   
    27   14   16 1   
    28   16   17 1   
    29   16   32 1   
    30   17   18 2   
    31   17   19 1   
    32   19   20 2   
    33   19   21 1   
    34   20   33 1   
@<TRIPOS>SUBSTRUCTURE
     1 UD5         1 TEMP              0 ****  ****    0 ROOT
