@<TRIPOS>MOLECULE
UD5
   33    34     1     0     0
SMALL
bcc


@<TRIPOS>ATOM
      1 P           2.2110    1.4820    2.7030 p3        1 UD5      0.314300
      2 OP1         3.7330    1.7570    2.3790 oh        1 UD5     -0.517600
      3 OP2         2.0240    1.3290    4.2640 oh        1 UD5     -0.517600
      4 O5'         1.7510    0.1500    1.9850 os        1 UD5     -0.375900
      5 C5'         0.6530    0.2060    1.1070 c3        1 UD5      0.139400
      6 C4'        -0.2820   -0.9530    1.3940 c3        1 UD5      0.105100
      7 O4'        -1.7230   -0.6710    0.7480 os        1 UD5     -0.407600
      8 C3'         0.1630   -2.0300    0.8360 c3        1 UD5      0.134100
      9 O3'        -0.2260   -3.2250    1.6390 oh        1 UD5     -0.589800
     10 C2'        -0.5190   -2.0730   -0.5530 c3        1 UD5      0.090100
     11 O2'        -1.0570   -3.2880   -0.7720 oh        1 UD5     -0.598800
     12 C1'        -1.6270   -0.9990   -0.5030 c3        1 UD5      0.281500
     13 N1         -1.2490    0.1480   -1.2940 n         1 UD5     -0.389000
     14 C2         -0.6570   -0.0420   -2.6170 c         1 UD5      0.813500
     15 O2         -0.3450   -1.1560   -2.9880 o         1 UD5     -0.667500
     16 N3         -0.4840    1.1010   -3.5130 n         1 UD5     -0.577500
     17 C4         -0.8110    2.4090   -3.0670 c         1 UD5      0.702700
     18 O4         -0.7280    3.3500   -3.8310 o         1 UD5     -0.571500
     19 C5         -1.3290    2.6110   -1.7060 cc        1 UD5     -0.033700
     20 C6         -1.5230    1.4560   -0.8200 cd        1 UD5      0.008600
     21 F          -1.7240    3.8290   -1.3140 f         1 UD5     -0.129500
     22 H1P         3.9590    2.5610    2.6790 ho        1 UD5      0.437000
     23 H2P         2.2750    2.0800    4.6670 ho        1 UD5      0.437000
     24 H5'         0.9700    0.1480    0.1830 h1        1 UD5      0.051700
     25 H5''        0.1740    1.0520    1.2360 h1        1 UD5      0.051700
     26 H4'        -0.3680   -1.0850    2.3600 h1        1 UD5      0.109700
     27 H3'         1.1350   -1.9860    0.7370 h1        1 UD5      0.076700
     28 H2          0.4770   -3.7620    1.7290 ho        1 UD5      0.434000
     29 H2'         0.1270   -1.8580   -1.2520 h1        1 UD5      0.070700
     30 H1         -0.5460   -3.7390   -1.3430 ho        1 UD5      0.449000
     31 H1'        -2.4730   -1.3700   -0.8220 h2        1 UD5      0.108700
     32 HN3        -0.1140    0.9810   -4.3390 hn        1 UD5      0.361500
     33 H6         -1.8660    1.5860    0.0840 h4        1 UD5      0.197000
@<TRIPOS>BOND
     1    1    2 1   
     2    1    3 1   
     3    1    4 1   
     4    2   22 1   
     5    3   23 1   
     6    4    5 1   
     7    5    6 1   
     8    5   24 1   
     9    5   25 1   
    10    6    7 1   
    11    6    8 1   
    12    6   26 1   
    13    7   12 1   
    14    8    9 1   
    15    8   10 1   
    16    8   27 1   
    17    9   28 1   
    18   10   11 1   
    19   10   12 1   
    20   10   29 1   
    21   11   30 1   
    22   12   13 1   
    23   12   31 1   
    24   13   14 1   
    25   13   20 1   
    26   14   15 2   
    27   14   16 1   
    28   16   17 1   
    29   16   32 1   
    30   17   18 2   
    31   17   19 1   
    32   19   20 2   
    33   19   21 1   
    34   20   33 1   
@<TRIPOS>SUBSTRUCTURE
     1 UD5         1 TEMP              0 ****  ****    0 ROOT
