@<TRIPOS>MOLECULE
UDB
   64    65     1     0     0
SMALL
bcc


@<TRIPOS>ATOM
      1 C           0.6400   -0.2620    0.8130 c         1 UDB      0.523100
      2 N           2.5590    1.3210    0.6580 n4        1 UDB     -0.685800
      3 O          -0.1840    0.3390    1.4820 o         1 UDB     -0.360100
      4 F1          1.6730    2.5260   -5.9330 f         1 UDB     -0.086900
      5 F2          5.4050    5.2310   -4.7150 f         1 UDB     -0.086900
      6 CA          2.1660   -0.0970    0.9510 c3        1 UDB      0.081500
      7 CB          2.6390   -0.5310    2.3840 c3        1 UDB     -0.053000
      8 CAA         2.0420   -1.8960    2.6790 c3        1 UDB     -0.129100
      9 CAC         4.1590   -0.6510    2.3660 c3        1 UDB     -0.129100
     10 CAD         2.2110    0.4680    3.4440 c3        1 UDB     -0.129100
     11 CAG         2.5170    1.6200   -0.8790 c         1 UDB      0.656100
     12 OAH         1.8460    0.7590   -1.4770 o         1 UDB     -0.600100
     13 NAI         3.1230    2.7430   -1.3090 n         1 UDB     -0.344100
     14 CAJ         3.2530    3.0840   -2.6970 ca        1 UDB      0.025600
     15 CAK         2.3690    2.5890   -3.6650 ca        1 UDB     -0.194500
     16 CAL         2.5260    3.0050   -5.0040 ca        1 UDB      0.208900
     17 CAM         3.5430    3.8970   -5.3740 ca        1 UDB     -0.156000
     18 CAN         4.4200    4.3760   -4.3840 ca        1 UDB      0.208900
     19 CAP         4.2890    3.9720   -3.0390 ca        1 UDB     -0.194500
     20 NAS         0.1180   -1.2060   -0.2560 n4        1 UDB     -0.587200
     21 CAT        -0.4130   -2.4960    0.2750 c3        1 UDB      0.049800
     22 CAU        -1.7500   -2.4160    0.9870 c         1 UDB      0.548100
     23 OAV        -2.3870   -1.4430    1.3350 o         1 UDB     -0.329100
     24 NAW        -2.3950   -3.7680    1.3410 n4        1 UDB     -0.446300
     25 OAX        -1.4580   -4.7310    1.1980 oh        1 UDB     -0.384300
     26 CAY        -0.8760   -0.4780   -1.1470 c3        1 UDB      0.102800
     27 CAZ        -1.2470   -1.2710   -2.3920 c3        1 UDB     -0.101700
     28 CBA        -2.2040   -0.4400   -3.2610 c3        1 UDB     -0.083900
     29 CBB        -1.8450   -0.7470   -4.7100 c3        1 UDB     -0.082400
     30 CBC        -0.5380   -1.5270   -4.7150 c3        1 UDB     -0.082400
     31 CBD        -0.0430   -1.5990   -3.2750 c3        1 UDB     -0.083900
     32 HN          1.9350    1.9670    1.1610 hn        1 UDB      0.483300
     33 HA          2.7100   -0.7500    0.1990 hx        1 UDB      0.142700
     34 HAA         0.9300   -1.8320    2.7650 hc        1 UDB      0.074478
     35 HAAA        2.4380   -2.2650    3.6630 hc        1 UDB      0.074478
     36 HAAB        2.3310   -2.6400    1.8990 hc        1 UDB      0.074478
     37 HAC         4.6590    0.3450    2.2970 hc        1 UDB      0.074478
     38 HACA        4.5000   -1.1170    3.3290 hc        1 UDB      0.074478
     39 HACB        4.5090   -1.3030    1.5300 hc        1 UDB      0.074478
     40 HAD         1.1230    0.7120    3.3680 hc        1 UDB      0.074478
     41 HADA        2.3910    0.0280    4.4610 hc        1 UDB      0.074478
     42 HADB        2.8080    1.4110    3.3930 hc        1 UDB      0.074478
     43 HNAI        3.6310    3.3390   -0.6790 hn        1 UDB      0.373500
     44 HAK         1.5560    1.8890   -3.4230 ha        1 UDB      0.168500
     45 HAM         3.6550    4.2200   -6.4250 ha        1 UDB      0.215000
     46 HAP         5.0010    4.3750   -2.3000 ha        1 UDB      0.168500
     47 HAT        -0.5110   -3.2120   -0.6070 hx        1 UDB      0.170700
     48 HATA        0.3400   -2.9450    1.0000 hx        1 UDB      0.170700
     49 HNAW       -2.7520   -3.7250    2.3230 hn        1 UDB      0.505300
     50 HOAX       -1.8420   -5.6120    1.4520 ho        1 UDB      0.523000
     51 HAY        -1.7860   -0.2260   -0.5310 hx        1 UDB      0.128200
     52 HAYA       -0.3710    0.4860   -1.4600 hx        1 UDB      0.128200
     53 HAZ        -1.7700   -2.2220   -2.1000 hc        1 UDB      0.042700
     54 HBA        -3.2660   -0.7110   -3.0420 hc        1 UDB      0.055450
     55 HBAA       -2.0840    0.6540   -3.0540 hc        1 UDB      0.055450
     56 HBB        -1.7450    0.2040   -5.2940 hc        1 UDB      0.082450
     57 HBBA       -2.6590   -1.3440   -5.1970 hc        1 UDB      0.082450
     58 HBC        -0.6990   -2.5590   -5.1220 hc        1 UDB      0.082450
     59 HBCA        0.2250   -1.0320   -5.3680 hc        1 UDB      0.082450
     60 HBD         0.3650   -2.6130   -3.0440 hc        1 UDB      0.055450
     61 HBDA        0.7750   -0.8470   -3.1180 hc        1 UDB      0.055450
     62 H2          3.5160    1.4520    1.0240 hn        1 UDB      0.483300
     63 HAS1        0.9160   -1.4530   -0.8780 hn        1 UDB      0.496800
     64 HAW2       -3.2040   -3.9340    0.7010 hn        1 UDB      0.505300
@<TRIPOS>BOND
     1    1    3 2   
     2    1    6 1   
     3    1   20 1   
     4    2    6 1   
     5    2   11 1   
     6    2   32 1   
     7    2   62 1   
     8    4   16 1   
     9    5   18 1   
    10    6    7 1   
    11    6   33 1   
    12    7    8 1   
    13    7    9 1   
    14    7   10 1   
    15    8   34 1   
    16    8   35 1   
    17    8   36 1   
    18    9   37 1   
    19    9   38 1   
    20    9   39 1   
    21   10   40 1   
    22   10   41 1   
    23   10   42 1   
    24   11   12 2   
    25   11   13 1   
    26   13   14 1   
    27   13   43 1   
    28   14   15 ar  
    29   14   19 ar  
    30   15   16 ar  
    31   15   44 1   
    32   16   17 ar  
    33   17   18 ar  
    34   17   45 1   
    35   18   19 ar  
    36   19   46 1   
    37   20   21 1   
    38   20   26 1   
    39   20   63 1   
    40   21   22 1   
    41   21   47 1   
    42   21   48 1   
    43   22   23 2   
    44   22   24 1   
    45   24   25 1   
    46   24   49 1   
    47   24   64 1   
    48   25   50 1   
    49   26   27 1   
    50   26   51 1   
    51   26   52 1   
    52   27   28 1   
    53   27   31 1   
    54   27   53 1   
    55   28   29 1   
    56   28   54 1   
    57   28   55 1   
    58   29   30 1   
    59   29   56 1   
    60   29   57 1   
    61   30   31 1   
    62   30   58 1   
    63   30   59 1   
    64   31   60 1   
    65   31   61 1   
@<TRIPOS>SUBSTRUCTURE
     1 UDB         1 TEMP              0 ****  ****    0 ROOT
