@<TRIPOS>MOLECULE
UDB
   65    66     1     0     0
SMALL
bcc


@<TRIPOS>ATOM
      1 C           0.5250   -0.5280    0.0810 c         1 UDB      0.521100
      2 N           1.8990    1.1100   -1.2230 n4        1 UDB     -0.654800
      3 O           0.4090    0.2800    0.9930 o         1 UDB     -0.398100
      4 F1          7.5810    3.0420   -2.4870 f         1 UDB     -0.042400
      5 F2          4.7940    4.6070    1.0550 f         1 UDB     -0.042400
      6 CA          1.5560   -0.3710   -1.0610 c3        1 UDB      0.067500
      7 CB          2.8550   -1.2140   -0.7980 c3        1 UDB     -0.056000
      8 CAA         2.4750   -2.6860   -0.7190 c3        1 UDB     -0.136433
      9 CAC         3.7950   -1.0320   -1.9850 c3        1 UDB     -0.136433
     10 CAD         3.5390   -0.7830    0.4870 c3        1 UDB     -0.136433
     11 CAG         2.0590    1.5260   -2.6650 c         1 UDB      0.493100
     12 OAH         1.6070    0.8310   -3.5580 o         1 UDB     -0.292100
     13 NAI         2.7690    2.8140   -2.9570 n4        1 UDB     -0.484200
     14 CAJ         3.9580    3.0610   -2.1350 ca        1 UDB     -0.082400
     15 CAK         5.2230    2.8300   -2.6880 ca        1 UDB     -0.204500
     16 CAL         6.3670    3.2420   -1.9540 ca        1 UDB      0.237900
     17 CAM         6.2320    3.8490   -0.6950 ca        1 UDB     -0.112000
     18 CAN         4.9400    4.0410   -0.1530 ca        1 UDB      0.237900
     19 CAP         3.7900    3.6460   -0.8640 ca        1 UDB     -0.204500
     20 NAS        -0.3820   -1.7280    0.0810 n4        1 UDB     -0.586200
     21 CAT        -0.5140   -2.3500    1.4460 c3        1 UDB      0.051800
     22 CAU        -1.4940   -1.6700    2.3890 c         1 UDB      0.549100
     23 OAV        -2.0820   -0.6170    2.2290 o         1 UDB     -0.341100
     24 NAW        -1.7710   -2.3940    3.7090 n4        1 UDB     -0.435300
     25 OAX        -0.9710   -3.4820    3.7650 oh        1 UDB     -0.390300
     26 CAY        -1.7500   -1.4110   -0.5210 c3        1 UDB      0.105800
     27 CAZ        -1.7970   -1.4530   -2.0450 c3        1 UDB     -0.106700
     28 CBA        -3.2680   -1.6570   -2.4760 c3        1 UDB     -0.076900
     29 CBB        -3.5840   -0.5790   -3.5020 c3        1 UDB     -0.085900
     30 CBC        -2.5420    0.5130   -3.3300 c3        1 UDB     -0.085900
     31 CBD        -1.3260   -0.1510   -2.6930 c3        1 UDB     -0.076900
     32 HN          2.7900    1.2980   -0.7090 hn        1 UDB      0.507800
     33 HA          1.0880   -0.7320   -2.0360 hx        1 UDB      0.174700
     34 HAA         2.0200   -2.9380    0.2690 hc        1 UDB      0.080811
     35 HAAA        3.4110   -3.3090   -0.8040 hc        1 UDB      0.080811
     36 HAAB        1.8130   -2.9930   -1.5650 hc        1 UDB      0.080811
     37 HAC         3.2980   -1.3190   -2.9440 hc        1 UDB      0.080811
     38 HACA        4.1820    0.0130   -2.0570 hc        1 UDB      0.080811
     39 HACB        4.6880   -1.7030   -1.8540 hc        1 UDB      0.080811
     40 HAD         4.2880   -1.5670    0.7900 hc        1 UDB      0.080811
     41 HADA        4.1140    0.1670    0.3650 hc        1 UDB      0.080811
     42 HADB        2.8080   -0.6670    1.3230 hc        1 UDB      0.080811
     43 HNAI        3.0500    2.7820   -3.9680 hn        1 UDB      0.532800
     44 HAK         5.3830    2.3840   -3.6880 ha        1 UDB      0.187500
     45 HAM         7.1290    4.1980   -0.1380 ha        1 UDB      0.249000
     46 HAP         2.8050    3.9090   -0.4470 ha        1 UDB      0.187500
     47 HAT        -0.8460   -3.4310    1.2950 hx        1 UDB      0.178200
     48 HATA        0.5030   -2.3690    1.9520 hx        1 UDB      0.178200
     49 HNAW       -2.7830   -2.6630    3.7440 hn        1 UDB      0.516800
     50 HOAX       -1.1480   -3.9890    4.6050 ho        1 UDB      0.537000
     51 HAY        -2.4500   -2.2040   -0.1180 hx        1 UDB      0.130200
     52 HAYA       -2.0740   -0.4010   -0.1350 hx        1 UDB      0.130200
     53 HAZ        -1.1950   -2.3190   -2.4340 hc        1 UDB      0.077700
     54 HBA        -3.4000   -2.6790   -2.9150 hc        1 UDB      0.043700
     55 HBAA       -3.9640   -1.5710   -1.6030 hc        1 UDB      0.043700
     56 HBB        -3.5410   -1.0050   -4.5390 hc        1 UDB      0.090200
     57 HBBA       -4.6210   -0.1780   -3.3570 hc        1 UDB      0.090200
     58 HBC        -2.2830    0.9740   -4.3170 hc        1 UDB      0.090200
     59 HBCA       -2.9340    1.3280   -2.6680 hc        1 UDB      0.090200
     60 HBD        -0.8430    0.5250   -1.9380 hc        1 UDB      0.043700
     61 HBDA       -0.5650   -0.3760   -3.4860 hc        1 UDB      0.043700
     62 H2          1.1570    1.6940   -0.7960 hn        1 UDB      0.507800
     63 HAI2        2.1020    3.6050   -2.8370 hn        1 UDB      0.532800
     64 HAS1        0.0530   -2.4580   -0.5210 hn        1 UDB      0.493800
     65 HAW2       -1.5760   -1.7400    4.5050 hn        1 UDB      0.516800
@<TRIPOS>BOND
     1    1    3 2   
     2    1    6 1   
     3    1   20 1   
     4    2    6 1   
     5    2   11 1   
     6    2   32 1   
     7    2   62 1   
     8    4   16 1   
     9    5   18 1   
    10    6    7 1   
    11    6   33 1   
    12    7    8 1   
    13    7    9 1   
    14    7   10 1   
    15    8   34 1   
    16    8   35 1   
    17    8   36 1   
    18    9   37 1   
    19    9   38 1   
    20    9   39 1   
    21   10   40 1   
    22   10   41 1   
    23   10   42 1   
    24   11   12 2   
    25   11   13 1   
    26   13   14 1   
    27   13   43 1   
    28   13   63 1   
    29   14   15 ar  
    30   14   19 ar  
    31   15   16 ar  
    32   15   44 1   
    33   16   17 ar  
    34   17   18 ar  
    35   17   45 1   
    36   18   19 ar  
    37   19   46 1   
    38   20   21 1   
    39   20   26 1   
    40   20   64 1   
    41   21   22 1   
    42   21   47 1   
    43   21   48 1   
    44   22   23 2   
    45   22   24 1   
    46   24   25 1   
    47   24   49 1   
    48   24   65 1   
    49   25   50 1   
    50   26   27 1   
    51   26   51 1   
    52   26   52 1   
    53   27   28 1   
    54   27   31 1   
    55   27   53 1   
    56   28   29 1   
    57   28   54 1   
    58   28   55 1   
    59   29   30 1   
    60   29   56 1   
    61   29   57 1   
    62   30   31 1   
    63   30   58 1   
    64   30   59 1   
    65   31   60 1   
    66   31   61 1   
@<TRIPOS>SUBSTRUCTURE
     1 UDB         1 TEMP              0 ****  ****    0 ROOT
