@<TRIPOS>MOLECULE
UDB
   61    62     1     0     0
SMALL
bcc


@<TRIPOS>ATOM
      1 C          -1.7750   -0.1090   -1.1770 c         1 UDB      0.645100
      2 N           0.5990    0.4630   -1.4610 n         1 UDB     -0.558900
      3 O          -2.0130   -0.8870   -2.1220 o         1 UDB     -0.603100
      4 F1          4.4000    0.2920    4.0080 f         1 UDB     -0.131400
      5 F2          7.3470   -0.7840    0.4270 f         1 UDB     -0.131400
      6 CA         -0.7240    1.0230   -1.3440 c3        1 UDB      0.053700
      7 CB         -1.1200    1.9270   -2.5510 c3        1 UDB     -0.043000
      8 CAA        -2.6070    2.2370   -2.4380 c3        1 UDB     -0.100100
      9 CAC        -0.3350    3.2290   -2.4550 c3        1 UDB     -0.100100
     10 CAD        -0.8350    1.2680   -3.8890 c3        1 UDB     -0.100100
     11 CAG         1.4510    0.4340   -0.3510 c         1 UDB      0.788100
     12 OAH         1.1200    1.0090    0.7180 o         1 UDB     -0.664100
     13 NAI         2.6740   -0.2510   -0.4880 n         1 UDB     -0.464100
     14 CAJ         3.7240   -0.2020    0.4440 ca        1 UDB      0.125600
     15 CAK         3.5180    0.0590    1.8110 ca        1 UDB     -0.222500
     16 CAL         4.6110    0.0370    2.6950 ca        1 UDB      0.179900
     17 CAM         5.9110   -0.2460    2.2500 ca        1 UDB     -0.230000
     18 CAN         6.1020   -0.5080    0.8840 ca        1 UDB      0.179900
     19 CAP         5.0310   -0.4850   -0.0200 ca        1 UDB     -0.222500
     20 NAS        -2.4470   -0.2450    0.0300 n         1 UDB     -0.461800
     21 CAT        -1.9560    0.3270    1.2510 c3        1 UDB      0.018000
     22 CAU        -2.2580    1.8210    1.4330 c         1 UDB      0.562100
     23 OAV        -3.3280    2.3420    1.0830 o         1 UDB     -0.560100
     24 NAW        -1.2990    2.5540    2.1960 n         1 UDB     -0.357400
     25 OAX        -1.4010    3.8810    2.0890 oh        1 UDB     -0.435100
     26 CAY        -3.6700   -1.0200    0.0970 c3        1 UDB      0.095000
     27 CAZ        -3.5430   -2.3930    0.7650 c3        1 UDB     -0.083700
     28 CBA        -4.9260   -3.0260    0.9220 c3        1 UDB     -0.079400
     29 CBB        -4.7550   -4.5180    0.6820 c3        1 UDB     -0.078400
     30 CBC        -3.4410   -4.7080   -0.0640 c3        1 UDB     -0.078400
     31 CBD        -2.7020   -3.3760   -0.0470 c3        1 UDB     -0.079400
     32 HN          0.7580   -0.1230   -2.2480 hn        1 UDB      0.326500
     33 HA         -0.7340    1.7020   -0.4370 h1        1 UDB      0.092700
     34 HAA        -2.8640    2.5810   -1.4060 hc        1 UDB      0.046478
     35 HAAA       -2.8790    3.0450   -3.1600 hc        1 UDB      0.046478
     36 HAAB       -3.2140    1.3300   -2.6780 hc        1 UDB      0.046478
     37 HAC         0.7640    3.0350   -2.4780 hc        1 UDB      0.046478
     38 HACA       -0.5950    3.8870   -3.3190 hc        1 UDB      0.046478
     39 HACB       -0.5850    3.7700   -1.5100 hc        1 UDB      0.046478
     40 HAD        -1.2420    0.2280   -3.9120 hc        1 UDB      0.046478
     41 HADA       -1.3200    1.8570   -4.7050 hc        1 UDB      0.046478
     42 HADB        0.2620    1.2360   -4.0950 hc        1 UDB      0.046478
     43 HNAI        2.9360   -0.5630   -1.3990 hn        1 UDB      0.321500
     44 HAK         2.5160    0.2910    2.2090 ha        1 UDB      0.170000
     45 HAM         6.7560   -0.2620    2.9500 ha        1 UDB      0.169000
     46 HAP         5.2310   -0.6930   -1.0810 ha        1 UDB      0.170000
     47 HAT        -2.4430   -0.1960    2.1260 h1        1 UDB      0.088700
     48 HATA       -0.8410    0.1500    1.3190 h1        1 UDB      0.088700
     49 HNAW       -0.3380    2.2980    1.9750 hn        1 UDB      0.326500
     50 HOAX       -2.1840    4.1320    2.6190 ho        1 UDB      0.431000
     51 HAY        -4.4270   -0.4110    0.6720 h1        1 UDB      0.068200
     52 HAYA       -4.0540   -1.1630   -0.9540 h1        1 UDB      0.068200
     53 HAZ        -3.0830   -2.2720    1.7840 hc        1 UDB      0.043700
     54 HBA        -5.3420   -2.8240    1.9400 hc        1 UDB      0.048200
     55 HBAA       -5.6420   -2.5950    0.1760 hc        1 UDB      0.048200
     56 HBB        -4.7290   -5.0660    1.6580 hc        1 UDB      0.040700
     57 HBBA       -5.6130   -4.9270    0.0940 hc        1 UDB      0.040700
     58 HBC        -2.8270   -5.5080    0.4210 hc        1 UDB      0.040700
     59 HBCA       -3.6330   -5.0300   -1.1180 hc        1 UDB      0.040700
     60 HBD        -2.5530   -2.9950   -1.0910 hc        1 UDB      0.048200
     61 HBDA       -1.6890   -3.4920    0.4120 hc        1 UDB      0.048200
@<TRIPOS>BOND
     1    1    3 2   
     2    1    6 1   
     3    1   20 1   
     4    2    6 1   
     5    2   11 1   
     6    2   32 1   
     7    4   16 1   
     8    5   18 1   
     9    6    7 1   
    10    6   33 1   
    11    7    8 1   
    12    7    9 1   
    13    7   10 1   
    14    8   34 1   
    15    8   35 1   
    16    8   36 1   
    17    9   37 1   
    18    9   38 1   
    19    9   39 1   
    20   10   40 1   
    21   10   41 1   
    22   10   42 1   
    23   11   12 2   
    24   11   13 1   
    25   13   14 1   
    26   13   43 1   
    27   14   15 ar  
    28   14   19 ar  
    29   15   16 ar  
    30   15   44 1   
    31   16   17 ar  
    32   17   18 ar  
    33   17   45 1   
    34   18   19 ar  
    35   19   46 1   
    36   20   21 1   
    37   20   26 1   
    38   21   22 1   
    39   21   47 1   
    40   21   48 1   
    41   22   23 2   
    42   22   24 1   
    43   24   25 1   
    44   24   49 1   
    45   25   50 1   
    46   26   27 1   
    47   26   51 1   
    48   26   52 1   
    49   27   28 1   
    50   27   31 1   
    51   27   53 1   
    52   28   29 1   
    53   28   54 1   
    54   28   55 1   
    55   29   30 1   
    56   29   56 1   
    57   29   57 1   
    58   30   31 1   
    59   30   58 1   
    60   30   59 1   
    61   31   60 1   
    62   31   61 1   
@<TRIPOS>SUBSTRUCTURE
     1 UDB         1 TEMP              0 ****  ****    0 ROOT
