@<TRIPOS>MOLECULE
UDB
   64    65     1     0     0
SMALL
bcc


@<TRIPOS>ATOM
      1 C           0.6230   -0.2540    0.8100 c         1 UDB      0.523100
      2 N           2.4990    1.3810    0.6590 ny        1 UDB     -0.685800
      3 O          -0.2250    0.3320    1.4620 o         1 UDB     -0.360100
      4 F1          1.6500    2.4960   -5.9520 f         1 UDB     -0.086900
      5 F2          5.3030    5.3040   -4.7250 f         1 UDB     -0.086900
      6 CA          2.1420   -0.0450    0.9630 c3        1 UDB      0.081500
      7 CB          2.6100   -0.4500    2.4060 c3        1 UDB     -0.053000
      8 CAA         2.0470   -1.8280    2.7100 c3        1 UDB     -0.129100
      9 CAC         4.1330   -0.5280    2.4070 c3        1 UDB     -0.129100
     10 CAD         2.1420    0.5480    3.4500 c3        1 UDB     -0.129100
     11 CAG         2.4660    1.6620   -0.8810 c         1 UDB      0.656100
     12 OAH         1.8270    0.7760   -1.4780 o         1 UDB     -0.600100
     13 NAI         3.0470    2.7960   -1.3170 ns        1 UDB     -0.344100
     14 CAJ         3.1830    3.1260   -2.7060 ca        1 UDB      0.025600
     15 CAK         2.3220    2.5990   -3.6780 ca        1 UDB     -0.194500
     16 CAL         2.4820    3.0050   -5.0190 ca        1 UDB      0.208900
     17 CAM         3.4810    3.9180   -5.3890 ca        1 UDB     -0.156000
     18 CAN         4.3350    4.4290   -4.3950 ca        1 UDB      0.208900
     19 CAP         4.2010    4.0360   -3.0480 ca        1 UDB     -0.194500
     20 NAS         0.1410   -1.2240   -0.2550 nx        1 UDB     -0.587200
     21 CAT        -0.3610   -2.5220    0.2840 c3        1 UDB      0.049800
     22 CAU        -1.7080   -2.4720    0.9800 c         1 UDB      0.548100
     23 OAV        -2.3750   -1.5130    1.3100 o         1 UDB     -0.329100
     24 NAW        -2.3190   -3.8380    1.3410 ny        1 UDB     -0.446300
     25 OAX        -1.3540   -4.7760    1.2190 oh        1 UDB     -0.384300
     26 CAY        -0.8630   -0.5330   -1.1650 c3        1 UDB      0.102800
     27 CAZ        -1.1980   -1.3500   -2.4060 c3        1 UDB     -0.101700
     28 CBA        -2.1670   -0.5550   -3.2950 c3        1 UDB     -0.083900
     29 CBB        -1.7820   -0.8660   -4.7360 c3        1 UDB     -0.082400
     30 CBC        -0.4540   -1.6110   -4.7180 c3        1 UDB     -0.082400
     31 CBD         0.0260   -1.6530   -3.2710 c3        1 UDB     -0.083900
     32 HN          1.8510    2.0140    1.1480 hn        1 UDB      0.483300
     33 HA          2.7130   -0.6910    0.2240 hx        1 UDB      0.142700
     34 HAA         2.4410   -2.1760    3.7020 hc        1 UDB      0.074478
     35 HAAA        2.3670   -2.5730    1.9410 hc        1 UDB      0.074478
     36 HAAB        0.9330   -1.7950    2.7820 hc        1 UDB      0.074478
     37 HAC         4.4750   -0.9740    3.3790 hc        1 UDB      0.074478
     38 HACA        4.6060    0.4800    2.3320 hc        1 UDB      0.074478
     39 HACB        4.5110   -1.1790    1.5820 hc        1 UDB      0.074478
     40 HAD         1.0490    0.7600    3.3580 hc        1 UDB      0.074478
     41 HADA        2.7130    1.5060    3.3960 hc        1 UDB      0.074478
     42 HADB        2.3220    0.1230    4.4740 hc        1 UDB      0.074478
     43 HNAI        3.5310    3.4130   -0.6880 hn        1 UDB      0.373500
     44 HAK         1.5240    1.8830   -3.4360 ha        1 UDB      0.168500
     45 HAM         3.5960    4.2340   -6.4420 ha        1 UDB      0.215000
     46 HAP         4.8950    4.4630   -2.3060 ha        1 UDB      0.168500
     47 HAT         0.3960   -2.9420    1.0220 hx        1 UDB      0.170700
     48 HATA       -0.4290   -3.2500   -0.5910 hx        1 UDB      0.170700
     49 HNAW       -3.1150   -4.0330    0.6950 hn        1 UDB      0.505300
     50 HOAX       -1.7160   -5.6640    1.4780 ho        1 UDB      0.523000
     51 HAY        -1.7870   -0.3010   -0.5620 hx        1 UDB      0.128200
     52 HAYA       -0.3820    0.4420   -1.4820 hx        1 UDB      0.128200
     53 HAZ        -1.6970   -2.3110   -2.1090 hc        1 UDB      0.042700
     54 HBA        -3.2240   -0.8540   -3.0850 hc        1 UDB      0.055450
     55 HBAA       -2.0810    0.5440   -3.0970 hc        1 UDB      0.055450
     56 HBB        -2.5730   -1.4890   -5.2270 hc        1 UDB      0.082450
     57 HBBA       -1.7000    0.0820   -5.3280 hc        1 UDB      0.082450
     58 HBC        -0.5830   -2.6500   -5.1150 hc        1 UDB      0.082450
     59 HBCA        0.3020   -1.1020   -5.3680 hc        1 UDB      0.082450
     60 HBD         0.8210   -0.8760   -3.1130 hc        1 UDB      0.055450
     61 HBDA        0.4590   -2.6530   -3.0240 hc        1 UDB      0.055450
     62 H2          3.4480    1.5420    1.0350 hn        1 UDB      0.483300
     63 HAS1        0.9520   -1.4550   -0.8650 hn        1 UDB      0.496800
     64 HAW2       -2.6880   -3.7940    2.3190 hn        1 UDB      0.505300
@<TRIPOS>BOND
     1    1    3 2   
     2    1    6 1   
     3    1   20 1   
     4    2    6 1   
     5    2   11 1   
     6    2   32 1   
     7    2   62 1   
     8    4   16 1   
     9    5   18 1   
    10    6    7 1   
    11    6   33 1   
    12    7    8 1   
    13    7    9 1   
    14    7   10 1   
    15    8   34 1   
    16    8   35 1   
    17    8   36 1   
    18    9   37 1   
    19    9   38 1   
    20    9   39 1   
    21   10   40 1   
    22   10   41 1   
    23   10   42 1   
    24   11   12 2   
    25   11   13 1   
    26   13   14 1   
    27   13   43 1   
    28   14   15 ar  
    29   14   19 ar  
    30   15   16 ar  
    31   15   44 1   
    32   16   17 ar  
    33   17   18 ar  
    34   17   45 1   
    35   18   19 ar  
    36   19   46 1   
    37   20   21 1   
    38   20   26 1   
    39   20   63 1   
    40   21   22 1   
    41   21   47 1   
    42   21   48 1   
    43   22   23 2   
    44   22   24 1   
    45   24   25 1   
    46   24   49 1   
    47   24   64 1   
    48   25   50 1   
    49   26   27 1   
    50   26   51 1   
    51   26   52 1   
    52   27   28 1   
    53   27   31 1   
    54   27   53 1   
    55   28   29 1   
    56   28   54 1   
    57   28   55 1   
    58   29   30 1   
    59   29   56 1   
    60   29   57 1   
    61   30   31 1   
    62   30   58 1   
    63   30   59 1   
    64   31   60 1   
    65   31   61 1   
@<TRIPOS>SUBSTRUCTURE
     1 UDB         1 TEMP              0 ****  ****    0 ROOT
