@<TRIPOS>MOLECULE
UDC
   46    46     1     0     0
SMALL
bcc


@<TRIPOS>ATOM
      1 C1         -2.7980    0.1710   -1.4430 c3        1 UDC      0.308900
      2 O1         -3.2160   -0.8720   -0.9970 oh        1 UDC     -0.616800
      3 C2         -1.2090    0.2050   -1.4180 c3        1 UDC      0.089700
      4 N2         -0.7200   -0.9530   -2.0980 n         1 UDC     -0.544900
      5 C3         -0.6160    0.2360   -0.0430 c3        1 UDC      0.107100
      6 O3          0.8850    0.3790   -0.1660 os        1 UDC     -0.411600
      7 C4         -1.1130    1.3120    0.7720 c3        1 UDC      0.122100
      8 O4         -0.5890    1.1270    2.1740 oh        1 UDC     -0.630800
      9 C5         -2.5450    1.3960    0.8340 c3        1 UDC      0.069100
     10 O5         -3.1930    1.4080   -0.4800 os        1 UDC     -0.452600
     11 C6         -2.9340    2.6980    1.5880 c3        1 UDC      0.150400
     12 O6         -4.2970    3.0080    1.3260 oh        1 UDC     -0.617800
     13 C7         -0.4910   -0.9090   -3.5220 c         1 UDC      0.659100
     14 O7         -0.7160    0.1220   -4.1450 o         1 UDC     -0.649100
     15 C8         -0.0650   -2.1750   -4.2690 c3        1 UDC     -0.172100
     16 CBN         1.6440   -0.4590    0.7730 c3        1 UDC     -0.002200
     17 CBO         1.0900   -0.2880    2.1560 c         1 UDC      0.895600
     18 OBP         0.3640   -1.1930    2.6630 o         1 UDC     -0.821300
     19 OBQ         1.3950    0.7170    2.8290 o         1 UDC     -0.821300
     20 CBR         1.5310   -1.8990    0.3610 c3        1 UDC     -0.103100
     21 CBS         3.1220   -0.0370    0.7610 c3        1 UDC      0.132100
     22 OBT         3.2240    1.2770    1.1460 oh        1 UDC     -0.625800
     23 CBU         3.9190   -0.9190    1.7370 c3        1 UDC      0.098400
     24 OBV         5.2320   -0.3930    1.8850 oh        1 UDC     -0.626800
     25 H1         -3.1300    0.3180   -2.3430 h2        1 UDC      0.083700
     26 HO1        -3.9730   -1.0980   -1.4260 ho        1 UDC      0.408000
     27 H2         -0.9080    1.0010   -1.9040 h1        1 UDC      0.083700
     28 HN2        -0.4960   -1.7060   -1.6200 hn        1 UDC      0.341500
     29 H3         -0.8100   -0.5920    0.3920 h1        1 UDC      0.106700
     30 H4         -0.7660    2.1570    0.4170 h1        1 UDC      0.075700
     31 HO4        -0.5360    1.9310    2.5840 ho        1 UDC      0.460000
     32 H5         -2.8820    0.6270    1.3420 h1        1 UDC      0.068700
     33 H6         -2.8070    2.5660    2.5590 h1        1 UDC      0.043700
     34 H6A        -2.3620    3.4410    1.2800 h1        1 UDC      0.043700
     35 HO6        -4.5370    3.7080    1.8080 ho        1 UDC      0.429000
     36 H8          0.9170   -2.2940   -4.1850 hc        1 UDC      0.060700
     37 H8A        -0.3050   -2.0910   -5.2210 hc        1 UDC      0.060700
     38 H8B        -0.5280   -2.9600   -3.8800 hc        1 UDC      0.060700
     39 HBR         2.0650   -2.4590    0.9700 hc        1 UDC      0.037367
     40 HBRA        0.5880   -2.1780    0.4010 hc        1 UDC      0.037367
     41 HBRB        1.8620   -2.0030   -0.5510 hc        1 UDC      0.037367
     42 HBS         3.4800   -0.1390   -0.1290 h1        1 UDC      0.055700
     43 HOBT        4.0130    1.6050    0.8820 ho        1 UDC      0.443000
     44 HBU         3.9700   -1.8380    1.3840 h1        1 UDC      0.056700
     45 HBUA        3.4710   -0.9290    2.6090 h1        1 UDC      0.056700
     46 HOBV        5.7720   -1.0250    2.2100 ho        1 UDC      0.412000
@<TRIPOS>BOND
     1    1    2 1   
     2    1    3 1   
     3    1   10 1   
     4    1   25 1   
     5    2   26 1   
     6    3    4 1   
     7    3    5 1   
     8    3   27 1   
     9    4   13 1   
    10    4   28 1   
    11    5    6 1   
    12    5    7 1   
    13    5   29 1   
    14    6   16 1   
    15    7    8 1   
    16    7    9 1   
    17    7   30 1   
    18    8   31 1   
    19    9   10 1   
    20    9   11 1   
    21    9   32 1   
    22   11   12 1   
    23   11   33 1   
    24   11   34 1   
    25   12   35 1   
    26   13   14 2   
    27   13   15 1   
    28   15   36 1   
    29   15   37 1   
    30   15   38 1   
    31   16   17 1   
    32   16   20 1   
    33   16   21 1   
    34   17   18 1   
    35   17   19 1   
    36   20   39 1   
    37   20   40 1   
    38   20   41 1   
    39   21   22 1   
    40   21   23 1   
    41   21   42 1   
    42   22   43 1   
    43   23   24 1   
    44   23   44 1   
    45   23   45 1   
    46   24   46 1   
@<TRIPOS>SUBSTRUCTURE
     1 UDC         1 TEMP              0 ****  ****    0 ROOT
