@<TRIPOS>MOLECULE
UDC
   46    46     1     0     0
SMALL
bcc


@<TRIPOS>ATOM
      1 C1          2.5050   -1.6180   -0.3600 c3        1 UDC      0.305900
      2 O1          2.8790   -0.9860   -1.5600 oh        1 UDC     -0.605800
      3 C2          0.9600   -1.6240   -0.2080 c3        1 UDC      0.100700
      4 N2          0.2870   -2.2640   -1.3070 n         1 UDC     -0.548900
      5 C3          0.4410   -0.1790   -0.0020 c3        1 UDC      0.099100
      6 O3         -0.9020   -0.2630    0.4540 os        1 UDC     -0.427600
      7 C4          1.2360    0.5290    1.1080 c3        1 UDC      0.111100
      8 O4          0.8600    1.8930    1.2240 oh        1 UDC     -0.626800
      9 C5          2.7410    0.4560    0.8060 c3        1 UDC      0.077100
     10 O5          3.1620   -0.9020    0.6720 os        1 UDC     -0.454600
     11 C6          3.5750    1.0410    1.9510 c3        1 UDC      0.147400
     12 O6          3.6400    2.4490    1.8690 oh        1 UDC     -0.616800
     13 C7          0.3520   -3.6160   -1.5200 c         1 UDC      0.658100
     14 O7          1.0490   -4.3700   -0.7990 o         1 UDC     -0.671100
     15 C8         -0.4550   -4.1680   -2.6720 c3        1 UDC     -0.168100
     16 CBN        -1.9420    0.2760   -0.3860 c3        1 UDC     -0.000200
     17 CBO        -1.4220    0.6540   -1.8130 c         1 UDC      0.907600
     18 OBP        -0.9170    1.8000   -1.9610 o         1 UDC     -0.819800
     19 OBQ        -1.4800   -0.2340   -2.7080 o         1 UDC     -0.819800
     20 CBR        -2.9950   -0.8180   -0.4900 c3        1 UDC     -0.084100
     21 CBS        -2.4890    1.5290    0.3340 c3        1 UDC      0.091100
     22 OBT        -3.8380    1.8160   -0.0010 oh        1 UDC     -0.598800
     23 CBU        -2.3660    1.4230    1.8590 c3        1 UDC      0.093400
     24 OBV        -3.3620    2.1830    2.5220 oh        1 UDC     -0.626800
     25 H1          2.9120   -2.6680   -0.2820 h2        1 UDC      0.088700
     26 HO1         3.8420   -1.0270   -1.6120 ho        1 UDC      0.403000
     27 H2          0.7580   -2.2170    0.7350 h1        1 UDC      0.074700
     28 HN2        -0.2600   -1.6790   -1.9160 hn        1 UDC      0.376500
     29 H3          0.5690    0.4060   -0.9580 h1        1 UDC      0.120700
     30 H4          1.0100    0.0680    2.1090 h1        1 UDC      0.075700
     31 HO4         0.4430    2.1630    0.3900 ho        1 UDC      0.439000
     32 H5          2.9580    1.0110   -0.1490 h1        1 UDC      0.070700
     33 H6          3.1440    0.7300    2.9390 h1        1 UDC      0.045200
     34 H6A         4.6380    0.6910    1.8770 h1        1 UDC      0.045200
     35 HO6         2.7300    2.7770    1.8170 ho        1 UDC      0.425000
     36 H8         -0.0630   -3.7690   -3.6390 hc        1 UDC      0.061033
     37 H8A        -0.3720   -5.2810   -2.6710 hc        1 UDC      0.061033
     38 H8B        -1.5280   -3.8750   -2.5750 hc        1 UDC      0.061033
     39 HBR        -3.4090   -1.0670    0.5160 hc        1 UDC      0.037367
     40 HBRA       -3.8130   -0.4720   -1.1650 hc        1 UDC      0.037367
     41 HBRB       -2.5340   -1.7320   -0.9350 hc        1 UDC      0.037367
     42 HBS        -1.9230    2.4310   -0.0480 h1        1 UDC      0.108700
     43 HOBT       -4.3740    1.0800    0.3190 ho        1 UDC      0.393000
     44 HBU        -2.5220    0.3670    2.2050 h1        1 UDC      0.054700
     45 HBUA       -1.3490    1.7720    2.1810 h1        1 UDC      0.054700
     46 HOBV       -3.5860    2.9300    1.9520 ho        1 UDC      0.406000
@<TRIPOS>BOND
     1    1    2 1   
     2    1    3 1   
     3    1   10 1   
     4    1   25 1   
     5    2   26 1   
     6    3    4 1   
     7    3    5 1   
     8    3   27 1   
     9    4   13 1   
    10    4   28 1   
    11    5    6 1   
    12    5    7 1   
    13    5   29 1   
    14    6   16 1   
    15    7    8 1   
    16    7    9 1   
    17    7   30 1   
    18    8   31 1   
    19    9   10 1   
    20    9   11 1   
    21    9   32 1   
    22   11   12 1   
    23   11   33 1   
    24   11   34 1   
    25   12   35 1   
    26   13   14 2   
    27   13   15 1   
    28   15   36 1   
    29   15   37 1   
    30   15   38 1   
    31   16   17 1   
    32   16   20 1   
    33   16   21 1   
    34   17   18 1   
    35   17   19 1   
    36   20   39 1   
    37   20   40 1   
    38   20   41 1   
    39   21   22 1   
    40   21   23 1   
    41   21   42 1   
    42   22   43 1   
    43   23   24 1   
    44   23   44 1   
    45   23   45 1   
    46   24   46 1   
@<TRIPOS>SUBSTRUCTURE
     1 UDC         1 TEMP              0 ****  ****    0 ROOT
