@<TRIPOS>MOLECULE
UDD
   53    56     1     0     0
SMALL
bcc


@<TRIPOS>ATOM
      1 CAJ         0.2610   -0.8360    0.1850 ca        1 UDD     -0.203500
      2 CAL         1.6040   -1.1550    0.3070 ca        1 UDD     -0.041000
      3 CAZ         2.2790   -0.9270    1.5090 ca        1 UDD     -0.220300
      4 CBF         3.7550   -1.2600    1.6300 c3        1 UDD      0.694200
      5 FAB         4.5990   -0.2310    1.2800 f         1 UDD     -0.239967
      6 FAC         4.1640   -1.6040    2.8970 f         1 UDD     -0.239967
      7 FAA         4.1730   -2.3090    0.8470 f         1 UDD     -0.239967
      8 CAM         1.5930   -0.3760    2.5910 ca        1 UDD     -0.041000
      9 CAK         0.2470   -0.0500    2.4830 ca        1 UDD     -0.203500
     10 CAX        -0.4600   -0.2770    1.2750 ca        1 UDD      0.214600
     11 NBE        -1.8360   -0.0320    1.1580 nh        1 UDD     -0.565400
     12 CAY        -2.3940   -0.0010   -0.1480 ca        1 UDD      0.005300
     13 CAI        -2.0680    0.9900   -1.0990 ca        1 UDD     -0.106000
     14 CAG        -2.6570    0.9420   -2.3610 ca        1 UDD     -0.238300
     15 CAH        -3.5550   -0.1000   -2.6510 ca        1 UDD      0.394200
     16 NAV        -3.8720   -1.0670   -1.7690 nb        1 UDD     -0.660000
     17 CAP        -3.3020   -1.0220   -0.5540 ca        1 UDD      0.399200
     18 CBC        -2.5560    0.5830    2.2660 c3        1 UDD      0.235500
     19 CAS        -2.2090    2.0540    2.5480 c3        1 UDD     -0.098900
     20 CAU        -2.9360    3.0450    1.6450 c3        1 UDD      0.185800
     21 CAR        -4.0820    0.4430    2.2010 c3        1 UDD     -0.098900
     22 CAT        -4.7720    1.4850    1.3260 c3        1 UDD      0.185800
     23 NBD        -4.3800    2.8500    1.6540 nh        1 UDD     -0.733300
     24 CBB        -5.1730    3.8610    1.0500 ca        1 UDD      0.656200
     25 NAW        -4.5790    4.8840    0.3490 nb        1 UDD     -0.719000
     26 CAQ        -5.3570    5.8630   -0.1250 ca        1 UDD      0.481200
     27 CBA        -6.7550    5.9030    0.0360 ca        1 UDD     -0.333600
     28 CBG        -7.5670    7.0350   -0.5570 c3        1 UDD      0.701200
     29 FAE        -6.8970    8.2320   -0.6490 f         1 UDD     -0.237300
     30 FAF        -8.0090    6.8030   -1.8390 f         1 UDD     -0.237300
     31 FAD        -8.7130    7.3410    0.1380 f         1 UDD     -0.237300
     32 CAN        -7.3690    4.8670    0.7460 ca        1 UDD     -0.021000
     33 CAO        -6.5890    3.8390    1.2580 ca        1 UDD     -0.276300
     34 HAJ        -0.2460   -1.0320   -0.7730 ha        1 UDD      0.145500
     35 HAL         2.1440   -1.5960   -0.5470 ha        1 UDD      0.150000
     36 HAM         2.1230   -0.2000    3.5420 ha        1 UDD      0.150000
     37 HAK        -0.2500    0.3880    3.3620 ha        1 UDD      0.145500
     38 HBC        -2.2350   -0.0150    3.1790 h1        1 UDD      0.063700
     39 HAI        -1.3490    1.7890   -0.8560 ha        1 UDD      0.151000
     40 HAP        -3.5770   -1.8450    0.1330 h4        1 UDD      0.034100
     41 HAG        -2.4230    1.7030   -3.1180 ha        1 UDD      0.152000
     42 HAH        -4.0430   -0.1720   -3.6400 h4        1 UDD      0.030100
     43 HAS1       -1.1090    2.2330    2.4310 hc        1 UDD      0.064200
     44 HAS2       -2.4760    2.2570    3.6190 hc        1 UDD      0.064200
     45 HAR1       -4.3750   -0.5710    1.8230 hc        1 UDD      0.064200
     46 HAR2       -4.4590    0.5370    3.2550 hc        1 UDD      0.064200
     47 HAU1       -2.5210    2.9580    0.5990 h1        1 UDD      0.052700
     48 HAU2       -2.7170    4.0850    2.0210 h1        1 UDD      0.052700
     49 HAT1       -4.5420    1.2570    0.2420 h1        1 UDD      0.052700
     50 HAT2       -5.8840    1.3800    1.4690 h1        1 UDD      0.052700
     51 HAO        -7.0610    3.0330    1.8380 ha        1 UDD      0.156000
     52 HAQ        -4.8310    6.6690   -0.6730 h4        1 UDD      0.040100
     53 HAN        -8.4600    4.8740    0.9030 ha        1 UDD      0.157000
@<TRIPOS>BOND
     1    1    2 ar  
     2    1   10 ar  
     3    1   34 1   
     4    2    3 ar  
     5    2   35 1   
     6    3    4 1   
     7    3    8 ar  
     8    4    5 1   
     9    4    6 1   
    10    4    7 1   
    11    8    9 ar  
    12    8   36 1   
    13    9   10 ar  
    14    9   37 1   
    15   10   11 1   
    16   11   12 1   
    17   11   18 1   
    18   12   13 ar  
    19   12   17 ar  
    20   13   14 ar  
    21   13   39 1   
    22   14   15 ar  
    23   14   41 1   
    24   15   16 ar  
    25   15   42 1   
    26   16   17 ar  
    27   17   40 1   
    28   18   19 1   
    29   18   21 1   
    30   18   38 1   
    31   19   20 1   
    32   19   43 1   
    33   19   44 1   
    34   20   23 1   
    35   20   47 1   
    36   20   48 1   
    37   21   22 1   
    38   21   45 1   
    39   21   46 1   
    40   22   23 1   
    41   22   49 1   
    42   22   50 1   
    43   23   24 1   
    44   24   25 ar  
    45   24   33 ar  
    46   25   26 ar  
    47   26   27 ar  
    48   26   52 1   
    49   27   28 1   
    50   27   32 ar  
    51   28   29 1   
    52   28   30 1   
    53   28   31 1   
    54   32   33 ar  
    55   32   53 1   
    56   33   51 1   
@<TRIPOS>SUBSTRUCTURE
     1 UDD         1 TEMP              0 ****  ****    0 ROOT
