@<TRIPOS>MOLECULE
UDD
   53    56     1     0     0
SMALL
bcc


@<TRIPOS>ATOM
      1 CAJ        -3.7530    0.7920   -0.8990 ca        1 UDD     -0.203500
      2 CAL        -5.0330    0.2710   -1.0000 ca        1 UDD     -0.041000
      3 CAZ        -5.6300   -0.3560    0.0970 ca        1 UDD     -0.220300
      4 CBF        -7.0260   -0.9420   -0.0260 c3        1 UDD      0.694200
      5 FAB        -7.0560   -2.2530   -0.4410 f         1 UDD     -0.239967
      6 FAC        -7.7500   -0.9500    1.1420 f         1 UDD     -0.239967
      7 FAA        -7.8430   -0.2950   -0.9220 f         1 UDD     -0.239967
      8 CAM        -4.9310   -0.4560    1.2990 ca        1 UDD     -0.041000
      9 CAK        -3.6460    0.0580    1.4150 ca        1 UDD     -0.203500
     10 CAX        -3.0220    0.7040    0.3170 ca        1 UDD      0.214600
     11 NBE        -1.7580    1.3030    0.4230 nh        1 UDD     -0.565400
     12 CAY        -1.0890    1.6550   -0.7790 ca        1 UDD      0.005300
     13 CAI        -0.6320    0.6980   -1.7110 ca        1 UDD     -0.106000
     14 CAG         0.0090    1.1300   -2.8700 ca        1 UDD     -0.238300
     15 CAH         0.1760    2.5090   -3.0800 ca        1 UDD      0.394200
     16 NAV        -0.2630    3.4450   -2.2160 nb        1 UDD     -0.660000
     17 CAP        -0.8850    3.0280   -1.1010 ca        1 UDD      0.399200
     18 CBC        -0.9990    1.1700    1.6610 c3        1 UDD      0.235500
     19 CAS        -0.4730   -0.2400    1.9690 c3        1 UDD     -0.098900
     20 CAU         0.8220   -0.5900    1.2440 c3        1 UDD      0.185800
     21 CAR         0.1550    2.1690    1.8200 c3        1 UDD     -0.098900
     22 CAT         1.4450    1.7550    1.1200 c3        1 UDD      0.185800
     23 NBD         1.8660    0.4020    1.4600 nh        1 UDD     -0.733300
     24 CBB         3.1800    0.0630    1.0420 ca        1 UDD      0.656200
     25 NAW         3.4030   -1.0840    0.3170 nb        1 UDD     -0.719000
     26 CAQ         4.6650   -1.4120    0.0220 ca        1 UDD      0.481200
     27 CBA         5.7840   -0.6440    0.3960 ca        1 UDD     -0.333600
     28 CBG         7.1810   -1.0720   -0.0030 c3        1 UDD      0.701200
     29 FAE         7.3480   -2.4300   -0.1300 f         1 UDD     -0.237300
     30 FAF         7.6030   -0.5710   -1.2120 f         1 UDD     -0.237300
     31 FAD         8.1670   -0.6910    0.8750 f         1 UDD     -0.237300
     32 CAN         5.5680    0.5240    1.1320 ca        1 UDD     -0.021000
     33 CAO         4.2700    0.8900    1.4620 ca        1 UDD     -0.276300
     34 HAJ        -3.3100    1.2850   -1.7780 ha        1 UDD      0.145500
     35 HAL        -5.5880    0.3560   -1.9490 ha        1 UDD      0.150000
     36 HAM        -5.4030   -0.9470    2.1660 ha        1 UDD      0.150000
     37 HAK        -3.1320   -0.0500    2.3810 ha        1 UDD      0.145500
     38 HBC        -1.7440    1.4330    2.4800 h1        1 UDD      0.063700
     39 HAI        -0.7870   -0.3780   -1.5350 ha        1 UDD      0.151000
     40 HAP        -1.2440    3.8290   -0.4270 h4        1 UDD      0.034100
     41 HAG         0.3780    0.4060   -3.6100 ha        1 UDD      0.152000
     42 HAH         0.6810    2.8910   -3.9860 h4        1 UDD      0.030100
     43 HAS1       -0.3090   -0.2980    3.0780 hc        1 UDD      0.064200
     44 HAS2       -1.2340   -1.0170    1.6960 hc        1 UDD      0.064200
     45 HAR1       -0.1370    3.1810    1.4350 hc        1 UDD      0.064200
     46 HAR2        0.3460    2.2650    2.9230 hc        1 UDD      0.064200
     47 HAU1        1.1870   -1.5800    1.6390 h1        1 UDD      0.052700
     48 HAU2        0.6030   -0.7140    0.1430 h1        1 UDD      0.052700
     49 HAT1        1.2980    1.8550    0.0030 h1        1 UDD      0.052700
     50 HAT2        2.2540    2.4780    1.4240 h1        1 UDD      0.052700
     51 HAO         4.0930    1.7940    2.0610 ha        1 UDD      0.156000
     52 HAQ         4.7940   -2.3490   -0.5550 h4        1 UDD      0.040100
     53 HAN         6.4230    1.1410    1.4540 ha        1 UDD      0.157000
@<TRIPOS>BOND
     1    1    2 ar  
     2    1   10 ar  
     3    1   34 1   
     4    2    3 ar  
     5    2   35 1   
     6    3    4 1   
     7    3    8 ar  
     8    4    5 1   
     9    4    6 1   
    10    4    7 1   
    11    8    9 ar  
    12    8   36 1   
    13    9   10 ar  
    14    9   37 1   
    15   10   11 1   
    16   11   12 1   
    17   11   18 1   
    18   12   13 ar  
    19   12   17 ar  
    20   13   14 ar  
    21   13   39 1   
    22   14   15 ar  
    23   14   41 1   
    24   15   16 ar  
    25   15   42 1   
    26   16   17 ar  
    27   17   40 1   
    28   18   19 1   
    29   18   21 1   
    30   18   38 1   
    31   19   20 1   
    32   19   43 1   
    33   19   44 1   
    34   20   23 1   
    35   20   47 1   
    36   20   48 1   
    37   21   22 1   
    38   21   45 1   
    39   21   46 1   
    40   22   23 1   
    41   22   49 1   
    42   22   50 1   
    43   23   24 1   
    44   24   25 ar  
    45   24   33 ar  
    46   25   26 ar  
    47   26   27 ar  
    48   26   52 1   
    49   27   28 1   
    50   27   32 ar  
    51   28   29 1   
    52   28   30 1   
    53   28   31 1   
    54   32   33 ar  
    55   32   53 1   
    56   33   51 1   
@<TRIPOS>SUBSTRUCTURE
     1 UDD         1 TEMP              0 ****  ****    0 ROOT
