@<TRIPOS>MOLECULE
UDD
   53    56     1     0     0
SMALL
bcc


@<TRIPOS>ATOM
      1 CAJ         0.2860   -0.8020    0.1720 ca        1 UDD     -0.203500
      2 CAL         1.6310   -1.1100    0.3000 ca        1 UDD     -0.041000
      3 CAZ         2.2940   -0.8940    1.5110 ca        1 UDD     -0.220300
      4 CBF         3.7730   -1.2160    1.6390 c3        1 UDD      0.694200
      5 FAB         4.6100   -0.1740    1.3140 f         1 UDD     -0.239967
      6 FAC         4.1740   -1.5780    2.9030 f         1 UDD     -0.239967
      7 FAA         4.2070   -2.2480    0.8410 f         1 UDD     -0.239967
      8 CAM         1.5950   -0.3670    2.5960 ca        1 UDD     -0.041000
      9 CAK         0.2470   -0.0500    2.4820 ca        1 UDD     -0.203500
     10 CAX        -0.4480   -0.2650    1.2650 ca        1 UDD      0.214600
     11 NBE        -1.8250   -0.0310    1.1400 nh        1 UDD     -0.565400
     12 CAY        -2.3730    0.0130   -0.1690 ca        1 UDD      0.005300
     13 CAI        -2.0490    1.0220   -1.1030 ca        1 UDD     -0.106000
     14 CAG        -2.6280    0.9860   -2.3710 ca        1 UDD     -0.238300
     15 CAH        -3.5140   -0.0590   -2.6830 ca        1 UDD      0.394200
     16 NAV        -3.8290   -1.0420   -1.8180 nb        1 UDD     -0.660000
     17 CAP        -3.2680   -1.0100   -0.5980 ca        1 UDD      0.399200
     18 CBC        -2.5590    0.5610    2.2510 c3        1 UDD      0.235500
     19 CAS        -2.2280    2.0300    2.5580 c3        1 UDD     -0.098900
     20 CAU        -2.9550    3.0290    1.6640 c3        1 UDD      0.185800
     21 CAR        -4.0840    0.4100    2.1710 c3        1 UDD     -0.098900
     22 CAT        -4.7750    1.4590    1.3060 c3        1 UDD      0.185800
     23 NBD        -4.3970    2.8220    1.6580 nh        1 UDD     -0.733300
     24 CBB        -5.1940    3.8350    1.0630 ca        1 UDD      0.656200
     25 NAW        -4.6030    4.8730    0.3820 nb        1 UDD     -0.719000
     26 CAQ        -5.3850    5.8530   -0.0840 ca        1 UDD      0.481200
     27 CBA        -6.7840    5.8780    0.0660 ca        1 UDD     -0.333600
     28 CBG        -7.6020    7.0130   -0.5170 c3        1 UDD      0.701200
     29 FAE        -6.9410    8.2160   -0.5870 f         1 UDD     -0.237300
     30 FAF        -8.0330    6.7960   -1.8050 f         1 UDD     -0.237300
     31 FAD        -8.7540    7.3000    0.1740 f         1 UDD     -0.237300
     32 CAN        -7.3960    4.8270    0.7560 ca        1 UDD     -0.021000
     33 CAO        -6.6120    3.7980    1.2600 ca        1 UDD     -0.276300
     34 HAJ        -0.2110   -0.9870   -0.7930 ha        1 UDD      0.145500
     35 HAL         2.1820   -1.5340   -0.5560 ha        1 UDD      0.150000
     36 HAM         2.1160   -0.2000    3.5530 ha        1 UDD      0.150000
     37 HAK        -0.2610    0.3690    3.3630 ha        1 UDD      0.145500
     38 HBC        -2.2410   -0.0480    3.1580 h1        1 UDD      0.063700
     39 HAI        -1.3400    1.8230   -0.8430 ha        1 UDD      0.151000
     40 HAP        -3.5410   -1.8440    0.0750 h4        1 UDD      0.034100
     41 HAG        -2.3960    1.7600   -3.1150 ha        1 UDD      0.152000
     42 HAH        -3.9940   -0.1210   -3.6770 h4        1 UDD      0.030100
     43 HAS1       -2.5050    2.2150    3.6300 hc        1 UDD      0.064200
     44 HAS2       -1.1270    2.2200    2.4530 hc        1 UDD      0.064200
     45 HAR1       -4.4700    0.4840    3.2230 hc        1 UDD      0.064200
     46 HAR2       -4.3650   -0.6020    1.7760 hc        1 UDD      0.064200
     47 HAU1       -2.7480    4.0650    2.0570 h1        1 UDD      0.052700
     48 HAU2       -2.5310    2.9610    0.6200 h1        1 UDD      0.052700
     49 HAT1       -4.5340    1.2490    0.2220 h1        1 UDD      0.052700
     50 HAT2       -5.8880    1.3430    1.4390 h1        1 UDD      0.052700
     51 HAO        -7.0810    2.9810    1.8240 ha        1 UDD      0.156000
     52 HAQ        -4.8620    6.6710   -0.6170 h4        1 UDD      0.040100
     53 HAN        -8.4880    4.8240    0.9050 ha        1 UDD      0.157000
@<TRIPOS>BOND
     1    1    2 ar  
     2    1   10 ar  
     3    1   34 1   
     4    2    3 ar  
     5    2   35 1   
     6    3    4 1   
     7    3    8 ar  
     8    4    5 1   
     9    4    6 1   
    10    4    7 1   
    11    8    9 ar  
    12    8   36 1   
    13    9   10 ar  
    14    9   37 1   
    15   10   11 1   
    16   11   12 1   
    17   11   18 1   
    18   12   13 ar  
    19   12   17 ar  
    20   13   14 ar  
    21   13   39 1   
    22   14   15 ar  
    23   14   41 1   
    24   15   16 ar  
    25   15   42 1   
    26   16   17 ar  
    27   17   40 1   
    28   18   19 1   
    29   18   21 1   
    30   18   38 1   
    31   19   20 1   
    32   19   43 1   
    33   19   44 1   
    34   20   23 1   
    35   20   47 1   
    36   20   48 1   
    37   21   22 1   
    38   21   45 1   
    39   21   46 1   
    40   22   23 1   
    41   22   49 1   
    42   22   50 1   
    43   23   24 1   
    44   24   25 ar  
    45   24   33 ar  
    46   25   26 ar  
    47   26   27 ar  
    48   26   52 1   
    49   27   28 1   
    50   27   32 ar  
    51   28   29 1   
    52   28   30 1   
    53   28   31 1   
    54   32   33 ar  
    55   32   53 1   
    56   33   51 1   
@<TRIPOS>SUBSTRUCTURE
     1 UDD         1 TEMP              0 ****  ****    0 ROOT
