@<TRIPOS>MOLECULE
UDD
   54    57     1     0     0
SMALL
bcc


@<TRIPOS>ATOM
      1 CAJ         0.0130    1.3510    0.6010 ca        1 UDD     -0.112000
      2 CAL         1.3800    1.3180    0.8710 ca        1 UDD     -0.059500
      3 CAZ         1.9560    0.1720    1.4240 ca        1 UDD     -0.127300
      4 CBF         3.4560    0.1520    1.7350 c3        1 UDD      0.689200
      5 FAB         3.7530    0.6020    2.9970 f         1 UDD     -0.216300
      6 FAC         4.0220   -1.0950    1.6610 f         1 UDD     -0.216300
      7 FAA         4.2070    0.9340    0.8950 f         1 UDD     -0.216300
      8 CAM         1.1740   -0.9480    1.7080 ca        1 UDD     -0.059500
      9 CAK        -0.1940   -0.9310    1.4420 ca        1 UDD     -0.112000
     10 CAX        -0.7760    0.2220    0.8900 ca        1 UDD     -0.003400
     11 NBE        -2.2220    0.2680    0.5910 n4        1 UDD     -0.432200
     12 CAY        -2.5980   -0.7910   -0.3540 ca        1 UDD     -0.161700
     13 CAI        -2.6450   -0.5030   -1.7350 ca        1 UDD     -0.067000
     14 CAG        -2.9860   -1.5250   -2.6170 ca        1 UDD     -0.216300
     15 CAH        -3.2670   -2.8060   -2.0990 ca        1 UDD      0.450200
     16 NAV        -3.2280   -3.0910   -0.7840 nb        1 UDD     -0.627000
     17 CAP        -2.9020   -2.1100    0.0720 ca        1 UDD      0.434200
     18 CBC        -3.0550    0.2620    1.8680 c3        1 UDD      0.144500
     19 CAS        -2.7030    1.4510    2.7660 c3        1 UDD     -0.107900
     20 CAU        -3.1680    2.7800    2.1750 c3        1 UDD      0.155800
     21 CAR        -4.5540    0.3060    1.5660 c3        1 UDD     -0.107900
     22 CAT        -4.9850    1.6520    0.9890 c3        1 UDD      0.155800
     23 NBD        -4.5840    2.7790    1.8240 nh        1 UDD     -0.714300
     24 CBB        -5.0080    4.0470    1.2650 ca        1 UDD      0.576200
     25 NAW        -4.4790    4.4860    0.0790 nb        1 UDD     -0.717000
     26 CAQ        -4.9020    5.6630   -0.3940 ca        1 UDD      0.461200
     27 CBA        -5.8570    6.4670    0.2650 ca        1 UDD     -0.279600
     28 CBG        -6.2690    7.8040   -0.3360 c3        1 UDD      0.696200
     29 FAE        -5.4580    8.8490    0.0320 f         1 UDD     -0.224633
     30 FAF        -6.2570    7.8260   -1.7090 f         1 UDD     -0.224633
     31 FAD        -7.5340    8.2090    0.0090 f         1 UDD     -0.224633
     32 CAN        -6.3960    6.0190    1.4690 ca        1 UDD     -0.035000
     33 CAO        -5.9730    4.7920    1.9860 ca        1 UDD     -0.203300
     34 HAJ        -0.4240    2.2660    0.1670 ha        1 UDD      0.162500
     35 HAL         2.0090    2.1970    0.6410 ha        1 UDD      0.186000
     36 HAM         1.6410   -1.8540    2.1360 ha        1 UDD      0.186000
     37 HAK        -0.7950   -1.8290    1.6600 ha        1 UDD      0.162500
     38 HBC        -2.7970   -0.6980    2.4050 hx        1 UDD      0.099700
     39 HAI        -2.4210    0.5040   -2.1240 ha        1 UDD      0.162000
     40 HAP        -2.8950   -2.4040    1.1390 h4        1 UDD      0.041100
     41 HAG        -3.0340   -1.3390   -3.7010 ha        1 UDD      0.182000
     42 HAH        -3.5370   -3.6480   -2.7680 h4        1 UDD      0.064100
     43 HAS1       -3.2100    1.2720    3.7540 hc        1 UDD      0.091950
     44 HAS2       -1.6000    1.5070    2.9570 hc        1 UDD      0.091950
     45 HAR1       -5.0870    0.1170    2.5390 hc        1 UDD      0.091950
     46 HAR2       -4.8530   -0.5070    0.8550 hc        1 UDD      0.091950
     47 HAU1       -2.5030    3.0390    1.2990 h1        1 UDD      0.057450
     48 HAU2       -3.0230    3.5850    2.9520 h1        1 UDD      0.057450
     49 HAT1       -4.5970    1.7360   -0.0680 h1        1 UDD      0.057450
     50 HAT2       -6.1120    1.6690    0.9320 h1        1 UDD      0.057450
     51 HAO        -6.3830    4.4150    2.9360 ha        1 UDD      0.174000
     52 HAQ        -4.4620    5.9910   -1.3580 h4        1 UDD      0.050100
     53 HAN        -7.1500    6.6220    2.0040 ha        1 UDD      0.175000
     54 HBE1       -2.4160    1.1720    0.1250 hn        1 UDD      0.457800
@<TRIPOS>BOND
     1    1    2 ar  
     2    1   10 ar  
     3    1   34 1   
     4    2    3 ar  
     5    2   35 1   
     6    3    4 1   
     7    3    8 ar  
     8    4    5 1   
     9    4    6 1   
    10    4    7 1   
    11    8    9 ar  
    12    8   36 1   
    13    9   10 ar  
    14    9   37 1   
    15   10   11 1   
    16   11   12 1   
    17   11   18 1   
    18   11   54 1   
    19   12   13 ar  
    20   12   17 ar  
    21   13   14 ar  
    22   13   39 1   
    23   14   15 ar  
    24   14   41 1   
    25   15   16 ar  
    26   15   42 1   
    27   16   17 ar  
    28   17   40 1   
    29   18   19 1   
    30   18   21 1   
    31   18   38 1   
    32   19   20 1   
    33   19   43 1   
    34   19   44 1   
    35   20   23 1   
    36   20   47 1   
    37   20   48 1   
    38   21   22 1   
    39   21   45 1   
    40   21   46 1   
    41   22   23 1   
    42   22   49 1   
    43   22   50 1   
    44   23   24 1   
    45   24   25 ar  
    46   24   33 ar  
    47   25   26 ar  
    48   26   27 ar  
    49   26   52 1   
    50   27   28 1   
    51   27   32 ar  
    52   28   29 1   
    53   28   30 1   
    54   28   31 1   
    55   32   33 ar  
    56   32   53 1   
    57   33   51 1   
@<TRIPOS>SUBSTRUCTURE
     1 UDD         1 TEMP              0 ****  ****    0 ROOT
