@<TRIPOS>MOLECULE
UDD
   53    49     1     0     0
SMALL
bcc


@<TRIPOS>ATOM
      1 CAJ         2.6720   -0.0920   -0.2800 c1        1 UDD     -0.118500
      2 CAL         4.0420    0.1020   -0.3570 c1        1 UDD     -0.118500
      3 CAZ         4.9080   -0.8920    0.0700 c1        1 UDD     -0.236500
      4 CBF         6.4020   -0.6700    0.0090 c3        1 UDD      0.476500
      5 FAB         6.8250   -0.1590    1.1720 f         1 UDD     -0.167333
      6 FAC         7.0180   -1.8380   -0.2140 f         1 UDD     -0.167333
      7 FAA         6.6870    0.1810   -0.9830 f         1 UDD     -0.167333
      8 CAM         4.4040   -2.0800    0.5740 c1        1 UDD     -0.031500
      9 CAK         3.0350   -2.2750    0.6520 c1        1 UDD     -0.209000
     10 CAX         2.1680   -1.2800    0.2240 c1        1 UDD      0.130000
     11 NBE         0.7680   -1.4840    0.2930 n3        1 UDD     -0.245000
     12 CAY         0.0420   -1.8130   -0.8870 c2        1 UDD     -0.013000
     13 CAI        -0.3480   -3.1030   -1.1090 c2        1 UDD     -0.106000
     14 CAG        -0.9430   -3.4410   -2.2910 c1        1 UDD     -0.177000
     15 CAH        -1.1500   -2.4760   -3.2640 c1        1 UDD     -0.068000
     16 NAV        -0.7600   -1.1890   -3.0410 n1        1 UDD     -0.133000
     17 CAP        -0.1670   -0.8490   -1.8620 c1        1 UDD     -0.061000
     18 CBC         0.0980   -1.5420    1.6070 c3        1 UDD      0.036000
     19 CAS         0.3310   -0.2610    2.3230 c3        1 UDD     -0.170000
     20 CAU        -0.3940    0.8990    1.6770 c3        1 UDD     -0.048500
     21 CAR        -1.3360   -1.8130    1.4000 c3        1 UDD     -0.170000
     22 CAT        -2.0560   -0.6460    0.7590 c3        1 UDD     -0.048500
     23 NBD        -1.8180    0.6220    1.4680 n3        1 UDD     -0.227000
     24 CBB        -2.4070    1.6920    0.7390 c2        1 UDD      0.136000
     25 NAW        -1.7690    2.2060   -0.3510 n2        1 UDD     -0.190000
     26 CAQ        -2.2920    3.2830   -1.0040 c1        1 UDD      0.017000
     27 CBA        -3.4730    3.8570   -0.5590 c1        1 UDD     -0.236500
     28 CBG        -4.0680    5.0380   -1.3010 c3        1 UDD      0.476500
     29 FAE        -3.2120    5.4500   -2.2420 f         1 UDD     -0.167333
     30 FAF        -5.2200    4.6700   -1.8750 f         1 UDD     -0.167333
     31 FAD        -4.2980    6.0370   -0.4380 f         1 UDD     -0.167333
     32 CAN        -4.1130    3.3430    0.5320 c1        1 UDD     -0.031500
     33 CAO        -3.5890    2.2650    1.1850 c1        1 UDD     -0.214000
     34 HAJ         2.0610    0.6080   -0.5810 ha        1 UDD      0.150000
     35 HAL         4.3960    0.9390   -0.7120 ha        1 UDD      0.150000
     36 HAM         5.0140   -2.7810    0.8750 ha        1 UDD      0.152000
     37 HAK         2.6800   -3.1120    1.0070 ha        1 UDD      0.142000
     38 HBC         0.4860   -2.2710    2.1280 h1        1 UDD      0.084000
     39 HAI        -0.2020   -3.7820   -0.4240 ha        1 UDD      0.147000
     40 HAP         0.1110    0.0720   -1.7040 ha        1 UDD      0.177000
     41 HAG        -1.2220   -4.3630   -2.4510 ha        1 UDD      0.150000
     42 HAH        -1.5750   -2.7180   -4.1090 ha        1 UDD      0.167000
     43 HAS1        0.0220   -0.3530    3.2460 hc        1 UDD      0.101750
     44 HAS2        1.2920   -0.0710    2.3270 hc        1 UDD      0.101750
     45 HAR1       -1.7500   -2.0030    2.2660 hc        1 UDD      0.101750
     46 HAR2       -1.4300   -2.5970    0.8250 hc        1 UDD      0.101750
     47 HAU1        0.0220    1.0890    0.8120 h1        1 UDD      0.093500
     48 HAU2       -0.3060    1.6860    2.2520 h1        1 UDD      0.093500
     49 HAT1       -1.7480   -0.5540   -0.1660 h1        1 UDD      0.093500
     50 HAT2       -3.0150   -0.8300    0.7550 h1        1 UDD      0.093500
     51 HAO        -4.0460    1.8970    1.9650 ha        1 UDD      0.154000
     52 HAQ        -1.8340    3.6490   -1.7830 ha        1 UDD      0.177000
     53 HAN        -4.9460    3.7470    0.8450 ha        1 UDD      0.152000
@<TRIPOS>BOND
     1    1    2 1   
     2    1   34 1   
     3    2   35 1   
     4    3    4 1   
     5    3    8 1   
     6    4    5 1   
     7    4    6 1   
     8    4    7 1   
     9    8   36 1   
    10    9   10 1   
    11    9   37 1   
    12   10   11 1   
    13   11   12 1   
    14   11   18 1   
    15   12   13 1   
    16   12   17 1   
    17   13   14 1   
    18   13   39 1   
    19   14   41 1   
    20   15   16 1   
    21   15   42 1   
    22   17   40 1   
    23   18   19 1   
    24   18   21 1   
    25   18   38 1   
    26   19   20 1   
    27   19   43 1   
    28   19   44 1   
    29   20   23 1   
    30   20   47 1   
    31   20   48 1   
    32   21   22 1   
    33   21   45 1   
    34   21   46 1   
    35   22   23 1   
    36   22   49 1   
    37   22   50 1   
    38   23   24 1   
    39   24   25 1   
    40   24   33 1   
    41   25   26 1   
    42   26   52 1   
    43   27   28 1   
    44   27   32 1   
    45   28   29 1   
    46   28   30 1   
    47   28   31 1   
    48   32   53 1   
    49   33   51 1   
@<TRIPOS>SUBSTRUCTURE
     1 UDD         1 TEMP              0 ****  ****    0 ROOT
