@<TRIPOS>MOLECULE
UDH
   58    59     1     0     0
SMALL
bcc


@<TRIPOS>ATOM
      1 N1         -0.4450    0.7610   -0.7570 n         1 UDH     -0.378000
      2 C2          0.8770    0.2400   -0.7420 c         1 UDH      0.811500
      3 N3          1.2240   -0.6690    0.2720 ns        1 UDH     -0.591500
      4 C4          0.3410   -1.0470    1.3000 c         1 UDH      0.717700
      5 C5         -0.9890   -0.4360    1.2610 cc        1 UDH     -0.335200
      6 C6         -1.3150    0.4370    0.2710 cd        1 UDH      0.065600
      7 O2          1.7190    0.5440   -1.6140 o         1 UDH     -0.647500
      8 O4          0.7360   -1.8570    2.1580 o         1 UDH     -0.633500
      9 C1B        -0.7980    1.7780   -1.7490 c3        1 UDH      0.257500
     10 C2B        -2.0740    1.4110   -2.5780 c3        1 UDH      0.112100
     11 O2'        -1.7790    1.5310   -3.9480 oh        1 UDH     -0.584800
     12 C3B        -3.1610    2.3780   -2.0620 c3        1 UDH      0.111100
     13 C4B        -2.4170    3.4250   -1.2080 c3        1 UDH      0.061100
     14 O4'        -1.0370    3.0300   -1.1060 os        1 UDH     -0.419600
     15 O3'        -3.7800    2.9850   -3.1730 oh        1 UDH     -0.631800
     16 C5B        -2.9940    3.6010    0.2080 c3        1 UDH      0.199400
     17 O5'        -3.8190    4.7170    0.2850 os        1 UDH     -0.588200
     18 PA         -5.4510    4.4340    0.1750 p5        1 UDH      1.595800
     19 O1A        -5.9950    4.1780    1.5040 o         1 UDH     -0.844000
     20 O2A        -5.5770    3.5980   -1.0330 o         1 UDH     -0.844000
     21 O3A        -5.8220    6.0000   -0.2840 os        1 UDH     -0.810800
     22 PB         -6.0890    7.4700   -0.7560 p5        1 UDH      1.785500
     23 O1B        -4.9820    8.2570    0.0760 oh        1 UDH     -0.772400
     24 O2B        -5.4050    7.5080   -2.2160 os        1 UDH     -0.596200
     25 O3B        -7.4400    8.0010   -0.7500 o         1 UDH     -0.844300
     26 C1'        -6.2060    6.9350   -3.2270 c3        1 UDH      0.162400
     27 C2'        -5.4740    6.9810   -4.5560 c3        1 UDH     -0.080400
     28 C3'        -5.6620    8.2820   -5.3060 c3        1 UDH     -0.070400
     29 C4'        -4.8550    9.4090   -4.6990 c3        1 UDH     -0.082400
     30 C5'        -5.0560   10.7010   -5.4610 c3        1 UDH     -0.079400
     31 C6'        -4.2740   11.8320   -4.7950 c3        1 UDH      0.152800
     32 N6'        -4.3510   13.0860   -5.5080 n8        1 UDH     -0.914800
     33 HN3         2.1510   -1.0320    0.2550 hn        1 UDH      0.343500
     34 H5         -1.6870   -0.7080    2.0620 ha        1 UDH      0.178000
     35 H6         -2.3020    0.9420    0.2220 h4        1 UDH      0.177000
     36 H1'         0.0960    1.9330   -2.4250 h2        1 UDH      0.130700
     37 H2'        -2.3780    0.3400   -2.4380 h1        1 UDH      0.084700
     38 HO2'       -1.9780    2.4370   -4.2230 ho        1 UDH      0.430000
     39 H3'        -3.9210    1.8200   -1.4520 h1        1 UDH      0.083700
     40 H4'        -2.4060    4.4220   -1.7320 h1        1 UDH      0.097700
     41 HO3'       -4.6450    3.3120   -2.8620 ho        1 UDH      0.480000
     42 H5'1       -2.1370    3.7600    0.9220 h1        1 UDH      0.026700
     43 H5'2       -3.5670    2.6820    0.5150 h1        1 UDH      0.026700
     44 H1'1       -7.1760    7.5030   -3.2630 h1        1 UDH      0.045200
     45 H1'2       -6.4080    5.8650   -2.9360 h1        1 UDH      0.045200
     46 H2'1       -4.3820    6.8030   -4.3730 hc        1 UDH      0.051200
     47 H2'2       -5.8590    6.1380   -5.1890 hc        1 UDH      0.051200
     48 H3'1       -6.7490    8.5610   -5.3160 hc        1 UDH      0.031200
     49 H3'2       -5.3480    8.1350   -6.3740 hc        1 UDH      0.031200
     50 H4'1       -5.1570    9.5400   -3.6250 hc        1 UDH      0.054200
     51 H4'2       -3.7670    9.1340   -4.7000 hc        1 UDH      0.054200
     52 H5B        -6.1460   10.9610   -5.4910 hc        1 UDH      0.039200
     53 H5D        -4.7160   10.5680   -6.5220 hc        1 UDH      0.039200
     54 H6'1       -3.2070   11.4840   -4.6560 h1        1 UDH      0.028700
     55 H6'2       -4.7000   12.0050   -3.7650 h1        1 UDH      0.028700
     56 HN'1       -4.1200   12.9620   -6.4740 hn        1 UDH      0.340300
     57 HN'2       -3.7190   13.7490   -5.1060 hn        1 UDH      0.340300
     58 H6'3       -4.1960    7.7620    0.2970 ho        1 UDH      0.479000
@<TRIPOS>BOND
     1    1    2 1   
     2    1    6 1   
     3    1    9 1   
     4    2    3 1   
     5    2    7 2   
     6    3    4 1   
     7    3   33 1   
     8    4    5 1   
     9    4    8 2   
    10    5    6 2   
    11    5   34 1   
    12    6   35 1   
    13    9   10 1   
    14    9   14 1   
    15    9   36 1   
    16   10   11 1   
    17   10   12 1   
    18   10   37 1   
    19   11   38 1   
    20   12   13 1   
    21   12   15 1   
    22   12   39 1   
    23   13   14 1   
    24   13   16 1   
    25   13   40 1   
    26   15   41 1   
    27   16   17 1   
    28   16   42 1   
    29   16   43 1   
    30   17   18 1   
    31   18   19 1   
    32   18   20 1   
    33   18   21 1   
    34   21   22 1   
    35   22   23 1   
    36   22   24 1   
    37   22   25 2   
    38   23   58 1   
    39   24   26 1   
    40   26   27 1   
    41   26   44 1   
    42   26   45 1   
    43   27   28 1   
    44   27   46 1   
    45   27   47 1   
    46   28   29 1   
    47   28   48 1   
    48   28   49 1   
    49   29   30 1   
    50   29   50 1   
    51   29   51 1   
    52   30   31 1   
    53   30   52 1   
    54   30   53 1   
    55   31   32 1   
    56   31   54 1   
    57   31   55 1   
    58   32   56 1   
    59   32   57 1   
@<TRIPOS>SUBSTRUCTURE
     1 UDH         1 TEMP              0 ****  ****    0 ROOT
