@<TRIPOS>MOLECULE
UDH
   57    58     1     0     0
SMALL
bcc


@<TRIPOS>ATOM
      1 N1          4.9310   -0.1320   -0.3150 n         1 UDH     -0.374000
      2 C2          6.1920   -0.7140   -0.5900 c         1 UDH      0.805500
      3 N3          6.3380   -1.4800   -1.7570 n         1 UDH     -0.596500
      4 C4          5.2710   -1.7380   -2.6430 c         1 UDH      0.718700
      5 C5          3.9850   -1.1600   -2.2730 cc        1 UDH     -0.344200
      6 C6          3.8490   -0.4110   -1.1430 cd        1 UDH      0.067600
      7 O2          7.1940   -0.5390    0.1480 o         1 UDH     -0.691500
      8 O4          5.5160   -2.4200   -3.6580 o         1 UDH     -0.666500
      9 C1B         4.7790    0.6240    0.9280 c3        1 UDH      0.267500
     10 C2B         4.1520    2.0430    0.7140 c3        1 UDH      0.120100
     11 O2'         4.9580    3.0010    1.3640 oh        1 UDH     -0.599800
     12 C3B         2.7300    1.9100    1.2780 c3        1 UDH      0.063100
     13 C4B         2.7240    0.6130    2.1080 c3        1 UDH      0.073100
     14 O4'         3.9610   -0.0820    1.8640 os        1 UDH     -0.421600
     15 O3'         2.4500    3.0320    2.0980 oh        1 UDH     -0.629800
     16 C5B         1.5300   -0.3030    1.7780 c3        1 UDH      0.196400
     17 O5'         0.3850    0.4690    1.6410 os        1 UDH     -0.593200
     18 PA         -0.3240    0.4910    0.1250 p5        1 UDH      1.612800
     19 O1A        -1.3180    1.5750    0.1760 o         1 UDH     -0.887500
     20 O2A         0.8800    0.5530   -0.7490 o         1 UDH     -0.887500
     21 O3A        -0.9910   -0.9650    0.0810 os        1 UDH     -0.822800
     22 PB         -1.6940   -2.4530    0.0420 p5        1 UDH      1.587800
     23 O1B        -2.3820   -2.6030   -1.2540 o         1 UDH     -0.866000
     24 O2B        -2.8900   -2.1850    1.1590 os        1 UDH     -0.586200
     25 O3B        -0.7810   -3.4440    0.6340 o         1 UDH     -0.866000
     26 C1'        -3.8860   -1.2860    0.7960 c3        1 UDH      0.203400
     27 C2'        -5.2500   -1.9770    0.8000 c3        1 UDH     -0.105400
     28 C3'        -6.3490   -0.9840    0.4980 c3        1 UDH     -0.076400
     29 C4'        -7.7110   -1.6450    0.4910 c3        1 UDH     -0.074400
     30 C5'        -8.8030   -0.6500    0.1650 c3        1 UDH     -0.118400
     31 C6'       -10.1760   -1.3200    0.1790 c3        1 UDH      0.140800
     32 N6'       -11.3040   -0.4730   -0.1310 n3        1 UDH     -0.907800
     33 HN3         7.2330   -1.8790   -1.9260 hn        1 UDH      0.327500
     34 H5          3.1260   -1.3690   -2.9240 ha        1 UDH      0.192000
     35 H6          2.8530    0.0250   -0.8450 h4        1 UDH      0.275000
     36 H1'         5.7980    0.7080    1.4120 h2        1 UDH      0.110700
     37 H2'         4.1400    2.3500   -0.3650 h1        1 UDH      0.094700
     38 HO2'        4.6470    3.0750    2.2760 ho        1 UDH      0.416000
     39 H3'         1.9730    1.8280    0.4350 h1        1 UDH      0.149700
     40 H4'         2.7290    0.8560    3.2060 h1        1 UDH      0.049700
     41 HO3'        1.5000    2.9820    2.2780 ho        1 UDH      0.438000
     42 H5'1        1.7420   -0.8860    0.8390 h1        1 UDH      0.044200
     43 H5'2        1.3920   -1.0180    2.6350 h1        1 UDH      0.044200
     44 H1'1       -3.9060   -0.4460    1.5490 h1        1 UDH      0.027200
     45 H1'2       -3.6790   -0.8610   -0.2260 h1        1 UDH      0.027200
     46 H2'1       -5.2490   -2.7950    0.0340 hc        1 UDH      0.038200
     47 H2'2       -5.4210   -2.4530    1.7990 hc        1 UDH      0.038200
     48 H3'1       -6.3360   -0.1620    1.2620 hc        1 UDH      0.037700
     49 H3'2       -6.1560   -0.5090   -0.5010 hc        1 UDH      0.037700
     50 H4'1       -7.7200   -2.4750   -0.2650 hc        1 UDH      0.034700
     51 H4'2       -7.9100   -2.1080    1.4930 hc        1 UDH      0.034700
     52 H5B        -8.7800    0.1880    0.9110 hc        1 UDH      0.036700
     53 H5D        -8.6070   -0.2010   -0.8440 hc        1 UDH      0.036700
     54 H6'1      -10.1710   -2.1700   -0.5610 h1        1 UDH      0.047700
     55 H6'2      -10.3510   -1.7630    1.2000 h1        1 UDH      0.047700
     56 HN'1      -11.3490    0.2930    0.5140 hn        1 UDH      0.334800
     57 HN'2      -11.2100   -0.0940   -1.0540 hn        1 UDH      0.334800
@<TRIPOS>BOND
     1    1    2 1   
     2    1    6 1   
     3    1    9 1   
     4    2    3 1   
     5    2    7 2   
     6    3    4 1   
     7    3   33 1   
     8    4    5 1   
     9    4    8 2   
    10    5    6 2   
    11    5   34 1   
    12    6   35 1   
    13    9   10 1   
    14    9   14 1   
    15    9   36 1   
    16   10   11 1   
    17   10   12 1   
    18   10   37 1   
    19   11   38 1   
    20   12   13 1   
    21   12   15 1   
    22   12   39 1   
    23   13   14 1   
    24   13   16 1   
    25   13   40 1   
    26   15   41 1   
    27   16   17 1   
    28   16   42 1   
    29   16   43 1   
    30   17   18 1   
    31   18   19 1   
    32   18   20 1   
    33   18   21 1   
    34   21   22 1   
    35   22   23 1   
    36   22   24 1   
    37   22   25 1   
    38   24   26 1   
    39   26   27 1   
    40   26   44 1   
    41   26   45 1   
    42   27   28 1   
    43   27   46 1   
    44   27   47 1   
    45   28   29 1   
    46   28   48 1   
    47   28   49 1   
    48   29   30 1   
    49   29   50 1   
    50   29   51 1   
    51   30   31 1   
    52   30   52 1   
    53   30   53 1   
    54   31   32 1   
    55   31   54 1   
    56   31   55 1   
    57   32   56 1   
    58   32   57 1   
@<TRIPOS>SUBSTRUCTURE
     1 UDH         1 TEMP              0 ****  ****    0 ROOT
