@<TRIPOS>MOLECULE
UDH
   58    59     1     0     0
SMALL
bcc


@<TRIPOS>ATOM
      1 N1         -0.4030    0.7810   -0.8020 n         1 UDH     -0.378000
      2 C2          0.9240    0.2760   -0.7900 c         1 UDH      0.811500
      3 N3          1.2790   -0.6420    0.2130 n         1 UDH     -0.591500
      4 C4          0.3980   -1.0440    1.2340 c         1 UDH      0.717700
      5 C5         -0.9390   -0.4480    1.1990 cc        1 UDH     -0.335200
      6 C6         -1.2720    0.4340    0.2190 cd        1 UDH      0.065600
      7 O2          1.7660    0.6020   -1.6550 o         1 UDH     -0.647500
      8 O4          0.8010   -1.8600    2.0820 o         1 UDH     -0.633500
      9 C1B        -0.7660    1.8080   -1.7820 c3        1 UDH      0.257500
     10 C2B        -2.0340    1.4360   -2.6190 c3        1 UDH      0.112100
     11 O2'        -1.7370    1.5770   -3.9860 oh        1 UDH     -0.584800
     12 C3B        -3.1350    2.3830   -2.0940 c3        1 UDH      0.111100
     13 C4B        -2.4050    3.4280   -1.2240 c3        1 UDH      0.061100
     14 O4'        -1.0210    3.0480   -1.1230 os        1 UDH     -0.419600
     15 O3'        -3.7580    2.9970   -3.1990 oh        1 UDH     -0.631800
     16 C5B        -2.9890    3.5790    0.1920 c3        1 UDH      0.199400
     17 O5'        -3.8270    4.6840    0.2810 os        1 UDH     -0.588200
     18 PA         -5.4550    4.3830    0.1620 p5        1 UDH      1.595800
     19 O1A        -6.0010    4.1060    1.4860 o         1 UDH     -0.844000
     20 O2A        -5.5670    3.5600   -1.0560 o         1 UDH     -0.844000
     21 O3A        -5.8420    5.9500   -0.2800 os        1 UDH     -0.810800
     22 PB         -6.1240    7.4220   -0.7380 p5        1 UDH      1.785500
     23 O1B        -5.0300    8.2130    0.1090 oh        1 UDH     -0.772400
     24 O2B        -5.4340    7.4840   -2.1930 os        1 UDH     -0.596200
     25 O3B        -7.4820    7.9380   -0.7330 o         1 UDH     -0.844300
     26 C1'        -6.2230    6.9140   -3.2140 c3        1 UDH      0.162400
     27 C2'        -5.4850    6.9830   -4.5390 c3        1 UDH     -0.080400
     28 C3'        -5.6810    8.2910   -5.2750 c3        1 UDH     -0.070400
     29 C4'        -4.8870    9.4180   -4.6510 c3        1 UDH     -0.082400
     30 C5'        -5.0960   10.7170   -5.3990 c3        1 UDH     -0.079400
     31 C6'        -4.3270   11.8470   -4.7150 c3        1 UDH      0.152800
     32 N6'        -4.4120   13.1090   -5.4140 n3        1 UDH     -0.914800
     33 HN3         2.2110   -0.9930    0.1940 hn        1 UDH      0.343500
     34 H5         -1.6350   -0.7380    1.9940 ha        1 UDH      0.178000
     35 H6         -2.2650    0.9280    0.1740 h4        1 UDH      0.177000
     36 H1'         0.1290    1.9820   -2.4530 h2        1 UDH      0.130700
     37 H2'        -2.3270    0.3590   -2.4940 h1        1 UDH      0.084700
     38 HO2'       -1.9460    2.4840   -4.2500 ho        1 UDH      0.430000
     39 H3'        -3.8900    1.8080   -1.4930 h1        1 UDH      0.083700
     40 H4'        -2.4050    4.4310   -1.7360 h1        1 UDH      0.097700
     41 HO3'       -4.6270    3.3090   -2.8860 ho        1 UDH      0.480000
     42 H5'1       -2.1360    3.7380    0.9110 h1        1 UDH      0.026700
     43 H5'2       -3.5520    2.6480    0.4850 h1        1 UDH      0.026700
     44 H1'1       -7.1990    7.4710   -3.2490 h1        1 UDH      0.045200
     45 H1'2       -6.4150    5.8390   -2.9370 h1        1 UDH      0.045200
     46 H2'1       -5.8590    6.1440   -5.1840 hc        1 UDH      0.051200
     47 H2'2       -4.3920    6.8120   -4.3530 hc        1 UDH      0.051200
     48 H3'1       -6.7700    8.5610   -5.2860 hc        1 UDH      0.031200
     49 H3'2       -5.3620    8.1600   -6.3430 hc        1 UDH      0.031200
     50 H4'1       -3.7970    9.1520   -4.6510 hc        1 UDH      0.054200
     51 H4'2       -5.1940    9.5340   -3.5770 hc        1 UDH      0.054200
     52 H5B        -4.7500   10.6000   -6.4600 hc        1 UDH      0.039200
     53 H5D        -6.1880   10.9680   -5.4290 hc        1 UDH      0.039200
     54 H6'1       -3.2570   11.5060   -4.5770 h1        1 UDH      0.028700
     55 H6'2       -4.7580   12.0040   -3.6850 h1        1 UDH      0.028700
     56 HN'1       -4.2400    7.7250    0.3280 ho        1 UDH      0.479000
     57 HN'2       -4.1760   12.9990   -6.3800 hn        1 UDH      0.340300
     58 H6'3       -3.7870   13.7720   -5.0010 hn        1 UDH      0.340300
@<TRIPOS>BOND
     1    1    2 1   
     2    1    6 1   
     3    1    9 1   
     4    2    3 1   
     5    2    7 2   
     6    3    4 1   
     7    3   33 1   
     8    4    5 1   
     9    4    8 2   
    10    5    6 2   
    11    5   34 1   
    12    6   35 1   
    13    9   10 1   
    14    9   14 1   
    15    9   36 1   
    16   10   11 1   
    17   10   12 1   
    18   10   37 1   
    19   11   38 1   
    20   12   13 1   
    21   12   15 1   
    22   12   39 1   
    23   13   14 1   
    24   13   16 1   
    25   13   40 1   
    26   15   41 1   
    27   16   17 1   
    28   16   42 1   
    29   16   43 1   
    30   17   18 1   
    31   18   19 1   
    32   18   20 1   
    33   18   21 1   
    34   21   22 1   
    35   22   23 1   
    36   22   24 1   
    37   22   25 2   
    38   23   56 1   
    39   24   26 1   
    40   26   27 1   
    41   26   44 1   
    42   26   45 1   
    43   27   28 1   
    44   27   46 1   
    45   27   47 1   
    46   28   29 1   
    47   28   48 1   
    48   28   49 1   
    49   29   30 1   
    50   29   50 1   
    51   29   51 1   
    52   30   31 1   
    53   30   52 1   
    54   30   53 1   
    55   31   32 1   
    56   31   54 1   
    57   31   55 1   
    58   32   57 1   
    59   32   58 1   
@<TRIPOS>SUBSTRUCTURE
     1 UDH         1 TEMP              0 ****  ****    0 ROOT
