@<TRIPOS>MOLECULE
UDO
   53    56     1     0     0
SMALL
bcc


@<TRIPOS>ATOM
      1 CAM         0.2260   -0.4030    0.2070 ca        1 UDO     -0.185000
      2 CAO         1.6050   -0.4860    0.3360 ca        1 UDO     -0.051000
      3 CBB         2.2040   -0.3960    1.5950 ca        1 UDO     -0.207300
      4 CBF         3.7160   -0.4720    1.7250 c3        1 UDO      0.692200
      5 FAC         4.3540    0.7430    1.6320 f         1 UDO     -0.239300
      6 FAD         4.1640   -0.9900    2.9170 f         1 UDO     -0.239300
      7 FAB         4.3350   -1.2440    0.7710 f         1 UDO     -0.239300
      8 CAP         1.4110   -0.2210    2.7280 ca        1 UDO     -0.051000
      9 CAN         0.0280   -0.1410    2.6120 ca        1 UDO     -0.185000
     10 CBA        -0.6010   -0.2240    1.3460 ca        1 UDO      0.179600
     11 NBE        -1.9920   -0.0510    1.1880 nh        1 UDO     -0.643000
     12 CAU        -2.7490    0.3040    2.3760 c3        1 UDO      0.165300
     13 CAS        -4.2200    0.6720    2.0690 c3        1 UDO      0.080000
     14 CAT        -2.6660   -0.9980    0.3140 c3        1 UDO      0.165300
     15 CAR        -4.1320   -0.5960    0.0260 c3        1 UDO      0.080000
     16 NBD        -4.8840   -0.2930    1.2180 n         1 UDO     -0.461800
     17 CAW        -5.9080   -1.0820    1.7320 c         1 UDO      0.663100
     18 OAA        -6.4330   -0.7610    2.8160 o         1 UDO     -0.595100
     19 CBC        -6.4140   -2.2820    0.9210 c3        1 UDO     -0.023100
     20 CAY        -7.1680   -3.2550    1.7790 ca        1 UDO     -0.084300
     21 CAK        -6.7620   -4.5950    1.8060 ca        1 UDO     -0.096500
     22 CAI        -7.4550   -5.5310    2.5710 ca        1 UDO     -0.127500
     23 CAX        -8.5640   -5.1240    3.3190 ca        1 UDO      0.025400
     24 ClA        -9.4140   -6.2630    4.2520 cl        1 UDO     -0.091400
     25 CAJ        -8.9760   -3.7890    3.3050 ca        1 UDO     -0.127500
     26 CAL        -8.2780   -2.8610    2.5350 ca        1 UDO     -0.096500
     27 CAZ        -7.2470   -1.8120   -0.2270 ca        1 UDO     -0.204600
     28 CAH        -7.1610   -2.4400   -1.4760 ca        1 UDO     -0.088000
     29 CAF        -7.9660   -1.9860   -2.5210 ca        1 UDO     -0.245300
     30 CAG        -8.8370   -0.9080   -2.2790 ca        1 UDO      0.400200
     31 NAV        -8.9340   -0.2870   -1.0870 nb        1 UDO     -0.657000
     32 CAQ        -8.1520   -0.7360   -0.0880 ca        1 UDO      0.410200
     33 HAM        -0.2100   -0.4570   -0.8010 ha        1 UDO      0.142500
     34 HAO         2.2330   -0.6250   -0.5590 ha        1 UDO      0.150500
     35 HAP         1.8830   -0.1570    3.7220 ha        1 UDO      0.150500
     36 HAN        -0.5630   -0.0150    3.5320 ha        1 UDO      0.142500
     37 HAU1       -2.7370   -0.5320    3.1350 h1        1 UDO      0.049700
     38 HAU2       -2.2690    1.2110    2.8400 h1        1 UDO      0.049700
     39 HAT1       -2.6500   -2.0360    0.7560 h1        1 UDO      0.049700
     40 HAT2       -2.1310   -1.0320   -0.6750 h1        1 UDO      0.049700
     41 HAS1       -4.7660    0.7650    3.0500 h1        1 UDO      0.071700
     42 HAS2       -4.2480    1.6690    1.5450 h1        1 UDO      0.071700
     43 HAR1       -4.1310    0.3330   -0.6170 h1        1 UDO      0.071700
     44 HAR2       -4.6120   -1.4200   -0.5690 h1        1 UDO      0.071700
     45 HBC        -5.5120   -2.8330    0.5150 hc        1 UDO      0.070700
     46 HAK        -5.8890   -4.9220    1.2210 ha        1 UDO      0.143000
     47 HAL        -8.5870   -1.8020    2.5380 ha        1 UDO      0.143000
     48 HAI        -7.1280   -6.5810    2.5850 ha        1 UDO      0.150000
     49 HAJ        -9.8450   -3.4670    3.8990 ha        1 UDO      0.150000
     50 HAH        -6.4730   -3.2840   -1.6300 ha        1 UDO      0.137000
     51 HAQ        -8.2490   -0.2080    0.8810 h4        1 UDO      0.038100
     52 HAF        -7.9270   -2.4580   -3.5110 ha        1 UDO      0.147000
     53 HAG        -9.4930   -0.5180   -3.0780 h4        1 UDO      0.026100
@<TRIPOS>BOND
     1    1    2 ar  
     2    1   10 ar  
     3    1   33 1   
     4    2    3 ar  
     5    2   34 1   
     6    3    4 1   
     7    3    8 ar  
     8    4    5 1   
     9    4    6 1   
    10    4    7 1   
    11    8    9 ar  
    12    8   35 1   
    13    9   10 ar  
    14    9   36 1   
    15   10   11 1   
    16   11   12 1   
    17   11   14 1   
    18   12   13 1   
    19   12   37 1   
    20   12   38 1   
    21   13   16 1   
    22   13   41 1   
    23   13   42 1   
    24   14   15 1   
    25   14   39 1   
    26   14   40 1   
    27   15   16 1   
    28   15   43 1   
    29   15   44 1   
    30   16   17 1   
    31   17   18 2   
    32   17   19 1   
    33   19   20 1   
    34   19   27 1   
    35   19   45 1   
    36   20   21 ar  
    37   20   26 ar  
    38   21   22 ar  
    39   21   46 1   
    40   22   23 ar  
    41   22   48 1   
    42   23   24 1   
    43   23   25 ar  
    44   25   26 ar  
    45   25   49 1   
    46   26   47 1   
    47   27   28 ar  
    48   27   32 ar  
    49   28   29 ar  
    50   28   50 1   
    51   29   30 ar  
    52   29   52 1   
    53   30   31 ar  
    54   30   53 1   
    55   31   32 ar  
    56   32   51 1   
@<TRIPOS>SUBSTRUCTURE
     1 UDO         1 TEMP              0 ****  ****    0 ROOT
