@<TRIPOS>MOLECULE
UDO
   53    56     1     0     0
SMALL
bcc


@<TRIPOS>ATOM
      1 CAM         0.2290   -0.4140    0.2120 ca        1 UDO     -0.185000
      2 CAO         1.6080   -0.5010    0.3430 ca        1 UDO     -0.051000
      3 CBB         2.2050   -0.4120    1.6020 ca        1 UDO     -0.207300
      4 CBF         3.7170   -0.4920    1.7350 c3        1 UDO      0.692200
      5 FAC         4.3590    0.7200    1.6460 f         1 UDO     -0.239300
      6 FAD         4.1610   -1.0140    2.9260 f         1 UDO     -0.239300
      7 FAB         4.3360   -1.2640    0.7810 f         1 UDO     -0.239300
      8 CAP         1.4110   -0.2340    2.7340 ca        1 UDO     -0.051000
      9 CAN         0.0280   -0.1500    2.6160 ca        1 UDO     -0.185000
     10 CBA        -0.5990   -0.2320    1.3490 ca        1 UDO      0.179600
     11 NBE        -1.9890   -0.0550    1.1890 nh        1 UDO     -0.643000
     12 CAU        -2.7470    0.3030    2.3750 c3        1 UDO      0.165300
     13 CAS        -4.2160    0.6750    2.0660 c3        1 UDO      0.080000
     14 CAT        -2.6640   -1.0010    0.3150 c3        1 UDO      0.165300
     15 CAR        -4.1290   -0.5960    0.0250 c3        1 UDO      0.080000
     16 NBD        -4.8810   -0.2900    1.2150 n         1 UDO     -0.461800
     17 CAW        -5.9070   -1.0760    1.7290 c         1 UDO      0.662100
     18 OAA        -6.4340   -0.7530    2.8120 o         1 UDO     -0.595100
     19 CBC        -6.4150   -2.2760    0.9190 c3        1 UDO     -0.023100
     20 CAY        -7.1730   -3.2460    1.7770 ca        1 UDO     -0.084300
     21 CAK        -6.7690   -4.5880    1.8060 ca        1 UDO     -0.096500
     22 CAI        -7.4640   -5.5210    2.5710 ca        1 UDO     -0.127500
     23 CAX        -8.5740   -5.1120    3.3170 ca        1 UDO      0.025400
     24 CLA        -9.4270   -6.2470    4.2500 cl        1 UDO     -0.091400
     25 CAJ        -8.9830   -3.7750    3.3010 ca        1 UDO     -0.127500
     26 CAL        -8.2820   -2.8490    2.5310 ca        1 UDO     -0.096500
     27 CAZ        -7.2460   -1.8050   -0.2310 ca        1 UDO     -0.204600
     28 CAH        -7.1600   -2.4350   -1.4790 ca        1 UDO     -0.088000
     29 CAF        -7.9630   -1.9810   -2.5250 ca        1 UDO     -0.245300
     30 CAG        -8.8320   -0.9010   -2.2850 ca        1 UDO      0.400200
     31 NAV        -8.9290   -0.2780   -1.0940 nb        1 UDO     -0.657000
     32 CAQ        -8.1500   -0.7270   -0.0940 ca        1 UDO      0.410200
     33 HAM        -0.2060   -0.4680   -0.7970 ha        1 UDO      0.142500
     34 HAO         2.2370   -0.6420   -0.5510 ha        1 UDO      0.150500
     35 HAP         1.8810   -0.1710    3.7290 ha        1 UDO      0.150500
     36 HAN        -0.5640   -0.0220    3.5350 ha        1 UDO      0.142500
     37 HAU1       -2.7380   -0.5320    3.1350 h1        1 UDO      0.049700
     38 HAU2       -2.2650    1.2100    2.8390 h1        1 UDO      0.049700
     39 HAT1       -2.6510   -2.0390    0.7580 h1        1 UDO      0.049700
     40 HAT2       -2.1280   -1.0380   -0.6740 h1        1 UDO      0.049700
     41 HAS1       -4.7640    0.7700    3.0460 h1        1 UDO      0.071700
     42 HAS2       -4.2420    1.6720    1.5400 h1        1 UDO      0.071700
     43 HAR1       -4.6100   -1.4190   -0.5700 h1        1 UDO      0.071700
     44 HAR2       -4.1250    0.3320   -0.6190 h1        1 UDO      0.071700
     45 HBC        -5.5140   -2.8290    0.5140 hc        1 UDO      0.070700
     46 HAK        -5.8960   -4.9170    1.2220 ha        1 UDO      0.143000
     47 HAL        -8.5890   -1.7900    2.5330 ha        1 UDO      0.143000
     48 HAI        -7.1400   -6.5720    2.5870 ha        1 UDO      0.150000
     49 HAJ        -9.8520   -3.4500    3.8940 ha        1 UDO      0.150000
     50 HAH        -6.4740   -3.2810   -1.6310 ha        1 UDO      0.137000
     51 HAQ        -8.2460   -0.1980    0.8740 h4        1 UDO      0.038100
     52 HAF        -7.9240   -2.4540   -3.5150 ha        1 UDO      0.147000
     53 HAG        -9.4870   -0.5110   -3.0850 h4        1 UDO      0.026100
@<TRIPOS>BOND
     1    1    2 ar  
     2    1   10 ar  
     3    1   33 1   
     4    2    3 ar  
     5    2   34 1   
     6    3    4 1   
     7    3    8 ar  
     8    4    5 1   
     9    4    6 1   
    10    4    7 1   
    11    8    9 ar  
    12    8   35 1   
    13    9   10 ar  
    14    9   36 1   
    15   10   11 1   
    16   11   12 1   
    17   11   14 1   
    18   12   13 1   
    19   12   37 1   
    20   12   38 1   
    21   13   16 1   
    22   13   41 1   
    23   13   42 1   
    24   14   15 1   
    25   14   39 1   
    26   14   40 1   
    27   15   16 1   
    28   15   43 1   
    29   15   44 1   
    30   16   17 1   
    31   17   18 2   
    32   17   19 1   
    33   19   20 1   
    34   19   27 1   
    35   19   45 1   
    36   20   21 ar  
    37   20   26 ar  
    38   21   22 ar  
    39   21   46 1   
    40   22   23 ar  
    41   22   48 1   
    42   23   24 1   
    43   23   25 ar  
    44   25   26 ar  
    45   25   49 1   
    46   26   47 1   
    47   27   28 ar  
    48   27   32 ar  
    49   28   29 ar  
    50   28   50 1   
    51   29   30 ar  
    52   29   52 1   
    53   30   31 ar  
    54   30   53 1   
    55   31   32 ar  
    56   32   51 1   
@<TRIPOS>SUBSTRUCTURE
     1 UDO         1 TEMP              0 ****  ****    0 ROOT
