@<TRIPOS>MOLECULE
UDO
   53    56     1     0     0
SMALL
bcc


@<TRIPOS>ATOM
      1 CAM        -4.3830   -0.6430   -0.5480 ca        1 UDO     -0.185000
      2 CAO        -5.6530   -0.2050   -0.8940 ca        1 UDO     -0.051000
      3 CBB        -6.1570    0.9860   -0.3670 ca        1 UDO     -0.207300
      4 CBF        -7.5560    1.4510   -0.7380 c3        1 UDO      0.692200
      5 FAC        -8.5470    0.9790    0.0900 f         1 UDO     -0.239300
      6 FAD        -7.7310    2.8140   -0.7200 f         1 UDO     -0.239300
      7 FAB        -7.9690    1.0770   -1.9950 f         1 UDO     -0.239300
      8 CAP        -5.3780    1.7390    0.5120 ca        1 UDO     -0.051000
      9 CAN        -4.1030    1.3120    0.8620 ca        1 UDO     -0.185000
     10 CBA        -3.5730    0.1050    0.3450 ca        1 UDO      0.179600
     11 NBE        -2.3220   -0.4010    0.7550 nh        1 UDO     -0.643000
     12 CAU        -1.6300    0.3300    1.8030 c3        1 UDO      0.165300
     13 CAS        -0.3750   -0.4070    2.3280 c3        1 UDO      0.080000
     14 CAT        -1.4500   -0.9000   -0.2960 c3        1 UDO      0.165300
     15 CAR        -0.2080   -1.6340    0.2640 c3        1 UDO      0.080000
     16 NBD         0.4940   -0.8770    1.2690 n         1 UDO     -0.461800
     17 CAW         1.7480   -0.3000    1.0950 c         1 UDO      0.663100
     18 OAA         2.2240    0.4020    2.0090 o         1 UDO     -0.595100
     19 CBC         2.5450   -0.6000   -0.1820 c3        1 UDO     -0.023100
     20 CAY         3.6260    0.4140   -0.4130 ca        1 UDO     -0.084300
     21 CAK         3.6630    1.1020   -1.6330 ca        1 UDO     -0.096500
     22 CAI         4.6670    2.0310   -1.8930 ca        1 UDO     -0.127500
     23 CAX         5.6450    2.2790   -0.9240 ca        1 UDO      0.025400
     24 CLA         6.8730    3.4110   -1.2380 cl        1 UDO     -0.091400
     25 CAJ         5.6160    1.6040    0.2990 ca        1 UDO     -0.127500
     26 CAL         4.6080    0.6740    0.5490 ca        1 UDO     -0.096500
     27 CAZ         3.1030   -1.9850   -0.1250 ca        1 UDO     -0.204600
     28 CAH         3.1280   -2.7920   -1.2700 ca        1 UDO     -0.088000
     29 CAF         3.6730   -4.0730   -1.1860 ca        1 UDO     -0.245300
     30 CAG         4.1780   -4.5080    0.0530 ca        1 UDO      0.400200
     31 NAV         4.1610   -3.7510    1.1670 nb        1 UDO     -0.657000
     32 CAQ         3.6340   -2.5170    1.0710 ca        1 UDO      0.410200
     33 HAM        -4.0260   -1.5970   -0.9660 ha        1 UDO      0.142500
     34 HAO        -6.2690   -0.7980   -1.5890 ha        1 UDO      0.150500
     35 HAP        -5.7740    2.6830    0.9230 ha        1 UDO      0.150500
     36 HAN        -3.5160    1.9410    1.5490 ha        1 UDO      0.142500
     37 HAU1       -1.3250    1.3590    1.4530 h1        1 UDO      0.049700
     38 HAU2       -2.3350    0.4460    2.6740 h1        1 UDO      0.049700
     39 HAT1       -2.0170   -1.6410   -0.9250 h1        1 UDO      0.049700
     40 HAT2       -1.1080   -0.0610   -0.9690 h1        1 UDO      0.049700
     41 HAS1        0.1840    0.2980    3.0050 h1        1 UDO      0.071700
     42 HAS2       -0.6990   -1.3030    2.9300 h1        1 UDO      0.071700
     43 HAR1       -0.5470   -2.5980    0.7450 h1        1 UDO      0.071700
     44 HAR2        0.4610   -1.9010   -0.5980 h1        1 UDO      0.071700
     45 HBC         1.8340   -0.5290   -1.0600 hc        1 UDO      0.070700
     46 HAK         2.8960    0.9130   -2.4000 ha        1 UDO      0.143000
     47 HAL         4.5690    0.1560    1.5210 ha        1 UDO      0.143000
     48 HAI         4.6880    2.5660   -2.8550 ha        1 UDO      0.150000
     49 HAJ         6.3800    1.8040    1.0650 ha        1 UDO      0.150000
     50 HAH         2.7300   -2.4180   -2.2250 ha        1 UDO      0.137000
     51 HAQ         3.6300   -1.9150    2.0010 h4        1 UDO      0.038100
     52 HAF         3.7120   -4.7300   -2.0640 ha        1 UDO      0.147000
     53 HAG         4.6200   -5.5150    0.1640 h4        1 UDO      0.026100
@<TRIPOS>BOND
     1    1    2 ar  
     2    1   10 ar  
     3    1   33 1   
     4    2    3 ar  
     5    2   34 1   
     6    3    4 1   
     7    3    8 ar  
     8    4    5 1   
     9    4    6 1   
    10    4    7 1   
    11    8    9 ar  
    12    8   35 1   
    13    9   10 ar  
    14    9   36 1   
    15   10   11 1   
    16   11   12 1   
    17   11   14 1   
    18   12   13 1   
    19   12   37 1   
    20   12   38 1   
    21   13   16 1   
    22   13   41 1   
    23   13   42 1   
    24   14   15 1   
    25   14   39 1   
    26   14   40 1   
    27   15   16 1   
    28   15   43 1   
    29   15   44 1   
    30   16   17 1   
    31   17   18 2   
    32   17   19 1   
    33   19   20 1   
    34   19   27 1   
    35   19   45 1   
    36   20   21 ar  
    37   20   26 ar  
    38   21   22 ar  
    39   21   46 1   
    40   22   23 ar  
    41   22   48 1   
    42   23   24 1   
    43   23   25 ar  
    44   25   26 ar  
    45   25   49 1   
    46   26   47 1   
    47   27   28 ar  
    48   27   32 ar  
    49   28   29 ar  
    50   28   50 1   
    51   29   30 ar  
    52   29   52 1   
    53   30   31 ar  
    54   30   53 1   
    55   31   32 ar  
    56   32   51 1   
@<TRIPOS>SUBSTRUCTURE
     1 UDO         1 TEMP              0 ****  ****    0 ROOT
