@<TRIPOS>MOLECULE
UDO
   53    56     1     0     0
SMALL
bcc


@<TRIPOS>ATOM
      1 CAM         0.2270   -0.4020    0.2120 ca        1 UDO     -0.185000
      2 CAO         1.6060   -0.4870    0.3420 ca        1 UDO     -0.051000
      3 CBB         2.2040   -0.3980    1.6010 ca        1 UDO     -0.207300
      4 CBF         3.7160   -0.4740    1.7320 c3        1 UDO      0.692200
      5 FAC         4.3550    0.7400    1.6410 f         1 UDO     -0.239300
      6 FAD         4.1620   -0.9950    2.9230 f         1 UDO     -0.239300
      7 FAB         4.3350   -1.2460    0.7780 f         1 UDO     -0.239300
      8 CAP         1.4100   -0.2240    2.7340 ca        1 UDO     -0.051000
      9 CAN         0.0270   -0.1440    2.6170 ca        1 UDO     -0.185000
     10 CBA        -0.6010   -0.2250    1.3500 ca        1 UDO      0.179600
     11 NBE        -1.9920   -0.0520    1.1910 nh        1 UDO     -0.643000
     12 CAU        -2.7500    0.3020    2.3790 c3        1 UDO      0.165300
     13 CAS        -4.2200    0.6710    2.0710 c3        1 UDO      0.080000
     14 CAT        -2.6650   -0.9970    0.3150 c3        1 UDO      0.165300
     15 CAR        -4.1310   -0.5950    0.0270 c3        1 UDO      0.080000
     16 NBD        -4.8830   -0.2930    1.2180 n         1 UDO     -0.461800
     17 CAW        -5.9080   -1.0820    1.7310 c         1 UDO      0.663100
     18 OAA        -6.4350   -0.7630    2.8150 o         1 UDO     -0.595100
     19 CBC        -6.4140   -2.2810    0.9180 c3        1 UDO     -0.023100
     20 CAY        -7.1690   -3.2550    1.7740 ca        1 UDO     -0.084300
     21 CAK        -6.7630   -4.5950    1.8000 ca        1 UDO     -0.096500
     22 CAI        -7.4560   -5.5310    2.5640 ca        1 UDO     -0.127500
     23 CAX        -8.5660   -5.1260    3.3110 ca        1 UDO      0.025400
     24 CLA        -9.4170   -6.2650    4.2420 cl        1 UDO     -0.091400
     25 CAJ        -8.9780   -3.7900    3.2980 ca        1 UDO     -0.127500
     26 CAL        -8.2790   -2.8610    2.5300 ca        1 UDO     -0.096500
     27 CAZ        -7.2460   -1.8090   -0.2300 ca        1 UDO     -0.204600
     28 CAH        -7.1590   -2.4360   -1.4800 ca        1 UDO     -0.088000
     29 CAF        -7.9640   -1.9810   -2.5250 ca        1 UDO     -0.245300
     30 CAG        -8.8350   -0.9030   -2.2820 ca        1 UDO      0.400200
     31 NAV        -8.9320   -0.2840   -1.0890 nb        1 UDO     -0.657000
     32 CAQ        -8.1520   -0.7340   -0.0900 ca        1 UDO      0.410200
     33 HAM        -0.2090   -0.4550   -0.7970 ha        1 UDO      0.142500
     34 HAO         2.2350   -0.6240   -0.5530 ha        1 UDO      0.150500
     35 HAP         1.8810   -0.1620    3.7280 ha        1 UDO      0.150500
     36 HAN        -0.5650   -0.0190    3.5360 ha        1 UDO      0.142500
     37 HAU1       -2.7380   -0.5350    3.1370 h1        1 UDO      0.049700
     38 HAU2       -2.2700    1.2090    2.8440 h1        1 UDO      0.049700
     39 HAT1       -2.6500   -2.0360    0.7560 h1        1 UDO      0.049700
     40 HAT2       -2.1300   -1.0310   -0.6730 h1        1 UDO      0.049700
     41 HAS1       -4.7670    0.7630    3.0520 h1        1 UDO      0.071700
     42 HAS2       -4.2480    1.6690    1.5480 h1        1 UDO      0.071700
     43 HAR1       -4.1290    0.3350   -0.6150 h1        1 UDO      0.071700
     44 HAR2       -4.6110   -1.4180   -0.5690 h1        1 UDO      0.071700
     45 HBC        -5.5120   -2.8320    0.5120 hc        1 UDO      0.070700
     46 HAK        -5.8890   -4.9210    1.2160 ha        1 UDO      0.143000
     47 HAL        -8.5880   -1.8030    2.5340 ha        1 UDO      0.143000
     48 HAI        -7.1300   -6.5820    2.5770 ha        1 UDO      0.150000
     49 HAJ        -9.8470   -3.4690    3.8920 ha        1 UDO      0.150000
     50 HAH        -6.4710   -3.2810   -1.6340 ha        1 UDO      0.137000
     51 HAQ        -8.2480   -0.2060    0.8790 h4        1 UDO      0.038100
     52 HAF        -7.9240   -2.4520   -3.5150 ha        1 UDO      0.147000
     53 HAG        -9.4910   -0.5130   -3.0810 h4        1 UDO      0.026100
@<TRIPOS>BOND
     1    1    2 ar  
     2    1   10 ar  
     3    1   33 1   
     4    2    3 ar  
     5    2   34 1   
     6    3    4 1   
     7    3    8 ar  
     8    4    5 1   
     9    4    6 1   
    10    4    7 1   
    11    8    9 ar  
    12    8   35 1   
    13    9   10 ar  
    14    9   36 1   
    15   10   11 1   
    16   11   12 1   
    17   11   14 1   
    18   12   13 1   
    19   12   37 1   
    20   12   38 1   
    21   13   16 1   
    22   13   41 1   
    23   13   42 1   
    24   14   15 1   
    25   14   39 1   
    26   14   40 1   
    27   15   16 1   
    28   15   43 1   
    29   15   44 1   
    30   16   17 1   
    31   17   18 2   
    32   17   19 1   
    33   19   20 1   
    34   19   27 1   
    35   19   45 1   
    36   20   21 ar  
    37   20   26 ar  
    38   21   22 ar  
    39   21   46 1   
    40   22   23 ar  
    41   22   48 1   
    42   23   24 1   
    43   23   25 ar  
    44   25   26 ar  
    45   25   49 1   
    46   26   47 1   
    47   27   28 ar  
    48   27   32 ar  
    49   28   29 ar  
    50   28   50 1   
    51   29   30 ar  
    52   29   52 1   
    53   30   31 ar  
    54   30   53 1   
    55   31   32 ar  
    56   32   51 1   
@<TRIPOS>SUBSTRUCTURE
     1 UDO         1 TEMP              0 ****  ****    0 ROOT
