@<TRIPOS>MOLECULE
UDR
   65    67     1     0     0
SMALL
bcc


@<TRIPOS>ATOM
      1 CAA         1.1920   -0.6040   -0.5770 c3        1 UDR     -0.076000
      2 CAB         4.0550    4.4200   -1.0560 c1        1 UDR     -1.149000
      3 CAE         0.0200    6.9660    6.2230 c2        1 UDR     -0.186000
      4 CAF         4.5380    3.7450    8.6060 c3        1 UDR     -0.074000
      5 OAG         2.3420    1.4310   -1.8200 o         1 UDR     -0.310000
      6 OAH         2.4080    5.0110   10.4380 o         1 UDR     -0.298000
      7 CAI         4.4980    4.0120    3.1850 c1        1 UDR     -0.048000
      8 CAJ         1.9310    2.1270    3.3500 c2        1 UDR     -0.077000
      9 CAK         1.5970    5.8010    4.6930 c3        1 UDR     -0.094000
     10 CAL         2.2480    3.2480    1.1760 c1        1 UDR     -0.220000
     11 CAM         3.2740    4.2220    5.7020 c2        1 UDR     -0.072000
     12 CAN         5.0450    3.0950    2.2080 c3        1 UDR     -0.222000
     13 CAO         6.4260    2.6050    2.6010 c3        1 UDR     -0.135000
     14 CAP         7.0510    1.8230    1.4610 c3        1 UDR     -0.091000
     15 NAQ        10.0250    0.1950    2.7760 n2        1 UDR     -0.089000
     16 NAR         8.7370    0.4770    2.9020 n2        1 UDR     -0.090000
     17 OAS         1.3670   -0.3350    0.8210 os        1 UDR     -0.181000
     18 OAT         9.4450    1.4490    1.0120 os        1 UDR     -0.137000
     19 OAU         1.5030    5.7500    8.5010 os        1 UDR     -0.155000
     20 SAV         2.7680    4.0720   -0.9120 ss        1 UDR      1.405000
     21 CAY         1.7430    0.9440    2.7190 c2        1 UDR     -0.150000
     22 CAZ        10.4940    0.7610    1.6470 c2        1 UDR     -0.031000
     23 CBA         1.0640    6.1420    6.0540 c2        1 UDR     -0.051000
     24 CBB         2.0550    3.4080    2.6120 c3        1 UDR     -0.119000
     25 CBC         2.6670    4.7610    4.6190 c2        1 UDR     -0.087000
     26 CBD         8.3450    1.2340    1.8580 c2        1 UDR     -0.031000
     27 CBE         2.0660    2.0320    0.5160 c2        1 UDR     -0.348000
     28 CBF         1.7240    0.8860    1.2500 c2        1 UDR      0.294000
     29 CBG         2.4480    4.9730    9.2120 c2        1 UDR      0.360000
     30 CBH         2.8180    4.6280    7.0030 c2        1 UDR     -0.044000
     31 CBI         1.7730    5.5260    7.1390 c2        1 UDR     -0.003000
     32 NBJ         3.2220    4.2100    8.2950 n         1 UDR     -0.230000
     33 HAA         0.6690   -1.5950   -0.5690 h1        1 UDR      0.113667
     34 HAAA        2.1920   -0.6750   -1.0710 h1        1 UDR      0.113667
     35 HAAB        0.5660    0.1840   -1.0570 h1        1 UDR      0.113667
     36 HAB         5.0730    4.7020   -1.1650 ha        1 UDR      0.200000
     37 HABA        1.3220   -0.3590   -3.2430 ha        1 UDR      0.000500
     38 HABB        1.6330    0.0420   -3.6910 ha        1 UDR      0.000500
     39 HAC         1.6250   -0.1600    4.5660 hc        1 UDR      0.095667
     40 HACA        0.5650   -0.7710    3.2210 hc        1 UDR      0.095667
     41 HACB        2.3500   -1.0620    3.1630 hc        1 UDR      0.095667
     42 HAD        11.7690    1.3650    0.0490 hc        1 UDR      0.112333
     43 HADA       12.5580    1.2700    1.6910 hc        1 UDR      0.112333
     44 HADB       12.1520   -0.2580    0.7890 hc        1 UDR      0.112333
     45 HAE        -0.3560    7.2260    7.2210 ha        1 UDR      0.129500
     46 HAEA        2.0120    6.7470    4.2380 hc        1 UDR      0.103500
     47 HAEB       -0.5040    7.4230    5.3740 ha        1 UDR      0.129500
     48 HAF         4.7710    2.8680    7.9460 h1        1 UDR      0.098333
     49 HAFA        4.5580    3.4260    9.6830 h1        1 UDR      0.098333
     50 HAFB        5.3160    4.5400    8.4430 h1        1 UDR      0.098333
     51 HAI         3.0720    5.3180    2.5840 hc        1 UDR      0.168000
     52 HAJ         1.9700    2.1840    4.4520 ha        1 UDR      0.156000
     53 HAK         0.7310    5.4830    4.0470 hc        1 UDR      0.103500
     54 HAL         1.0360    3.9210    2.6970 hc        1 UDR      0.170000
     55 HAM         4.1040    3.5040    5.6190 ha        1 UDR      0.158000
     56 HAN         4.3740    2.2130    1.9940 hc        1 UDR      0.126000
     57 HANA        5.1100    3.6820    1.2360 hc        1 UDR      0.126000
     58 HAO         7.0740    3.4800    2.8690 hc        1 UDR      0.106000
     59 HAOA        6.3470    1.9560    3.5120 hc        1 UDR      0.106000
     60 HAP         7.2100    2.4920    0.5720 hc        1 UDR      0.115500
     61 HAPA        6.3660    0.9890    1.1430 hc        1 UDR      0.115500
     62 CAC         1.5620   -0.3250    3.4630 c3        1 UDR     -0.177000
     63 CAW         2.3760    2.2680   -0.9170 c2        1 UDR     -0.130000
     64 CAX         3.0860    4.3740    3.2300 c3        1 UDR     -0.082000
     65 CAD        11.8160    0.7870    1.0060 c3        1 UDR     -0.148000
@<TRIPOS>BOND
     1    1   17 1   
     2    1   33 1   
     3    1   34 1   
     4    1   35 1   
     5    2   20 1   
     6    2   36 1   
     7    3   23 1   
     8    3   45 1   
     9    3   47 1   
    10    4   32 1   
    11    4   48 1   
    12    4   49 1   
    13    4   50 1   
    14    5   63 1   
    15    6   29 1   
    16    7   12 1   
    17    7   64 1   
    18    8   21 1   
    19    8   24 1   
    20    8   52 1   
    21    9   23 1   
    22    9   25 1   
    23    9   46 1   
    24    9   53 1   
    25   10   24 1   
    26   10   27 1   
    27   11   25 1   
    28   11   30 1   
    29   11   55 1   
    30   12   13 1   
    31   12   56 1   
    32   12   57 1   
    33   13   14 1   
    34   13   58 1   
    35   13   59 1   
    36   14   26 1   
    37   14   60 1   
    38   14   61 1   
    39   15   16 1   
    40   15   22 1   
    41   16   26 1   
    42   17   28 1   
    43   18   22 1   
    44   18   26 1   
    45   19   29 1   
    46   19   31 1   
    47   20   63 1   
    48   21   28 1   
    49   21   62 1   
    50   22   65 1   
    51   23   31 1   
    52   24   54 1   
    53   24   64 1   
    54   25   64 1   
    55   27   28 1   
    56   27   63 1   
    57   29   32 1   
    58   30   31 1   
    59   30   32 1   
    60   37   38 1   
    61   39   62 1   
    62   40   62 1   
    63   41   62 1   
    64   42   65 1   
    65   43   65 1   
    66   44   65 1   
    67   51   64 1   
@<TRIPOS>SUBSTRUCTURE
     1 UDR         1 TEMP              0 ****  ****    0 ROOT
