@<TRIPOS>MOLECULE
UDR
   65    68     1     0     0
SMALL
bcc


@<TRIPOS>ATOM
      1 CAA        -0.2900    5.1030   -3.0110 c3        1 UDR      0.113700
      2 CAB        -0.2290    5.4000    2.7770 c3        1 UDR     -0.063000
      3 CAE        -3.4040   -2.8180    3.1100 c3        1 UDR     -0.054800
      4 CAF        -5.7840   -0.1430   -1.8790 c3        1 UDR      0.087300
      5 OAG        -1.1790    5.1200   -0.0320 o         1 UDR     -0.528100
      6 OAH        -7.6030   -1.1160    0.3910 o         1 UDR     -0.570500
      7 CAI         0.5020   -1.7340   -0.3170 c2        1 UDR     -0.132200
      8 CAJ         0.3460    0.7750   -2.1380 ca        1 UDR     -0.098000
      9 CAK        -1.9650   -1.7550    1.3410 ca        1 UDR     -0.127000
     10 CAL        -0.4460    1.7010   -0.0490 ca        1 UDR     -0.071000
     11 CAM        -2.8940   -0.5480   -0.5750 ca        1 UDR     -0.110000
     12 CAN         1.8970   -1.5910   -0.7910 c3        1 UDR     -0.057200
     13 CAO         2.8560   -2.3780    0.0820 c3        1 UDR     -0.075400
     14 CAP         4.2790   -2.1980   -0.4060 c3        1 UDR     -0.100700
     15 NAQ         6.3310   -4.2820    1.7580 nc        1 UDR     -0.350000
     16 NAR         5.1310   -3.9740    1.2910 nc        1 UDR     -0.350000
     17 OAS         0.7080    4.4360   -2.2330 os        1 UDR     -0.345900
     18 OAT         6.5960   -2.5790    0.3260 os        1 UDR     -0.399800
     19 OAU        -5.6830   -1.7360    1.4080 os        1 UDR     -0.293200
     20 SAV         0.2210    3.9550    1.8870 ss        1 UDR     -0.217700
     21 CAY         0.6010    2.0550   -2.6340 ca        1 UDR     -0.098300
     22 CAZ         7.2470   -3.4660    1.2020 cd        1 UDR      0.457700
     23 CBA        -3.2410   -2.0520    1.8570 ca        1 UDR     -0.039300
     24 CBB        -0.1760    0.5860   -0.8520 ca        1 UDR     -0.064800
     25 CBC        -1.7890   -1.0270    0.1590 ca        1 UDR     -0.041800
     26 CBD         5.2430   -2.9500    0.4220 cd        1 UDR      0.453700
     27 CBE        -0.1990    2.9930   -0.5220 ca        1 UDR     -0.169600
     28 CBF         0.3320    3.1670   -1.8140 ca        1 UDR      0.144100
     29 CBG        -6.3770   -1.0940    0.3560 c         1 UDR      0.806600
     30 CBH        -4.1600   -0.8290   -0.0860 ca        1 UDR     -0.014400
     31 CBI        -4.3160   -1.5810    1.1250 ca        1 UDR      0.048100
     32 NBJ        -5.4570   -0.4710   -0.5270 n         1 UDR     -0.347000
     33 HAA         0.1940    6.0750   -3.2770 h1        1 UDR      0.048700
     34 HAAA       -0.5230    4.5090   -3.9280 h1        1 UDR      0.048700
     35 HAAB       -1.2090    5.2680   -2.3960 h1        1 UDR      0.048700
     36 HAB        -0.8340    6.0950    2.1480 h1        1 UDR      0.079700
     37 HABA       -0.8240    5.1080    3.6710 h1        1 UDR      0.079700
     38 HABB        0.6960    5.9230    3.1090 h1        1 UDR      0.079700
     39 HAC         0.3080    2.2550   -4.7430 hc        1 UDR      0.051367
     40 HACA        1.7110    3.1930   -4.0780 hc        1 UDR      0.051367
     41 HACB        1.8290    1.3890   -4.2680 hc        1 UDR      0.051367
     42 HAD         9.1940   -4.3080    1.0490 hc        1 UDR      0.073700
     43 HADA        9.0870   -2.5240    0.6800 hc        1 UDR      0.073700
     44 HADB        8.9660   -3.1130    2.4020 hc        1 UDR      0.073700
     45 HAE        -2.9570   -2.2550    3.9670 hc        1 UDR      0.056367
     46 HAEA       -4.4860   -2.9980    3.3280 hc        1 UDR      0.056367
     47 HAEB       -2.8850   -3.8060    3.0310 hc        1 UDR      0.056367
     48 HAF        -6.8660    0.1540   -1.9240 h1        1 UDR      0.056367
     49 HAFA       -5.1410    0.7190   -2.2020 h1        1 UDR      0.056367
     50 HAFB       -5.6090   -1.0090   -2.5730 h1        1 UDR      0.056367
     51 HAI         0.2420   -2.7330    0.0770 ha        1 UDR      0.134000
     52 HAJ         0.5610   -0.1030   -2.7690 ha        1 UDR      0.140000
     53 HAK        -1.0830   -2.1070    1.8970 ha        1 UDR      0.146000
     54 HAL        -0.8570    1.5590    0.9650 ha        1 UDR      0.159000
     55 HAM        -2.7440    0.0310   -1.4970 ha        1 UDR      0.153000
     56 HAN         1.9580   -1.9700   -1.8490 hc        1 UDR      0.055700
     57 HANA        2.2020   -0.5090   -0.8100 hc        1 UDR      0.055700
     58 HAO         2.7740   -2.0300    1.1450 hc        1 UDR      0.063200
     59 HAOA        2.5830   -3.4660    0.0650 hc        1 UDR      0.063200
     60 HAP         4.3740   -2.5560   -1.4680 hc        1 UDR      0.073200
     61 HAPA        4.5630   -1.1100   -0.3880 hc        1 UDR      0.073200
     62 CAC         1.1450    2.2310   -4.0000 c3        1 UDR     -0.055800
     63 CAW        -0.5010    4.1560    0.3360 c         1 UDR      0.595300
     64 CAX        -0.4330   -0.7650   -0.3420 ce        1 UDR     -0.023400
     65 CAD         8.7060   -3.3430    1.3380 c3        1 UDR     -0.124400
@<TRIPOS>BOND
     1    1   17 1   
     2    1   33 1   
     3    1   34 1   
     4    1   35 1   
     5    2   20 1   
     6    2   36 1   
     7    2   37 1   
     8    2   38 1   
     9    3   23 1   
    10    3   45 1   
    11    3   46 1   
    12    3   47 1   
    13    4   32 1   
    14    4   48 1   
    15    4   49 1   
    16    4   50 1   
    17    5   63 2   
    18    6   29 2   
    19    7   12 1   
    20    7   51 1   
    21    7   64 2   
    22    8   21 ar  
    23    8   24 ar  
    24    8   52 1   
    25    9   23 ar  
    26    9   25 ar  
    27    9   53 1   
    28   10   24 ar  
    29   10   27 ar  
    30   10   54 1   
    31   11   25 ar  
    32   11   30 ar  
    33   11   55 1   
    34   12   13 1   
    35   12   56 1   
    36   12   57 1   
    37   13   14 1   
    38   13   58 1   
    39   13   59 1   
    40   14   26 1   
    41   14   60 1   
    42   14   61 1   
    43   15   16 1   
    44   15   22 2   
    45   16   26 2   
    46   17   28 1   
    47   18   22 1   
    48   18   26 1   
    49   19   29 1   
    50   19   31 1   
    51   20   63 1   
    52   21   28 ar  
    53   21   62 1   
    54   22   65 1   
    55   23   31 ar  
    56   24   64 1   
    57   25   64 1   
    58   27   28 ar  
    59   27   63 1   
    60   29   32 1   
    61   30   31 ar  
    62   30   32 1   
    63   39   62 1   
    64   40   62 1   
    65   41   62 1   
    66   42   65 1   
    67   43   65 1   
    68   44   65 1   
@<TRIPOS>SUBSTRUCTURE
     1 UDR         1 TEMP              0 ****  ****    0 ROOT
