@<TRIPOS>MOLECULE
UDR
   65    67     1     0     0
SMALL
bcc


@<TRIPOS>ATOM
      1 CAA         1.5600   -0.7610   -0.5980 c3        1 UDR     -0.077000
      2 CAB         4.1650    4.3210   -1.0750 c1        1 UDR     -1.153000
      3 CAE        -0.0440    6.9520    6.0890 c2        1 UDR     -0.186000
      4 CAF         4.4330    3.7700    8.5990 c3        1 UDR     -0.074000
      5 OAG         2.2710    1.4260   -1.8940 o         1 UDR     -0.310000
      6 OAH         2.2590    5.0430   10.3720 o         1 UDR     -0.298000
      7 CAI         4.5100    3.9900    3.1760 c1        1 UDR     -0.048000
      8 CAJ         1.9460    2.0950    3.3020 c2        1 UDR     -0.077000
      9 CAK         1.5690    5.7800    4.6040 c3        1 UDR     -0.094000
     10 CAL         2.3020    3.1980    1.1260 c1        1 UDR     -0.221000
     11 CAM         3.2310    4.2160    5.6630 c2        1 UDR     -0.072000
     12 CAN         5.0830    3.0660    2.2200 c3        1 UDR     -0.221000
     13 CAO         6.4560    2.5850    2.6500 c3        1 UDR     -0.135000
     14 CAP         7.1140    1.8040    1.5280 c3        1 UDR     -0.091000
     15 NAQ        10.0570    0.1850    2.9240 n2        1 UDR     -0.089000
     16 NAR         8.7640    0.4570    3.0100 n2        1 UDR     -0.090000
     17 OAS         1.5910   -0.4300    0.7960 os        1 UDR     -0.182000
     18 OAT         9.5250    1.4520    1.1530 os        1 UDR     -0.137000
     19 OAU         1.3930    5.7620    8.4090 os        1 UDR     -0.155000
     20 SAV         2.8650    4.0170   -0.9490 ss        1 UDR      1.409000
     21 CAY         1.8010    0.9030    2.6790 c2        1 UDR     -0.149000
     22 CAZ        10.5580    0.7670    1.8150 c2        1 UDR     -0.031000
     23 CBA         1.0070    6.1310    5.9510 c2        1 UDR     -0.051000
     24 CBB         2.0820    3.3690    2.5560 c3        1 UDR     -0.119000
     25 CBC         2.6450    4.7430    4.5630 c2        1 UDR     -0.087000
     26 CBD         8.3990    1.2200    1.9610 c2        1 UDR     -0.031000
     27 CBE         2.1420    1.9760    0.4710 c2        1 UDR     -0.345000
     28 CBF         1.8420    0.8230    1.2110 c2        1 UDR      0.292000
     29 CBG         2.3260    4.9950    9.1480 c2        1 UDR      0.360000
     30 CBH         2.7450    4.6310    6.9510 c2        1 UDR     -0.044000
     31 CBI         1.6940    5.5270    7.0560 c2        1 UDR     -0.003000
     32 NBJ         3.1220    4.2270    8.2550 n         1 UDR     -0.230000
     33 HAA         1.2390   -1.8350   -0.5810 h1        1 UDR      0.113667
     34 HAAA        2.5810   -0.6490   -1.0360 h1        1 UDR      0.113667
     35 HAAB        0.8210   -0.1210   -1.1370 h1        1 UDR      0.113667
     36 HAB         5.1930    4.5700   -1.1730 ha        1 UDR      0.200000
     37 HABA        0.1020    0.6570   -3.1200 ha        1 UDR      0.001500
     38 HABB        0.6370    0.8030   -3.5090 ha        1 UDR      0.001500
     39 HAC         1.6160   -0.1760    4.5360 hc        1 UDR      0.096000
     40 HACA        0.6350   -0.8300    3.1520 hc        1 UDR      0.096000
     41 HACB        2.4260   -1.0830    3.1850 hc        1 UDR      0.096000
     42 HAD        11.8770    1.3870    0.2610 hc        1 UDR      0.113333
     43 HADA       12.6130    1.3000    1.9280 hc        1 UDR      0.113333
     44 HADB       12.2560   -0.2320    1.0120 hc        1 UDR      0.113333
     45 HAE        -0.4430    7.2190    7.0770 ha        1 UDR      0.129500
     46 HAEA        1.9910    6.7230    4.1500 hc        1 UDR      0.103500
     47 HAEB       -0.5520    7.3990    5.2260 ha        1 UDR      0.129500
     48 HAF         4.6840    2.8870    7.9520 h1        1 UDR      0.098333
     49 HAFA        4.4310    3.4600    9.6780 h1        1 UDR      0.098333
     50 HAFB        5.2110    4.5660    8.4450 h1        1 UDR      0.098333
     51 HAI         3.0910    5.2840    2.5320 hc        1 UDR      0.167000
     52 HAJ         1.9400    2.1650    4.4040 ha        1 UDR      0.156000
     53 HAK         0.7190    5.4520    3.9430 hc        1 UDR      0.103500
     54 HAL         1.0590    3.8790    2.6140 hc        1 UDR      0.171000
     55 HAM         4.0650    3.5000    5.6050 ha        1 UDR      0.158000
     56 HAN         4.4200    2.1800    1.9990 hc        1 UDR      0.125500
     57 HANA        5.1680    3.6450    1.2440 hc        1 UDR      0.125500
     58 HAO         7.0920    3.4650    2.9300 hc        1 UDR      0.106000
     59 HAOA        6.3580    1.9390    3.5610 hc        1 UDR      0.106000
     60 HAP         7.2940    2.4720    0.6420 hc        1 UDR      0.115000
     61 HAPA        6.4420    0.9660    1.1950 hc        1 UDR      0.115000
     62 CAC         1.6100   -0.3590    3.4340 c3        1 UDR     -0.178000
     63 CAW         2.4090    2.2280   -0.9690 c2        1 UDR     -0.130000
     64 CAX         3.0960    4.3450    3.1870 c3        1 UDR     -0.082000
     65 CAD        11.9000    0.8100    1.2180 c3        1 UDR     -0.148000
@<TRIPOS>BOND
     1    1   17 1   
     2    1   33 1   
     3    1   34 1   
     4    1   35 1   
     5    2   20 1   
     6    2   36 1   
     7    3   23 1   
     8    3   45 1   
     9    3   47 1   
    10    4   32 1   
    11    4   48 1   
    12    4   49 1   
    13    4   50 1   
    14    5   63 1   
    15    6   29 1   
    16    7   12 1   
    17    7   64 1   
    18    8   21 1   
    19    8   24 1   
    20    8   52 1   
    21    9   23 1   
    22    9   25 1   
    23    9   46 1   
    24    9   53 1   
    25   10   24 1   
    26   10   27 1   
    27   11   25 1   
    28   11   30 1   
    29   11   55 1   
    30   12   13 1   
    31   12   56 1   
    32   12   57 1   
    33   13   14 1   
    34   13   58 1   
    35   13   59 1   
    36   14   26 1   
    37   14   60 1   
    38   14   61 1   
    39   15   16 1   
    40   15   22 1   
    41   16   26 1   
    42   17   28 1   
    43   18   22 1   
    44   18   26 1   
    45   19   29 1   
    46   19   31 1   
    47   20   63 1   
    48   21   28 1   
    49   21   62 1   
    50   22   65 1   
    51   23   31 1   
    52   24   54 1   
    53   24   64 1   
    54   25   64 1   
    55   27   28 1   
    56   27   63 1   
    57   29   32 1   
    58   30   31 1   
    59   30   32 1   
    60   37   38 1   
    61   39   62 1   
    62   40   62 1   
    63   41   62 1   
    64   42   65 1   
    65   43   65 1   
    66   44   65 1   
    67   51   64 1   
@<TRIPOS>SUBSTRUCTURE
     1 UDR         1 TEMP              0 ****  ****    0 ROOT
