@<TRIPOS>MOLECULE
UDS
   31    32     1     0     0
SMALL
bcc


@<TRIPOS>ATOM
      1 N1          1.1190    0.4030   -0.4780 nb        1 UDS     -0.612000
      2 C2          0.7080   -0.8050   -0.1200 ca        1 UDS      0.341800
      3 C3          1.6100   -1.8080    0.4060 ca        1 UDS      0.069800
      4 C4          2.9510   -1.4900    0.5570 ca        1 UDS     -0.169000
      5 C5          4.7640    0.1870    0.3100 ca        1 UDS     -0.128000
      6 C6          5.1650    1.4440   -0.0670 ca        1 UDS     -0.122000
      7 C7          4.2280    2.3700   -0.5860 ca        1 UDS     -0.153000
      8 C8          2.9060    2.0310   -0.7220 ca        1 UDS     -0.140300
      9 C9          2.4510    0.7270   -0.3390 ca        1 UDS      0.358600
     10 C10         3.4040   -0.2010    0.1840 ca        1 UDS     -0.100300
     11 C11        -0.7570   -1.1730   -0.2970 c         1 UDS      0.554600
     12 O1         -1.0270   -2.3510   -0.6510 o         1 UDS     -0.680100
     13 O3          1.2330   -3.0630    0.7900 oh        1 UDS     -0.509100
     14 N          -1.6920   -0.2400   -0.0020 n         1 UDS     -0.469900
     15 CA         -3.1150   -0.4810   -0.1080 c3        1 UDS     -0.090300
     16 C          -3.8980    0.4440    0.8980 c         1 UDS      0.914600
     17 O          -3.6450    1.6810    0.8450 o         1 UDS     -0.819800
     18 CB         -3.6770   -0.2180   -1.5150 c3        1 UDS      0.136400
     19 OG         -3.4290    1.0900   -1.9880 oh        1 UDS     -0.641800
     20 OXT        -4.7300   -0.1130    1.6540 o         1 UDS     -0.819800
     21 H4          3.6550   -2.2300    0.9610 ha        1 UDS      0.148000
     22 H3          0.3090   -3.2260    0.5240 ho        1 UDS      0.470000
     23 H5          5.4820   -0.5410    0.7160 ha        1 UDS      0.128000
     24 H6          6.2170    1.7490    0.0300 ha        1 UDS      0.123000
     25 H7          4.5770    3.3710   -0.8780 ha        1 UDS      0.127000
     26 H8          2.1750    2.7520   -1.1230 ha        1 UDS      0.152000
     27 H          -1.4380    0.7060    0.1880 hn        1 UDS      0.347500
     28 HA         -3.3180   -1.5590    0.1540 h1        1 UDS      0.077700
     29 HB1C       -3.2090   -0.8970   -2.2770 h1        1 UDS      0.032700
     30 HB2C       -4.7860   -0.4000   -1.4790 h1        1 UDS      0.032700
     31 HG         -3.5750    1.7000   -1.2440 ho        1 UDS      0.441000
@<TRIPOS>BOND
     1    1    2 ar  
     2    1    9 ar  
     3    2    3 ar  
     4    2   11 1   
     5    3    4 ar  
     6    3   13 1   
     7    4   10 ar  
     8    4   21 1   
     9    5    6 ar  
    10    5   10 ar  
    11    5   23 1   
    12    6    7 ar  
    13    6   24 1   
    14    7    8 ar  
    15    7   25 1   
    16    8    9 ar  
    17    8   26 1   
    18    9   10 ar  
    19   11   12 2   
    20   11   14 1   
    21   13   22 1   
    22   14   15 1   
    23   14   27 1   
    24   15   16 1   
    25   15   18 1   
    26   15   28 1   
    27   16   17 1   
    28   16   20 1   
    29   18   19 1   
    30   18   29 1   
    31   18   30 1   
    32   19   31 1   
@<TRIPOS>SUBSTRUCTURE
     1 UDS         1 TEMP              0 ****  ****    0 ROOT
