@<TRIPOS>MOLECULE
UDT
   36    35     1     0     0
SMALL
bcc


@<TRIPOS>ATOM
      1 C11         0.0110    0.0660   -0.0040 c3        1 UDT     -0.092100
      2 C10         1.5180    0.0470    0.0220 c3        1 UDT     -0.080400
      3 C9          2.0500    0.0290    1.4390 c3        1 UDT     -0.079400
      4 C8          3.5630    0.0090    1.4600 c3        1 UDT     -0.079400
      5 C7          4.0930   -0.0090    2.8770 c3        1 UDT     -0.079400
      6 C6          5.6060   -0.0280    2.8980 c3        1 UDT     -0.079400
      7 C5          6.1360   -0.0470    4.3160 c3        1 UDT     -0.078400
      8 C4          7.6490   -0.0660    4.3350 c3        1 UDT     -0.078400
      9 C3          8.1730   -0.0850    5.7540 c3        1 UDT     -0.085400
     10 C2          9.6900   -0.1040    5.7490 c3        1 UDT      0.136400
     11 O2         10.0860   -0.1210    7.1350 os        1 UDT     -0.416900
     12 C1         11.4260   -0.1400    7.3820 c         1 UDT      0.637700
     13 O1         12.2090   -0.1420    6.4270 o         1 UDT     -0.540000
     14 S1         11.7430   -0.1590    9.0740 sh        1 UDT     -0.196400
     15 H111       -0.3800    0.9720    0.5200 hc        1 UDT      0.032700
     16 H112       -0.3590    0.0800   -1.0570 hc        1 UDT      0.032700
     17 H113       -0.4030   -0.8380    0.5050 hc        1 UDT      0.032700
     18 H101        1.9150    0.9490   -0.5140 hc        1 UDT      0.038700
     19 H102        1.8930   -0.8550   -0.5290 hc        1 UDT      0.038700
     20 H91         1.6540   -0.8740    1.9760 hc        1 UDT      0.039700
     21 H92         1.6770    0.9310    1.9920 hc        1 UDT      0.039700
     22 H81         3.9580    0.9120    0.9220 hc        1 UDT      0.039700
     23 H82         3.9350   -0.8930    0.9070 hc        1 UDT      0.039700
     24 H71         3.7210    0.8940    3.4300 hc        1 UDT      0.039700
     25 H72         3.6980   -0.9110    3.4150 hc        1 UDT      0.039700
     26 H61         6.0010    0.8740    2.3600 hc        1 UDT      0.040700
     27 H62         5.9780   -0.9310    2.3450 hc        1 UDT      0.040700
     28 H51         5.7410   -0.9500    4.8530 hc        1 UDT      0.041700
     29 H52         5.7640    0.8560    4.8680 hc        1 UDT      0.041700
     30 H41         8.0440    0.8370    3.7980 hc        1 UDT      0.042700
     31 H42         8.0210   -0.9700    3.7830 hc        1 UDT      0.042700
     32 H31         7.7890   -0.9880    6.2980 hc        1 UDT      0.056700
     33 H32         7.8120    0.8170    6.3130 hc        1 UDT      0.056700
     34 H21        10.1200    0.8090    5.2620 h1        1 UDT      0.054700
     35 H22        10.0970   -1.0190    5.2460 h1        1 UDT      0.054700
     36 HS1        13.0700   -0.1750    8.9910 hs        1 UDT      0.220800
@<TRIPOS>BOND
     1    1    2 1   
     2    1   15 1   
     3    1   16 1   
     4    1   17 1   
     5    2    3 1   
     6    2   18 1   
     7    2   19 1   
     8    3    4 1   
     9    3   20 1   
    10    3   21 1   
    11    4    5 1   
    12    4   22 1   
    13    4   23 1   
    14    5    6 1   
    15    5   24 1   
    16    5   25 1   
    17    6    7 1   
    18    6   26 1   
    19    6   27 1   
    20    7    8 1   
    21    7   28 1   
    22    7   29 1   
    23    8    9 1   
    24    8   30 1   
    25    8   31 1   
    26    9   10 1   
    27    9   32 1   
    28    9   33 1   
    29   10   11 1   
    30   10   34 1   
    31   10   35 1   
    32   11   12 1   
    33   12   13 2   
    34   12   14 1   
    35   14   36 1   
@<TRIPOS>SUBSTRUCTURE
     1 UDT         1 TEMP              0 ****  ****    0 ROOT
