@<TRIPOS>MOLECULE
UDT
   36    35     1     0     0
SMALL
bcc


@<TRIPOS>ATOM
      1 C11         0.0120    0.0670   -0.0040 c3        1 UDT     -0.092100
      2 C10         1.5180    0.0370    0.0220 c3        1 UDT     -0.080400
      3 C9          2.0500    0.0320    1.4390 c3        1 UDT     -0.079400
      4 C8          3.5630    0.0020    1.4600 c3        1 UDT     -0.079400
      5 C7          4.0930   -0.0040    2.8770 c3        1 UDT     -0.079400
      6 C6          5.6060   -0.0330    2.8980 c3        1 UDT     -0.079400
      7 C5          6.1360   -0.0390    4.3160 c3        1 UDT     -0.078400
      8 C4          7.6490   -0.0700    4.3350 c3        1 UDT     -0.078400
      9 C3          8.1730   -0.0750    5.7550 c3        1 UDT     -0.085400
     10 C2          9.6890   -0.1070    5.7490 c3        1 UDT      0.136400
     11 O2         10.0860   -0.1110    7.1350 os        1 UDT     -0.416900
     12 C1         11.4260   -0.1400    7.3830 c         1 UDT      0.637700
     13 O1         12.2090   -0.1610    6.4280 o         1 UDT     -0.540000
     14 S1         11.7430   -0.1400    9.0740 sh        1 UDT     -0.196400
     15 H111       -0.3740    0.9810    0.5090 hc        1 UDT      0.032700
     16 H112       -0.3590    0.0700   -1.0570 hc        1 UDT      0.032700
     17 H113       -0.4090   -0.8290    0.5150 hc        1 UDT      0.032700
     18 H101        1.9210    0.9310   -0.5250 hc        1 UDT      0.038700
     19 H102        1.8870   -0.8740   -0.5190 hc        1 UDT      0.038700
     20 H91         1.6490   -0.8620    1.9870 hc        1 UDT      0.039700
     21 H92         1.6830    0.9430    1.9810 hc        1 UDT      0.039700
     22 H81         3.9640    0.8960    0.9120 hc        1 UDT      0.039700
     23 H82         3.9290   -0.9090    0.9170 hc        1 UDT      0.039700
     24 H71         3.7280    0.9080    3.4200 hc        1 UDT      0.039700
     25 H72         3.6920   -0.8970    3.4250 hc        1 UDT      0.039700
     26 H61         6.0080    0.8600    2.3500 hc        1 UDT      0.040700
     27 H62         5.9720   -0.9450    2.3560 hc        1 UDT      0.040700
     28 H51         5.7340   -0.9320    4.8640 hc        1 UDT      0.041700
     29 H52         5.7710    0.8730    4.8580 hc        1 UDT      0.041700
     30 H41         8.0510    0.8240    3.7870 hc        1 UDT      0.042700
     31 H42         8.0140   -0.9820    3.7930 hc        1 UDT      0.042700
     32 H31         7.7820   -0.9680    6.3090 hc        1 UDT      0.056700
     33 H32         7.8200    0.8370    6.3020 hc        1 UDT      0.056700
     34 H21        10.1280    0.7960    5.2510 h1        1 UDT      0.054700
     35 H22        10.0890   -1.0320    5.2580 h1        1 UDT      0.054700
     36 HS1        13.0700   -0.1700    8.9920 hs        1 UDT      0.220800
@<TRIPOS>BOND
     1    1    2 1   
     2    1   15 1   
     3    1   16 1   
     4    1   17 1   
     5    2    3 1   
     6    2   18 1   
     7    2   19 1   
     8    3    4 1   
     9    3   20 1   
    10    3   21 1   
    11    4    5 1   
    12    4   22 1   
    13    4   23 1   
    14    5    6 1   
    15    5   24 1   
    16    5   25 1   
    17    6    7 1   
    18    6   26 1   
    19    6   27 1   
    20    7    8 1   
    21    7   28 1   
    22    7   29 1   
    23    8    9 1   
    24    8   30 1   
    25    8   31 1   
    26    9   10 1   
    27    9   32 1   
    28    9   33 1   
    29   10   11 1   
    30   10   34 1   
    31   10   35 1   
    32   11   12 1   
    33   12   13 2   
    34   12   14 1   
    35   14   36 1   
@<TRIPOS>SUBSTRUCTURE
     1 UDT         1 TEMP              0 ****  ****    0 ROOT
