@<TRIPOS>MOLECULE
UDT
   36    35     1     0     0
SMALL
bcc


@<TRIPOS>ATOM
      1 C11         8.5380   -0.4610    0.0010 c3        1 UDT     -0.092100
      2 C10         7.3030    0.4020   -0.0020 c3        1 UDT     -0.080400
      3 C9          6.0410   -0.4350    0.0010 c3        1 UDT     -0.079400
      4 C8          4.8030    0.4360   -0.0020 c3        1 UDT     -0.079400
      5 C7          3.5420   -0.4020    0.0010 c3        1 UDT     -0.079400
      6 C6          2.3040    0.4690   -0.0020 c3        1 UDT     -0.079400
      7 C5          1.0440   -0.3690    0.0010 c3        1 UDT     -0.078400
      8 C4         -0.1940    0.5030   -0.0020 c3        1 UDT     -0.078400
      9 C3         -1.4500   -0.3390    0.0010 c3        1 UDT     -0.085400
     10 C2         -2.6760    0.5540   -0.0020 c3        1 UDT      0.136400
     11 O2         -3.8100   -0.3360    0.0010 os        1 UDT     -0.416900
     12 C1         -5.0410    0.2500   -0.0010 c         1 UDT      0.637700
     13 O1         -5.1150    1.4830   -0.0050 o         1 UDT     -0.540000
     14 S1         -6.2900   -0.9340    0.0030 sh        1 UDT     -0.196400
     15 H111        8.5620   -1.1120    0.9080 hc        1 UDT      0.032700
     16 H112        8.5620   -1.1190   -0.9010 hc        1 UDT      0.032700
     17 H113        9.4560    0.1750   -0.0010 hc        1 UDT      0.032700
     18 H101        7.3090    1.0710    0.8980 hc        1 UDT      0.038700
     19 H102        7.3090    1.0650   -0.9060 hc        1 UDT      0.038700
     20 H91         6.0320   -1.1040   -0.8990 hc        1 UDT      0.039700
     21 H92         6.0320   -1.0980    0.9060 hc        1 UDT      0.039700
     22 H81         4.8120    1.1050    0.8980 hc        1 UDT      0.039700
     23 H82         4.8120    1.0990   -0.9070 hc        1 UDT      0.039700
     24 H71         3.5330   -1.0710   -0.8990 hc        1 UDT      0.039700
     25 H72         3.5330   -1.0650    0.9060 hc        1 UDT      0.039700
     26 H61         2.3130    1.1390    0.8980 hc        1 UDT      0.040700
     27 H62         2.3130    1.1330   -0.9070 hc        1 UDT      0.040700
     28 H51         1.0340   -1.0380   -0.8990 hc        1 UDT      0.041700
     29 H52         1.0340   -1.0320    0.9060 hc        1 UDT      0.041700
     30 H41        -0.1850    1.1720    0.8990 hc        1 UDT      0.042700
     31 H42        -0.1850    1.1660   -0.9070 hc        1 UDT      0.042700
     32 H31        -1.4720   -1.0070   -0.8990 hc        1 UDT      0.056700
     33 H32        -1.4720   -1.0010    0.9060 hc        1 UDT      0.056700
     34 H21        -2.7250    1.2040    0.9100 h1        1 UDT      0.054700
     35 H22        -2.7250    1.1980   -0.9180 h1        1 UDT      0.054700
     36 HS1        -7.3160   -0.0890    0.0000 hs        1 UDT      0.220800
@<TRIPOS>BOND
     1    1    2 1   
     2    1   15 1   
     3    1   16 1   
     4    1   17 1   
     5    2    3 1   
     6    2   18 1   
     7    2   19 1   
     8    3    4 1   
     9    3   20 1   
    10    3   21 1   
    11    4    5 1   
    12    4   22 1   
    13    4   23 1   
    14    5    6 1   
    15    5   24 1   
    16    5   25 1   
    17    6    7 1   
    18    6   26 1   
    19    6   27 1   
    20    7    8 1   
    21    7   28 1   
    22    7   29 1   
    23    8    9 1   
    24    8   30 1   
    25    8   31 1   
    26    9   10 1   
    27    9   32 1   
    28    9   33 1   
    29   10   11 1   
    30   10   34 1   
    31   10   35 1   
    32   11   12 1   
    33   12   13 2   
    34   12   14 1   
    35   14   36 1   
@<TRIPOS>SUBSTRUCTURE
     1 UDT         1 TEMP              0 ****  ****    0 ROOT
