@<TRIPOS>MOLECULE
UEG
   23    23     1     0     0
SMALL
bcc


@<TRIPOS>ATOM
      1 OP4         0.0370    0.2820   -0.0280 oh        1 UEG     -0.602800
      2 C5A         1.4330    0.0190   -0.0420 c3        1 UEG      0.170700
      3 C5          1.9450   -0.0080    1.3580 ca        1 UEG     -0.151600
      4 C6          1.0690    0.0430    2.4630 ca        1 UEG      0.389200
      5 N1          1.4730    0.0130    3.7410 nb        1 UEG     -0.633000
      6 C2          2.8010   -0.0680    3.9940 ca        1 UEG      0.336600
      7 C3          3.7520   -0.1210    2.9400 ca        1 UEG      0.013800
      8 C4          3.3230   -0.0930    1.5970 ca        1 UEG     -0.126300
      9 C4A         4.3100   -0.1750    0.4760 c3        1 UEG      0.174700
     10 O4A         4.3370    1.0030   -0.3110 oh        1 UEG     -0.599800
     11 O3          5.1100   -0.1860    3.1510 oh        1 UEG     -0.499100
     12 C2A         3.2730   -0.1030    5.4110 c3        1 UEG     -0.154400
     13 HP4        -0.2120    0.4530   -0.9440 ho        1 UEG      0.408000
     14 H5A         1.9780    0.8120   -0.6280 h1        1 UEG      0.049700
     15 H5B         1.6170   -0.9810   -0.5280 h1        1 UEG      0.049700
     16 H6         -0.0240    0.1160    2.3010 h4        1 UEG      0.049100
     17 H2A         3.8200   -1.0600    5.6030 hc        1 UEG      0.054367
     18 H2B         3.9630    0.7570    5.6000 hc        1 UEG      0.054367
     19 H2C         2.4240   -0.0360    6.1360 hc        1 UEG      0.054367
     20 H3          5.2670   -0.2770    4.1030 ho        1 UEG      0.427000
     21 H4A         4.0070   -0.9840   -0.2460 h1        1 UEG      0.063700
     22 H4B         5.3390   -0.3940    0.8710 h1        1 UEG      0.063700
     23 H5          4.6040    1.7280    0.2670 ho        1 UEG      0.407000
@<TRIPOS>BOND
     1    1    2 1   
     2    1   13 1   
     3    2    3 1   
     4    2   14 1   
     5    2   15 1   
     6    3    4 ar  
     7    3    8 ar  
     8    4    5 ar  
     9    4   16 1   
    10    5    6 ar  
    11    6    7 ar  
    12    6   12 1   
    13    7    8 ar  
    14    7   11 1   
    15    8    9 1   
    16    9   10 1   
    17    9   21 1   
    18    9   22 1   
    19   10   23 1   
    20   11   20 1   
    21   12   17 1   
    22   12   18 1   
    23   12   19 1   
@<TRIPOS>SUBSTRUCTURE
     1 UEG         1 TEMP              0 ****  ****    0 ROOT
