@<TRIPOS>MOLECULE
UEG
   23    23     1     0     0
SMALL
bcc


@<TRIPOS>ATOM
      1 OP4         0.0260    0.2890   -0.0120 oh        1 UEG     -0.602800
      2 C5A         1.4230    0.0340   -0.0350 c3        1 UEG      0.170700
      3 C5          1.9420   -0.0050    1.3620 ca        1 UEG     -0.151600
      4 C6          1.0710    0.0290    2.4720 ca        1 UEG      0.389200
      5 N1          1.4820   -0.0130    3.7480 nb        1 UEG     -0.633000
      6 C2          2.8110   -0.0900    3.9940 ca        1 UEG      0.336600
      7 C3          3.7570   -0.1250    2.9340 ca        1 UEG      0.013800
      8 C4          3.3210   -0.0860    1.5940 ca        1 UEG     -0.126300
      9 C4A         4.3030   -0.1490    0.4670 c3        1 UEG      0.174700
     10 O4A         4.3200    1.0370   -0.3070 oh        1 UEG     -0.599800
     11 O3          5.1160   -0.1850    3.1380 oh        1 UEG     -0.499100
     12 C2A         3.2900   -0.1380    5.4080 c3        1 UEG     -0.154400
     13 HP4        -0.2300    0.4680   -0.9240 ho        1 UEG      0.408000
     14 H5A         1.9610    0.8370   -0.6150 h1        1 UEG      0.049700
     15 H5B         1.6100   -0.9600   -0.5330 h1        1 UEG      0.049700
     16 H6         -0.0230    0.0980    2.3160 h4        1 UEG      0.049100
     17 H2A         3.8440   -1.0930    5.5860 hc        1 UEG      0.054367
     18 H2B         3.9760    0.7240    5.6030 hc        1 UEG      0.054367
     19 H2C         2.4450   -0.0830    6.1370 hc        1 UEG      0.054367
     20 H3          5.2790   -0.2860    4.0880 ho        1 UEG      0.427000
     21 H4A         4.0010   -0.9520   -0.2630 h1        1 UEG      0.063700
     22 H4B         5.3350   -0.3670    0.8540 h1        1 UEG      0.063700
     23 H5          4.5850    1.7570    0.2780 ho        1 UEG      0.407000
@<TRIPOS>BOND
     1    1    2 1   
     2    1   13 1   
     3    2    3 1   
     4    2   14 1   
     5    2   15 1   
     6    3    4 ar  
     7    3    8 ar  
     8    4    5 ar  
     9    4   16 1   
    10    5    6 ar  
    11    6    7 ar  
    12    6   12 1   
    13    7    8 ar  
    14    7   11 1   
    15    8    9 1   
    16    9   10 1   
    17    9   21 1   
    18    9   22 1   
    19   10   23 1   
    20   11   20 1   
    21   12   17 1   
    22   12   18 1   
    23   12   19 1   
@<TRIPOS>SUBSTRUCTURE
     1 UEG         1 TEMP              0 ****  ****    0 ROOT
