@<TRIPOS>MOLECULE
UEK
   69    72     1     0     0
SMALL
bcc


@<TRIPOS>ATOM
      1 CL1         0.0870   -0.0390   -1.4090 cl        1 UEK     -0.036400
      2 C26         1.6480   -0.1300   -0.7650 ca        1 UEK      0.036400
      3 C25         2.0090   -1.2140    0.0430 ca        1 UEK     -0.113500
      4 C24         3.2960   -1.2840    0.5710 ca        1 UEK     -0.122500
      5 C27         2.5740    0.8850   -1.0380 ca        1 UEK     -0.113500
      6 C28         3.8590    0.8060   -0.5080 ca        1 UEK     -0.122500
      7 C23         4.2320   -0.2800    0.2940 ca        1 UEK     -0.161300
      8 C22         5.5970   -0.3450    0.8790 c3        1 UEK     -0.058100
      9 C           6.5310   -1.2310    0.0400 c3        1 UEK      0.139500
     10 N           6.5180   -0.8110   -1.4020 n4        1 UEK     -0.847600
     11 C1          7.9390   -1.2160    0.6360 c3        1 UEK     -0.185400
     12 C2          8.8710   -2.1830   -0.0800 c         1 UEK      0.654100
     13 O           8.6110   -2.5410   -1.2590 o         1 UEK     -0.679100
     14 N1          9.9630   -2.6570    0.5780 n         1 UEK     -0.426800
     15 C7         10.9620   -3.4970   -0.0700 c3        1 UEK      0.087000
     16 C6         12.2630   -3.3850    0.7600 c3        1 UEK     -0.023400
     17 C4         11.8950   -2.5910    2.0280 c3        1 UEK     -0.108700
     18 C5         12.7890   -1.3670    2.1920 c3        1 UEK      0.128400
     19 O1         12.3530   -0.5590    3.2670 oh        1 UEK     -0.600800
     20 C3         10.4160   -2.1780    1.8720 c3        1 UEK      0.079000
     21 C8         12.8340   -4.7290    1.0680 ca        1 UEK     -0.070300
     22 C21        14.1080   -5.0460    0.5970 ca        1 UEK     -0.148000
     23 C12        14.6900   -6.3070    0.8580 ca        1 UEK      0.097600
     24 C11        13.9310   -7.2380    1.6210 ca        1 UEK     -0.036600
     25 CL         14.5490   -8.7810    1.9870 cl        1 UEK     -0.080400
     26 C10        12.6600   -6.9080    2.0900 ca        1 UEK     -0.089000
     27 C9         12.1090   -5.6620    1.8160 ca        1 UEK     -0.156000
     28 N2         15.9690   -6.6570    0.4150 n         1 UEK     -0.467100
     29 C13        16.7800   -5.9520   -0.4690 c         1 UEK      0.673100
     30 O2         16.4620   -4.8520   -0.9540 o         1 UEK     -0.593100
     31 C14        18.1330   -6.5730   -0.7910 c3        1 UEK     -0.106100
     32 C15        18.0760   -8.0340   -1.0540 ca        1 UEK     -0.125300
     33 C20        17.7730   -8.5060   -2.3370 ca        1 UEK     -0.098500
     34 C19        17.7370   -9.8700   -2.6020 ca        1 UEK     -0.161500
     35 C18        18.0120  -10.7840   -1.5670 ca        1 UEK      0.140900
     36 F          17.9780  -12.1140   -1.8140 f         1 UEK     -0.129900
     37 C17        18.3240  -10.3180   -0.2760 ca        1 UEK     -0.161500
     38 C16        18.3540   -8.9500   -0.0320 ca        1 UEK     -0.098500
     39 H25         1.2760   -2.0060    0.2710 ha        1 UEK      0.168500
     40 H27         2.2840    1.7500   -1.6570 ha        1 UEK      0.168500
     41 H24         3.5710   -2.1300    1.2210 ha        1 UEK      0.140000
     42 H28         4.5690    1.6270   -0.6930 ha        1 UEK      0.140000
     43 H221        6.0330    0.6850    0.9800 hc        1 UEK      0.089200
     44 H222        5.5530   -0.7900    1.9110 hc        1 UEK      0.089200
     45 H           6.1410   -2.2960    0.0490 hx        1 UEK      0.119700
     46 HN1         5.5480   -0.7610   -1.7300 hn        1 UEK      0.468133
     47 HN2         6.9540    0.1070   -1.5060 hn        1 UEK      0.468133
     48 H11C        7.8400   -1.4920    1.7230 hc        1 UEK      0.104200
     49 H12C        8.3890   -0.1880    0.5920 hc        1 UEK      0.104200
     50 H71C       10.5850   -4.5570   -0.0950 h1        1 UEK      0.078200
     51 H72C       11.1230   -3.1550   -1.1290 h1        1 UEK      0.078200
     52 H31C        9.7910   -2.6520    2.6800 h1        1 UEK      0.060700
     53 H32C       10.3080   -1.0600    1.9500 h1        1 UEK      0.060700
     54 H6         13.0120   -2.7950    0.1590 hc        1 UEK      0.080700
     55 H4         11.9950   -3.2410    2.9380 hc        1 UEK      0.082700
     56 H51C       12.7220   -0.6980    1.2910 h1        1 UEK      0.061200
     57 H52C       13.8540   -1.6910    2.3350 h1        1 UEK      0.061200
     58 H1         12.6190   -0.9940    4.0850 ho        1 UEK      0.409000
     59 H21        14.6650   -4.2960    0.0080 ha        1 UEK      0.181000
     60 H9         11.1040   -5.4140    2.1880 ha        1 UEK      0.133000
     61 H2         16.2910   -7.5670    0.6830 hn        1 UEK      0.338500
     62 H10        12.0890   -7.6440    2.6790 ha        1 UEK      0.154000
     63 H141       18.5350   -6.0320   -1.6920 hc        1 UEK      0.091200
     64 H142       18.8200   -6.3540    0.0710 hc        1 UEK      0.091200
     65 H20        17.5650   -7.7900   -3.1490 ha        1 UEK      0.142500
     66 H16        18.6120   -8.5870    0.9750 ha        1 UEK      0.142500
     67 H19        17.5000  -10.2430   -3.6100 ha        1 UEK      0.157000
     68 H17        18.5470  -11.0390    0.5250 ha        1 UEK      0.157000
     69 HN3         7.0560   -1.5050   -1.9560 hn        1 UEK      0.468133
@<TRIPOS>BOND
     1    1    2 1   
     2    2    3 ar  
     3    2    5 ar  
     4    3    4 ar  
     5    3   39 1   
     6    4    7 ar  
     7    4   41 1   
     8    5    6 ar  
     9    5   40 1   
    10    6    7 ar  
    11    6   42 1   
    12    7    8 1   
    13    8    9 1   
    14    8   43 1   
    15    8   44 1   
    16    9   10 1   
    17    9   11 1   
    18    9   45 1   
    19   10   46 1   
    20   10   47 1   
    21   10   69 1   
    22   11   12 1   
    23   11   48 1   
    24   11   49 1   
    25   12   13 2   
    26   12   14 1   
    27   14   15 1   
    28   14   20 1   
    29   15   16 1   
    30   15   50 1   
    31   15   51 1   
    32   16   17 1   
    33   16   21 1   
    34   16   54 1   
    35   17   18 1   
    36   17   20 1   
    37   17   55 1   
    38   18   19 1   
    39   18   56 1   
    40   18   57 1   
    41   19   58 1   
    42   20   52 1   
    43   20   53 1   
    44   21   22 ar  
    45   21   27 ar  
    46   22   23 ar  
    47   22   59 1   
    48   23   24 ar  
    49   23   28 1   
    50   24   25 1   
    51   24   26 ar  
    52   26   27 ar  
    53   26   62 1   
    54   27   60 1   
    55   28   29 1   
    56   28   61 1   
    57   29   30 2   
    58   29   31 1   
    59   31   32 1   
    60   31   63 1   
    61   31   64 1   
    62   32   33 ar  
    63   32   38 ar  
    64   33   34 ar  
    65   33   65 1   
    66   34   35 ar  
    67   34   67 1   
    68   35   36 1   
    69   35   37 ar  
    70   37   38 ar  
    71   37   68 1   
    72   38   66 1   
@<TRIPOS>SUBSTRUCTURE
     1 UEK         1 TEMP              0 ****  ****    0 ROOT
