@<TRIPOS>MOLECULE
UEK
   69    72     1     0     0
SMALL
bcc


@<TRIPOS>ATOM
      1 Cl1         0.0870   -0.0650   -1.4650 cl        1 UEK     -0.036400
      2 C26         1.6450   -0.1510   -0.8150 ca        1 UEK      0.036400
      3 C25         2.0050   -1.2320   -0.0030 ca        1 UEK     -0.113500
      4 C24         3.2910   -1.2980    0.5300 ca        1 UEK     -0.122500
      5 C27         2.5700    0.8660   -1.0870 ca        1 UEK     -0.113500
      6 C28         3.8530    0.7910   -0.5520 ca        1 UEK     -0.122500
      7 C23         4.2250   -0.2920    0.2550 ca        1 UEK     -0.161300
      8 C22         5.5880   -0.3530    0.8450 c3        1 UEK     -0.058100
      9 C           6.5270   -1.2390    0.0130 c3        1 UEK      0.139500
     10 N           6.5190   -0.8230   -1.4310 nz        1 UEK     -0.847600
     11 C1          7.9320   -1.2190    0.6150 c3        1 UEK     -0.185400
     12 C2          8.8700   -2.1870   -0.0950 c         1 UEK      0.654100
     13 O           8.6160   -2.5480   -1.2740 o         1 UEK     -0.679100
     14 N1          9.9590   -2.6570    0.5690 n         1 UEK     -0.426800
     15 C7         10.9630   -3.4970   -0.0720 c3        1 UEK      0.087000
     16 C6         12.2600   -3.3810    0.7630 c3        1 UEK     -0.023400
     17 C4         11.8840   -2.5840    2.0270 c3        1 UEK     -0.108700
     18 C5         12.7760   -1.3580    2.1920 c3        1 UEK      0.128400
     19 O1         12.3340   -0.5480    3.2630 oh        1 UEK     -0.600800
     20 C3         10.4060   -2.1740    1.8640 c3        1 UEK      0.079000
     21 C8         12.8320   -4.7230    1.0770 ca        1 UEK     -0.070300
     22 C21        14.1090   -5.0390    0.6120 ca        1 UEK     -0.148000
     23 C12        14.6910   -6.2990    0.8790 ca        1 UEK      0.097600
     24 C11        13.9310   -7.2280    1.6410 ca        1 UEK     -0.036600
     25 Cl         14.5500   -8.7700    2.0140 cl        1 UEK     -0.080400
     26 C10        12.6570   -6.9000    2.1040 ca        1 UEK     -0.089000
     27 C9         12.1050   -5.6550    1.8240 ca        1 UEK     -0.156000
     28 N2         15.9730   -6.6480    0.4430 ns        1 UEK     -0.467100
     29 C13        16.7840   -5.9460   -0.4430 c         1 UEK      0.673100
     30 O2         16.4650   -4.8490   -0.9360 o         1 UEK     -0.593100
     31 C14        18.1410   -6.5640   -0.7570 c3        1 UEK     -0.106100
     32 C15        18.0900   -8.0270   -1.0110 ca        1 UEK     -0.125300
     33 C20        17.7930   -8.5080   -2.2920 ca        1 UEK     -0.098500
     34 C19        17.7620   -9.8750   -2.5470 ca        1 UEK     -0.161500
     35 C18        18.0360  -10.7800   -1.5050 ca        1 UEK      0.140900
     36 F          18.0080  -12.1120   -1.7430 f         1 UEK     -0.129900
     37 C17        18.3430  -10.3050   -0.2160 ca        1 UEK     -0.161500
     38 C16        18.3670   -8.9340    0.0190 ca        1 UEK     -0.098500
     39 H25         1.2730   -2.0250    0.2250 ha        1 UEK      0.168500
     40 H27         2.2800    1.7280   -1.7090 ha        1 UEK      0.168500
     41 H24         3.5640   -2.1410    1.1840 ha        1 UEK      0.140000
     42 H28         4.5620    1.6130   -0.7360 ha        1 UEK      0.140000
     43 H221        5.5400   -0.7950    1.8780 hc        1 UEK      0.089200
     44 H222        6.0210    0.6790    0.9450 hc        1 UEK      0.089200
     45 H           6.1400   -2.3050    0.0230 hx        1 UEK      0.119700
     46 HN1         5.5500   -0.7760   -1.7630 hn        1 UEK      0.468133
     47 HN2         6.9540    0.0950   -1.5360 hn        1 UEK      0.468133
     48 H11C        8.3810   -0.1900    0.5700 hc        1 UEK      0.104200
     49 H12C        7.8290   -1.4930    1.7010 hc        1 UEK      0.104200
     50 H71C       10.5880   -4.5580   -0.0960 h1        1 UEK      0.078200
     51 H72C       11.1290   -3.1580   -1.1310 h1        1 UEK      0.078200
     52 H31C        9.7780   -2.6460    2.6700 h1        1 UEK      0.060700
     53 H32C       10.2960   -1.0560    1.9380 h1        1 UEK      0.060700
     54 H6         13.0110   -2.7910    0.1640 hc        1 UEK      0.080700
     55 H4         11.9820   -3.2320    2.9390 hc        1 UEK      0.082700
     56 H51C       12.7130   -0.6920    1.2890 h1        1 UEK      0.061200
     57 H52C       13.8410   -1.6800    2.3410 h1        1 UEK      0.061200
     58 H1         12.5980   -0.9810    4.0840 ho        1 UEK      0.409000
     59 H21        14.6670   -4.2890    0.0240 ha        1 UEK      0.181000
     60 H9         11.0980   -5.4070    2.1910 ha        1 UEK      0.133000
     61 H2         16.2970   -7.5550    0.7170 hn        1 UEK      0.338500
     62 H10        12.0850   -7.6350    2.6930 ha        1 UEK      0.154000
     63 H141       18.5430   -6.0280   -1.6600 hc        1 UEK      0.091200
     64 H142       18.8240   -6.3360    0.1060 hc        1 UEK      0.091200
     65 H20        17.5860   -7.7990   -3.1090 ha        1 UEK      0.142500
     66 H16        18.6190   -8.5640    1.0250 ha        1 UEK      0.142500
     67 H19        17.5310  -10.2550   -3.5530 ha        1 UEK      0.157000
     68 H17        18.5650  -11.0190    0.5900 ha        1 UEK      0.157000
     69 HN3         7.0610   -1.5180   -1.9800 hn        1 UEK      0.468133
@<TRIPOS>BOND
     1    1    2 1   
     2    2    3 ar  
     3    2    5 ar  
     4    3    4 ar  
     5    3   39 1   
     6    4    7 ar  
     7    4   41 1   
     8    5    6 ar  
     9    5   40 1   
    10    6    7 ar  
    11    6   42 1   
    12    7    8 1   
    13    8    9 1   
    14    8   43 1   
    15    8   44 1   
    16    9   10 1   
    17    9   11 1   
    18    9   45 1   
    19   10   46 1   
    20   10   47 1   
    21   10   69 1   
    22   11   12 1   
    23   11   48 1   
    24   11   49 1   
    25   12   13 2   
    26   12   14 1   
    27   14   15 1   
    28   14   20 1   
    29   15   16 1   
    30   15   50 1   
    31   15   51 1   
    32   16   17 1   
    33   16   21 1   
    34   16   54 1   
    35   17   18 1   
    36   17   20 1   
    37   17   55 1   
    38   18   19 1   
    39   18   56 1   
    40   18   57 1   
    41   19   58 1   
    42   20   52 1   
    43   20   53 1   
    44   21   22 ar  
    45   21   27 ar  
    46   22   23 ar  
    47   22   59 1   
    48   23   24 ar  
    49   23   28 1   
    50   24   25 1   
    51   24   26 ar  
    52   26   27 ar  
    53   26   62 1   
    54   27   60 1   
    55   28   29 1   
    56   28   61 1   
    57   29   30 2   
    58   29   31 1   
    59   31   32 1   
    60   31   63 1   
    61   31   64 1   
    62   32   33 ar  
    63   32   38 ar  
    64   33   34 ar  
    65   33   65 1   
    66   34   35 ar  
    67   34   67 1   
    68   35   36 1   
    69   35   37 ar  
    70   37   38 ar  
    71   37   68 1   
    72   38   66 1   
@<TRIPOS>SUBSTRUCTURE
     1 UEK         1 TEMP              0 ****  ****    0 ROOT
