@<TRIPOS>MOLECULE
UEK
   68    71     1     0     0
SMALL
bcc


@<TRIPOS>ATOM
      1 CL1         0.7050   -2.2650    1.8370 cl        1 UEK     -0.101400
      2 C26         2.1920   -1.6110    1.3310 ca        1 UEK      0.016400
      3 C25         3.1980   -1.3670    2.2710 ca        1 UEK     -0.126500
      4 C24         4.4120   -0.8300    1.8510 ca        1 UEK     -0.109000
      5 C27         2.3990   -1.3210   -0.0210 ca        1 UEK     -0.126500
      6 C28         3.6170   -0.7820   -0.4290 ca        1 UEK     -0.109000
      7 C23         4.6330   -0.5330    0.5010 ca        1 UEK     -0.073300
      8 C22         5.9290    0.0560    0.0680 c3        1 UEK     -0.032100
      9 C           6.8740   -1.0020   -0.5360 c3        1 UEK      0.181500
     10 N           6.4100   -1.4820   -1.8200 n3        1 UEK     -0.899800
     11 C1          8.2960   -0.3980   -0.5380 c3        1 UEK     -0.193400
     12 C2          9.2960   -1.4000   -1.0770 c         1 UEK      0.661100
     13 O           9.2990   -1.7000   -2.2920 o         1 UEK     -0.627100
     14 N1         10.1770   -2.0240   -0.2210 n         1 UEK     -0.475800
     15 C7         11.1890   -2.9420   -0.7120 c3        1 UEK      0.095000
     16 C6         12.2460   -3.1160    0.4050 c3        1 UEK     -0.033400
     17 C4         11.6680   -2.3990    1.6420 c3        1 UEK     -0.072700
     18 C5         12.6950   -1.4620    2.2590 c3        1 UEK      0.133400
     19 O1         12.0940   -0.8670    3.3990 oh        1 UEK     -0.605800
     20 C3         10.4180   -1.6350    1.1530 c3        1 UEK      0.099000
     21 C8         12.5500   -4.5520    0.6710 ca        1 UEK     -0.052300
     22 C21        13.8660   -5.0020    0.5580 ca        1 UEK     -0.147000
     23 C12        14.1990   -6.3500    0.8100 ca        1 UEK      0.083600
     24 C11        13.1490   -7.2350    1.1730 ca        1 UEK     -0.036600
     25 CL         13.4590   -8.8830    1.4870 cl        1 UEK     -0.101400
     26 C10        11.8350   -6.7790    1.2760 ca        1 UEK     -0.094000
     27 C9         11.5330   -5.4440    1.0320 ca        1 UEK     -0.143000
     28 N2         15.5080   -6.8390    0.7060 n         1 UEK     -0.467100
     29 C13        16.6760   -6.0970    0.6160 c         1 UEK      0.671100
     30 O2         16.7010   -4.8530    0.6080 o         1 UEK     -0.594100
     31 C14        17.9800   -6.8850    0.5660 c3        1 UEK     -0.110100
     32 C15        17.9360   -8.0660   -0.3340 ca        1 UEK     -0.116300
     33 C20        18.1970   -7.9180   -1.7020 ca        1 UEK     -0.099000
     34 C19        18.1770   -9.0190   -2.5510 ca        1 UEK     -0.161500
     35 C18        17.8950  -10.2940   -2.0270 ca        1 UEK      0.134900
     36 F          17.8750  -11.3720   -2.8450 f         1 UEK     -0.134900
     37 C17        17.6350  -10.4520   -0.6530 ca        1 UEK     -0.161500
     38 C16        17.6580   -9.3380    0.1800 ca        1 UEK     -0.099000
     39 H25         3.0340   -1.5970    3.3340 ha        1 UEK      0.145000
     40 H27         1.6080   -1.5180   -0.7600 ha        1 UEK      0.145000
     41 H24         5.2030   -0.6390    2.5920 ha        1 UEK      0.139500
     42 H28         3.7870   -0.5650   -1.4950 ha        1 UEK      0.139500
     43 H221        5.7430    0.8720   -0.6810 hc        1 UEK      0.049700
     44 H222        6.4420    0.5230    0.9510 hc        1 UEK      0.049700
     45 H           6.8860   -1.8950    0.1600 h1        1 UEK      0.068700
     46 HN1         7.0330   -2.1850   -2.1730 hn        1 UEK      0.359800
     47 HN2         6.3670   -0.7320   -2.4820 hn        1 UEK      0.359800
     48 H11C        8.5510   -0.0590    0.4980 hc        1 UEK      0.069200
     49 H12C        8.3280    0.4990   -1.2120 hc        1 UEK      0.069200
     50 H71C       11.6600   -2.5360   -1.6490 h1        1 UEK      0.064200
     51 H72C       10.7030   -3.9230   -0.9690 h1        1 UEK      0.064200
     52 H31C       10.5840   -0.5250    1.2370 h1        1 UEK      0.051200
     53 H32C        9.5280   -1.9030    1.7850 h1        1 UEK      0.051200
     54 H6         13.1880   -2.5930    0.0800 hc        1 UEK      0.070700
     55 H4         11.3550   -3.1470    2.4180 hc        1 UEK      0.082700
     56 H51C       13.6080   -2.0430    2.5580 h1        1 UEK      0.033200
     57 H52C       12.9940   -0.6600    1.5300 h1        1 UEK      0.033200
     58 H1         12.7900   -0.3800    3.8540 ho        1 UEK      0.406000
     59 H21        14.6560   -4.2870    0.2690 ha        1 UEK      0.176000
     60 H9         10.4950   -5.0900    1.1190 ha        1 UEK      0.147000
     61 H2         15.6050   -7.8340    0.6950 hn        1 UEK      0.333500
     62 H10        11.0330   -7.4810    1.5560 ha        1 UEK      0.151000
     63 H141       18.7810   -6.1710    0.2280 hc        1 UEK      0.086700
     64 H142       18.2260   -7.1990    1.6170 hc        1 UEK      0.086700
     65 H20        18.4210   -6.9200   -2.1110 ha        1 UEK      0.142500
     66 H16        17.4620   -9.4650    1.2560 ha        1 UEK      0.142500
     67 H19        18.3810   -8.9040   -3.6260 ha        1 UEK      0.154500
     68 H17        17.4180  -11.4520   -0.2510 ha        1 UEK      0.154500
@<TRIPOS>BOND
     1    1    2 1   
     2    2    3 ar  
     3    2    5 ar  
     4    3    4 ar  
     5    3   39 1   
     6    4    7 ar  
     7    4   41 1   
     8    5    6 ar  
     9    5   40 1   
    10    6    7 ar  
    11    6   42 1   
    12    7    8 1   
    13    8    9 1   
    14    8   43 1   
    15    8   44 1   
    16    9   10 1   
    17    9   11 1   
    18    9   45 1   
    19   10   46 1   
    20   10   47 1   
    21   11   12 1   
    22   11   48 1   
    23   11   49 1   
    24   12   13 2   
    25   12   14 1   
    26   14   15 1   
    27   14   20 1   
    28   15   16 1   
    29   15   50 1   
    30   15   51 1   
    31   16   17 1   
    32   16   21 1   
    33   16   54 1   
    34   17   18 1   
    35   17   20 1   
    36   17   55 1   
    37   18   19 1   
    38   18   56 1   
    39   18   57 1   
    40   19   58 1   
    41   20   52 1   
    42   20   53 1   
    43   21   22 ar  
    44   21   27 ar  
    45   22   23 ar  
    46   22   59 1   
    47   23   24 ar  
    48   23   28 1   
    49   24   25 1   
    50   24   26 ar  
    51   26   27 ar  
    52   26   62 1   
    53   27   60 1   
    54   28   29 1   
    55   28   61 1   
    56   29   30 2   
    57   29   31 1   
    58   31   32 1   
    59   31   63 1   
    60   31   64 1   
    61   32   33 ar  
    62   32   38 ar  
    63   33   34 ar  
    64   33   65 1   
    65   34   35 ar  
    66   34   67 1   
    67   35   36 1   
    68   35   37 ar  
    69   37   38 ar  
    70   37   68 1   
    71   38   66 1   
@<TRIPOS>SUBSTRUCTURE
     1 UEK         1 TEMP              0 ****  ****    0 ROOT
