@<TRIPOS>MOLECULE
UEN
   44    42     1     0     0
SMALL
bcc


@<TRIPOS>ATOM
      1 CAJ        -1.7000    0.6430    0.2530 c2        1 UEN     -0.182000
      2 CAK         1.4460    0.9820    1.9710 c3        1 UEN     -0.222000
      3 CAX        -0.0780    1.0770    2.0990 c3        1 UEN      0.043000
      4 CAI         2.7590   -1.6240   -0.2660 c2        1 UEN     -0.219500
      5 CAH         3.8540   -1.4080   -0.9810 c2        1 UEN     -0.219500
      6 CAL        -0.6570    1.3170    0.7280 c2        1 UEN     -0.212000
      7 NAO        -0.4490    2.1010    3.0650 nh        1 UEN     -0.281000
      8 C5         -2.0920    3.3580    4.3440 c2        1 UEN     -0.355000
      9 C4         -3.3380    3.3430    5.0520 c2        1 UEN      0.248000
     10 C6         -1.7150    2.1640    3.6400 c2        1 UEN      0.247000
     11 N1         -2.5400    1.0750    3.5910 n2        1 UEN     -0.316000
     12 CAT        -1.2130    4.5270    4.3900 c2        1 UEN     -0.371000
     13 C2         -3.7430    1.1760    4.2710 c2        1 UEN      0.231000
     14 NAA        -4.6270    0.1060    4.1470 nh        1 UEN     -0.334000
     15 N3         -4.1740    2.2590    5.0180 n2        1 UEN     -0.324000
     16 CAG        -1.4100    5.4570    3.4490 c1        1 UEN      0.331000
     17 CAD         1.4750    6.5470    5.7480 c1        1 UEN      0.166000
     18 CAQ         2.0740    8.4120    3.2020 c2        1 UEN      0.040000
     19 CAF         0.6420    5.6030    5.5770 c1        1 UEN     -0.607000
     20 CAC         0.8430    8.4720    2.7490 c1        1 UEN     -0.244000
     21 CAE        -0.3970    8.5080    2.3770 c2        1 UEN     -0.131000
     22 CAS        -0.2050    4.5920    5.4260 c2        1 UEN      0.260000
     23 NAP        -3.7030    4.4240    5.8290 nh        1 UEN     -0.357000
     24 HAK1        1.9110    0.7370    2.9560 hc        1 UEN      0.087000
     25 HAK2        1.8830    1.9380    1.5950 hc        1 UEN      0.087000
     26 HAI1        1.6910    0.1690    1.2440 hc        1 UEN      0.087000
     27 HAI2        2.7870   -2.0180    0.7590 ha        1 UEN      0.109750
     28 HAX        -0.4520    0.0830    2.4930 h1        1 UEN      0.127000
     29 HAH1        1.7490   -1.4280   -0.6520 ha        1 UEN      0.109750
     30 HAH2        4.8640   -1.6060   -0.5960 ha        1 UEN      0.109750
     31 HAJ1        3.8260   -1.0160   -2.0070 ha        1 UEN      0.109750
     32 HAJ2       -2.2310   -0.1210    0.8380 ha        1 UEN      0.118500
     33 HAL1       -2.0980    0.8180   -0.7560 ha        1 UEN      0.118500
     34 HAL2       -0.1430    2.0880    0.1320 ha        1 UEN      0.122000
     35 HAO        -0.0150    2.9870    2.9170 hn        1 UEN      0.215000
     36 HAA1       -4.2630   -0.7540    3.8120 hn        1 UEN      0.230500
     37 HAA2       -5.3880    0.0630    4.7830 hn        1 UEN      0.230500
     38 HAG        -4.6180    4.4690    6.2070 hn        1 UEN      0.231500
     39 HAF        -0.1760    3.7190    6.1120 ha        1 UEN      0.149000
     40 HAC        -0.9470    7.5970    2.0840 ha        1 UEN      0.131500
     41 HAD         2.3050    8.2300    4.2730 h4        1 UEN      0.185000
     42 HAP        -3.2080    5.2720    5.7010 hn        1 UEN      0.231500
     43 HAE        -0.9760    9.4430    2.3400 ha        1 UEN      0.131500
     44 FAB         3.1700    8.5440    2.4200 f         1 UEN     -0.116000
@<TRIPOS>BOND
     1    1    6 1   
     2    1   32 1   
     3    1   33 1   
     4    2    3 1   
     5    2   24 1   
     6    2   25 1   
     7    2   26 1   
     8    3    6 1   
     9    3    7 1   
    10    3   28 1   
    11    4    5 1   
    12    4   27 1   
    13    4   29 1   
    14    5   30 1   
    15    5   31 1   
    16    6   34 1   
    17    7   10 1   
    18    7   35 1   
    19    8    9 1   
    20    8   10 1   
    21    8   12 1   
    22    9   15 1   
    23    9   23 1   
    24   10   11 1   
    25   11   13 1   
    26   12   16 1   
    27   12   22 1   
    28   13   14 1   
    29   13   15 1   
    30   14   36 1   
    31   14   37 1   
    32   17   19 1   
    33   18   20 1   
    34   18   41 1   
    35   18   44 1   
    36   19   22 1   
    37   20   21 1   
    38   21   40 1   
    39   21   43 1   
    40   22   39 1   
    41   23   38 1   
    42   23   42 1   
@<TRIPOS>SUBSTRUCTURE
     1 UEN         1 TEMP              0 ****  ****    0 ROOT
