@<TRIPOS>MOLECULE
UEN
   44    64     1     0     0
SMALL
bcc


@<TRIPOS>ATOM
      1 CAJ         0.0000    0.0000    0.0000 DU        1 UEN     -0.339000
      2 CAK         1.5280    1.2490    2.1650 DU        1 UEN     -0.214000
      3 CAX        -0.0020    1.2470    2.1640 DU        1 UEN     -0.142000
      4 CAI         2.0390    0.0000    1.4430 DU        1 UEN     -0.255000
      5 CAH         1.5300    0.0000    0.0000 DU        1 UEN     -0.281000
      6 CAL        -0.5110    1.2480    0.7210 c3        1 UEN     -0.787000
      7 NAO        -0.4920    2.4440    2.8550 n7        1 UEN     -0.121000
      8 C5         -2.2300    3.5760    4.1020 c2        1 UEN     -0.269000
      9 C4         -3.5100    3.5290    4.6800 c3        1 UEN     -0.095000
     10 C6         -1.7460    2.4410    3.4370 c2        1 UEN      0.192000
     11 N1         -2.5210    1.3610    3.3790 n2        1 UEN     -0.243000
     12 CAT        -1.7020    4.9170    4.3840 c3        1 UEN     -0.318000
     13 C2         -3.7250    1.3560    3.9370 c3        1 UEN      0.150000
     14 NAA        -4.4940    0.2080    3.8490 n8        1 UEN     -0.191000
     15 N3         -4.2200    2.4060    4.5690 n2        1 UEN     -0.073000
     16 CAG        -2.6610    5.5700    5.0860 c3        1 UEN     -0.073000
     17 CAD         2.0060    5.2180    3.8480 c2        1 UEN     -0.088000
     18 CAQ         2.0890    6.4510    3.2200 c3        1 UEN      0.734000
     19 CAF         0.7770    4.7170    4.2250 c2        1 UEN     -0.270000
     20 CAC         0.9410    7.1840    2.9690 c2        1 UEN     -0.208000
     21 CAE        -0.2920    6.6900    3.3430 c3        1 UEN     -0.055000
     22 CAS        -0.3800    5.4530    3.9800 DU        1 UEN     -0.107000
     23 NAP        -3.7410    4.7450    5.2640 ny        1 UEN      0.156000
     24 HAK1        1.8450    2.2680    2.3470 ha        1 UEN      0.145500
     25 HAK2        1.8870    1.2460    3.1870 ha        1 UEN      0.145500
     26 HAI1        1.9640    1.0760    1.5470 DU        1 UEN      0.170000
     27 HAI2        3.1220    0.0030    1.4430 ha        1 UEN      0.121000
     28 HAX         0.6640    0.3980    2.0810 DU        1 UEN      0.165000
     29 HAH1        0.9080    0.1170    0.8790 DU        1 UEN      0.450000
     30 HAH2        1.8900   -0.8860   -0.5090 ha        1 UEN      0.155000
     31 HAJ1        0.9520    0.4480   -0.2570 DU        1 UEN      0.151000
     32 HAJ2       -0.3600    0.0030   -1.0220 ha        1 UEN      0.159000
     33 HAL1       -0.4360    0.1720    0.6180 DU        1 UEN      0.218000
     34 HAL2       -1.5940    1.2450    0.7210 hc        1 UEN      0.146000
     35 HAO        -0.3620    2.3300    1.8690 DU        1 UEN      0.288000
     36 HAA1       -3.6780    0.7590    3.6700 DU        1 UEN      0.133000
     37 HAA2       -4.3540   -0.5400    4.5000 hn        1 UEN      0.117000
     38 HAG        -3.0980    4.6360    4.7530 DU        1 UEN      0.155000
     39 HAF        -0.1240    5.2190    4.5540 DU        1 UEN      0.230000
     40 HAC         0.8770    6.2200    3.4600 DU        1 UEN      0.105000
     41 HAD         1.6880    6.1560    3.4080 ha        1 UEN     -0.480000
     42 HAP        -2.7560    4.7300    5.0830 DU        1 UEN      0.157000
     43 HAE        -1.1850    6.3380    3.8450 DU        1 UEN      0.258000
     44 FAB         3.2940    6.9390    2.8520 f         1 UEN     -0.091000
@<TRIPOS>BOND
     1    1    5 1   
     2    1    6 1   
     3    1   29 1   
     4    1   31 1   
     5    1   32 1   
     6    1   33 1   
     7    2    3 1   
     8    2    4 1   
     9    2   24 1   
    10    2   25 1   
    11    2   26 1   
    12    2   28 1   
    13    3    6 1   
    14    3    7 1   
    15    3   28 1   
    16    3   35 1   
    17    4    5 1   
    18    4   26 1   
    19    4   27 1   
    20    4   29 1   
    21    5   29 1   
    22    5   30 1   
    23    5   31 1   
    24    6   33 1   
    25    6   34 1   
    26    7   10 1   
    27    7   35 1   
    28    8    9 1   
    29    8   10 1   
    30    8   12 1   
    31    9   15 1   
    32    9   23 1   
    33    9   38 1   
    34   10   11 1   
    35   11   13 1   
    36   12   16 1   
    37   12   22 1   
    38   12   42 1   
    39   13   14 1   
    40   13   15 1   
    41   13   36 1   
    42   14   36 1   
    43   14   37 1   
    44   16   23 1   
    45   16   38 1   
    46   16   42 1   
    47   17   18 1   
    48   17   19 1   
    49   17   41 1   
    50   18   20 1   
    51   18   40 1   
    52   18   44 1   
    53   19   22 1   
    54   19   39 1   
    55   20   21 1   
    56   20   40 1   
    57   21   22 1   
    58   21   40 1   
    59   21   43 1   
    60   22   39 1   
    61   22   43 1   
    62   23   38 1   
    63   23   42 1   
    64   38   42 1   
@<TRIPOS>SUBSTRUCTURE
     1 UEN         1 TEMP              0 ****  ****    0 ROOT
