@<TRIPOS>MOLECULE
UEP
   38    36     1     0     0
SMALL
bcc


@<TRIPOS>ATOM
      1 O3P        28.5790-1853.6770  942.0050 o         1 UEP     -1.140000
      2 P          27.2980-1853.8670  941.3000 p3        1 UEP      2.415000
      3 O1P        27.2140-1854.8340  940.1820 o         1 UEP     -1.140000
      4 O2P        26.0720-1853.2080  941.7860 o         1 UEP     -1.140000
      5 O5'        27.7270-1852.5790  939.1610 o         1 UEP     -0.306000
      6 C5'        27.7310-1853.0930  938.0420 c2        1 UEP      0.164000
      7 C4'        -3.0830  500.1380 -252.0990 c3        1 UEP     -0.049000
      8 C3'        -3.2200  498.6060 -252.0700 c3        1 UEP      0.014000
      9 O3'        -3.5080  498.1400 -250.7710 oh        1 UEP     -0.334000
     10 C2'        -4.3120  498.2860 -253.1200 c3        1 UEP      0.091000
     11 O2'        -5.4430  497.7930 -252.4250 oh        1 UEP     -0.372000
     12 O4'        -3.9580  500.6770 -253.0930 os        1 UEP     -0.216000
     13 C1'        -4.5570  499.6060 -253.8010 c2        1 UEP     -0.241000
     14 N1         -5.2500  499.7970 -254.9170 n         1 UEP      0.053000
     15 C8         -5.8650  502.8820 -253.9850 c3        1 UEP     -0.203000
     16 C6         -5.5090  500.9660 -255.5410 c2        1 UEP     -0.277000
     17 C5         -6.3720  500.9580 -256.7070 c2        1 UEP     -0.204000
     18 C4         -6.3150  501.8650 -257.6610 c1        1 UEP      0.156000
     19 O4         -6.3920  502.7360 -258.4860 o         1 UEP     -0.235000
     20 N3         -5.1540  497.9990 -256.6680 n2        1 UEP     -0.451000
     21 C2         -5.7860  498.4420 -255.6210 c2        1 UEP      0.320000
     22 O2         -6.7800  497.9880 -254.9970 o         1 UEP     -0.469000
     23 H5'        -2.0420  500.4520 -252.3660 h1        1 UEP      0.077000
     24 H5'A       27.5480-1854.1770  937.8870 h4        1 UEP      0.074000
     25 H4'        27.9220-1852.4770  937.1330 h4        1 UEP      0.074000
     26 H3'        -3.3830  500.5950 -251.1210 h1        1 UEP      0.077000
     27 HO3'       -2.2510  498.1100 -252.3440 h1        1 UEP      0.106000
     28 H2'        -4.4540  498.2640 -250.6160 ho        1 UEP      0.225000
     29 HO2'       -3.9660  497.5060 -253.8520 h1        1 UEP      0.100000
     30 H1'        -6.2000  497.8500 -253.0310 ho        1 UEP      0.259000
     31 H7         -3.9470  502.2110 -254.7160 hc        1 UEP      0.067000
     32 H7A        -4.9920  502.9990 -255.9570 hc        1 UEP      0.067000
     33 H8         -5.4900  503.8950 -253.7000 hc        1 UEP      0.062667
     34 H8A        -5.8350  502.2220 -253.0840 hc        1 UEP      0.062667
     35 H8B        -6.9250  502.9760 -254.3220 hc        1 UEP      0.062667
     36 H5         -7.0740  500.1150 -256.8510 ha        1 UEP      0.182000
     37 HN3        -4.4020  498.5480 -257.0100 hn        1 UEP      0.136000
     38 C7         -5.0070  502.2930 -255.0810 c3        1 UEP     -0.067000
@<TRIPOS>BOND
     1    1    2 1   
     2    2    3 1   
     3    2    4 1   
     4    5    6 1   
     5    6   24 1   
     6    6   25 1   
     7    7    8 1   
     8    7   12 1   
     9    7   23 1   
    10    7   26 1   
    11    8    9 1   
    12    8   10 1   
    13    8   27 1   
    14    9   28 1   
    15   10   11 1   
    16   10   13 1   
    17   10   29 1   
    18   11   30 1   
    19   12   13 1   
    20   13   14 1   
    21   14   16 1   
    22   14   21 1   
    23   15   33 1   
    24   15   34 1   
    25   15   35 1   
    26   15   38 1   
    27   16   17 1   
    28   16   38 1   
    29   17   18 1   
    30   17   36 1   
    31   18   19 1   
    32   20   21 1   
    33   20   37 1   
    34   21   22 1   
    35   31   38 1   
    36   32   38 1   
@<TRIPOS>SUBSTRUCTURE
     1 UEP         1 TEMP              0 ****  ****    0 ROOT
