@<TRIPOS>MOLECULE
UEP
   38    35     1     0     0
SMALL
bcc


@<TRIPOS>ATOM
      1 O3P        19.0780 -281.1510  154.3100 o         1 UEP     -1.140000
      2 P          20.4220 -280.5930  154.0750 p3        1 UEP      2.415000
      3 O1P        20.7380 -279.2240  154.5420 o         1 UEP     -1.140000
      4 O2P        21.4920 -281.4330  153.5080 o         1 UEP     -1.140000
      5 O5'        19.9650 -279.0200  152.1440 o         1 UEP     -0.306000
      6 C5'        20.1260 -277.8000  152.2010 c2        1 UEP      0.164000
      7 C4'        -3.9450   80.0170  -41.8190 c3        1 UEP     -0.129000
      8 C3'        -3.9980   81.4930  -41.8210 c1        1 UEP      0.017000
      9 O3'        -2.7530   84.3780  -40.9250 oh        1 UEP     -0.428000
     10 C2'        -3.6120   81.9240  -43.2090 c3        1 UEP      0.035000
     11 O2'        -2.4670   82.7540  -43.1050 oh        1 UEP     -0.356000
     12 O4'        -3.5140   79.5150  -43.0970 os        1 UEP     -0.228000
     13 C1'        -3.3930   80.6350  -43.9670 c2        1 UEP     -0.280000
     14 N1         -3.1260   80.5000  -45.2600 n         1 UEP      0.057000
     15 C8         -1.5360   77.7310  -44.6070 c3        1 UEP     -0.202000
     16 C6         -2.8710   79.3630  -45.9370 c2        1 UEP     -0.259000
     17 C5         -2.5530   79.4500  -47.3510 c2        1 UEP     -0.212000
     18 C4         -2.7700   78.4730  -48.2060 c1        1 UEP      0.166000
     19 O4         -2.8400   77.5730  -48.9990 o         1 UEP     -0.230000
     20 N3         -4.3250   82.0960  -46.7850 n2        1 UEP     -0.446000
     21 C2         -3.2290   81.8700  -46.1240 c2        1 UEP      0.319000
     22 O2         -2.1760   82.5480  -45.9990 o         1 UEP     -0.465000
     23 H5'        -4.9520   79.5720  -41.5980 h1        1 UEP      0.129500
     24 H5'A       20.4900 -277.2940  153.1200 h4        1 UEP      0.074000
     25 H4'        19.9090 -277.1550  151.3200 h4        1 UEP      0.074000
     26 H3'        -3.2010   79.6650  -41.0540 h1        1 UEP      0.129500
     27 HO3'       -3.2710   83.5700  -41.0340 ho        1 UEP      0.210500
     28 H2'        -2.2390   84.4160  -41.7370 ho        1 UEP      0.210500
     29 HO2'       -4.4540   82.5190  -43.6730 h1        1 UEP      0.119000
     30 H1'        -2.0860   82.8290  -43.9960 ho        1 UEP      0.261000
     31 H7         -3.6900   77.8820  -44.5920 hc        1 UEP      0.068500
     32 H7A        -2.9910   77.2340  -46.1230 hc        1 UEP      0.068500
     33 H8         -1.5280   76.6920  -44.1960 hc        1 UEP      0.063333
     34 H8A        -0.6740   77.8440  -45.3060 hc        1 UEP      0.063333
     35 H8B        -1.4060   78.4510  -43.7620 hc        1 UEP      0.063333
     36 H5         -2.1610   80.4030  -47.7550 ha        1 UEP      0.186000
     37 HN3        -5.0260   81.3950  -46.7630 hn        1 UEP      0.138000
     38 C7         -2.8410   78.0050  -45.3180 c3        1 UEP     -0.071000
@<TRIPOS>BOND
     1    1    2 1   
     2    2    3 1   
     3    2    4 1   
     4    5    6 1   
     5    6   24 1   
     6    6   25 1   
     7    7    8 1   
     8    7   12 1   
     9    7   23 1   
    10    7   26 1   
    11    8   10 1   
    12    9   27 1   
    13    9   28 1   
    14   10   11 1   
    15   10   13 1   
    16   10   29 1   
    17   11   30 1   
    18   12   13 1   
    19   13   14 1   
    20   14   16 1   
    21   14   21 1   
    22   15   33 1   
    23   15   34 1   
    24   15   35 1   
    25   15   38 1   
    26   16   17 1   
    27   16   38 1   
    28   17   18 1   
    29   17   36 1   
    30   18   19 1   
    31   20   21 1   
    32   20   37 1   
    33   21   22 1   
    34   31   38 1   
    35   32   38 1   
@<TRIPOS>SUBSTRUCTURE
     1 UEP         1 TEMP              0 ****  ****    0 ROOT
