@<TRIPOS>MOLECULE
UEP
   38    35     1     0     0
SMALL
bcc


@<TRIPOS>ATOM
      1 O3P        14.2650 -238.2070  149.4080 o         1 UEP     -1.157000
      2 P          15.5990 -238.2090  150.0600 p3        1 UEP      2.423000
      3 O1P        15.9820 -236.9550  150.7570 o         1 UEP     -1.157000
      4 O2P        16.3830 -239.4470  150.2120 o         1 UEP     -1.157000
      5 O5'        16.2850 -237.2580  148.3050 o         1 UEP     -0.355000
      6 C5'        15.5820 -236.2380  148.2520 c2        1 UEP      0.200000
      7 C4'        -1.7190   68.8250  -40.6660 c3        1 UEP     -0.043000
      8 C3'        -1.2890   70.2900  -40.4780 c3        1 UEP     -0.010000
      9 O3'        -0.1940   70.3980  -39.5950 oh        1 UEP     -0.338000
     10 C2'        -1.0050   70.8010  -41.9120 c3        1 UEP      0.091000
     11 O2'         0.3830   71.0910  -42.0290 oh        1 UEP     -0.365000
     12 O4'        -1.9700   68.5910  -42.0470 os        1 UEP     -0.247000
     13 C1'        -1.4700   69.6920  -42.8120 c2        1 UEP     -0.260000
     14 N1         -1.4250   69.7370  -44.1160 n2        1 UEP     -0.064000
     15 C8         -1.2950   66.4540  -44.3340 c3        1 UEP     -0.201000
     16 C6         -1.8480   68.8020  -44.9860 c2        1 UEP     -0.355000
     17 C5         -1.6300   69.0250  -46.4020 c2        1 UEP     -0.192000
     18 C4         -0.8160   69.9230  -46.9200 c1        1 UEP      0.136000
     19 O4         -0.1800   70.8060  -47.4330 o         1 UEP     -0.245000
     20 N3         -4.7360   69.9310  -45.2820 n2        1 UEP     -0.367000
     21 C2         -5.1430   70.8470  -44.5830 c1        1 UEP      0.308000
     22 O2         -5.7910   71.7130  -44.0380 o         1 UEP     -0.290000
     23 H5'        -2.6700   68.5950  -40.1220 h1        1 UEP      0.067000
     24 H5'A       14.8120 -236.0110  149.0210 h4        1 UEP      0.101500
     25 H4'        15.7160 -235.5190  147.4150 h4        1 UEP      0.101500
     26 H3'        -0.9110   68.1260  -40.3260 h1        1 UEP      0.067000
     27 HO3'       -2.1070   70.8910  -39.9980 h1        1 UEP      0.103000
     28 H2'         0.6120   70.2570  -40.1110 ho        1 UEP      0.215000
     29 HO2'       -1.5440   71.7670  -42.1070 h1        1 UEP      0.097000
     30 H1'         0.7320   70.5710  -42.7620 ho        1 UEP      0.223000
     31 H7         -3.0610   67.5340  -43.7400 hc        1 UEP      0.057000
     32 H7A        -3.0140   67.0660  -45.4850 hc        1 UEP      0.057000
     33 H8         -1.7280   65.4470  -44.1200 hc        1 UEP      0.054667
     34 H8A        -0.5940   66.3620  -45.1970 hc        1 UEP      0.054667
     35 H8B        -0.7170   66.7900  -43.4380 hc        1 UEP      0.054667
     36 H5         -2.1270   68.3280  -47.0950 ha        1 UEP      0.141000
     37 HN3        -3.8320   69.4970  -45.3030 hn        1 UEP      0.323000
     38 C7         -2.3870   67.4530  -44.6360 c3        1 UEP     -0.072000
@<TRIPOS>BOND
     1    1    2 1   
     2    2    3 1   
     3    2    4 1   
     4    5    6 1   
     5    6   24 1   
     6    6   25 1   
     7    7    8 1   
     8    7   12 1   
     9    7   23 1   
    10    7   26 1   
    11    8    9 1   
    12    8   10 1   
    13    8   27 1   
    14    9   28 1   
    15   10   11 1   
    16   10   13 1   
    17   10   29 1   
    18   11   30 1   
    19   12   13 1   
    20   13   14 1   
    21   14   16 1   
    22   15   33 1   
    23   15   34 1   
    24   15   35 1   
    25   15   38 1   
    26   16   17 1   
    27   16   38 1   
    28   17   18 1   
    29   17   36 1   
    30   18   19 1   
    31   20   21 1   
    32   20   37 1   
    33   21   22 1   
    34   31   38 1   
    35   32   38 1   
@<TRIPOS>SUBSTRUCTURE
     1 UEP         1 TEMP              0 ****  ****    0 ROOT
