@<TRIPOS>MOLECULE
UEP
   38    38     1     0     0
SMALL
bcc


@<TRIPOS>ATOM
      1 O3P        -6.5670    2.3110    0.1800 o         1 UEP     -0.731833
      2 P          -5.2180    2.6080    0.7810 p5        1 UEP      1.579500
      3 O1P        -5.1880    2.1290    2.2120 o         1 UEP     -0.731833
      4 O2P        -4.9680    4.0940    0.7430 o         1 UEP     -0.731833
      5 O5'        -4.0920    1.8600   -0.0500 os        1 UEP     -0.757000
      6 C5'        -2.9800    1.3420    0.6440 c3        1 UEP      0.026000
      7 C4'        -1.8970    0.8900   -0.3720 c3        1 UEP     -0.052000
      8 C3'        -2.0160   -0.6510   -0.6420 c3        1 UEP      0.167000
      9 O3'        -2.4730   -0.8770   -1.9030 oh        1 UEP     -0.714000
     10 C2'        -0.6180   -1.1980   -0.4840 c3        1 UEP     -0.094000
     11 O2'        -0.2630   -2.0540   -1.6530 oh        1 UEP     -0.393000
     12 O4'        -0.7270    1.0550    0.1230 os        1 UEP     -0.287000
     13 C1'         0.1650   -0.1290   -0.4430 c3        1 UEP      0.147000
     14 N1          1.2860   -0.3690    0.4330 n         1 UEP     -0.251000
     15 C7          2.8670    0.0530   -1.5110 c3        1 UEP     -0.161000
     16 C8          4.2220   -0.4530   -1.9610 c3        1 UEP     -0.202000
     17 C6          2.6150   -0.3810   -0.0920 c2        1 UEP      0.157000
     18 C5          3.7490   -0.6980    0.7890 c1        1 UEP     -0.387000
     19 C4          3.5250   -0.8940    2.2270 c1        1 UEP      0.362000
     20 O4          4.4670   -1.1580    2.9640 o         1 UEP     -0.424000
     21 N3          2.2000   -0.8430    2.7540 n         1 UEP     -0.378000
     22 C2          1.0640   -0.5650    1.8640 c2        1 UEP      0.393000
     23 O2         -0.0670   -0.5270    2.3160 o         1 UEP     -0.311000
     24 H5'        -2.6070    2.0400    1.2360 h1        1 UEP      0.077000
     25 H5'A       -3.2630    0.5720    1.1850 h1        1 UEP      0.077000
     26 H4'        -1.9860    1.3920   -1.2140 h1        1 UEP      0.101000
     27 H3'        -2.6160   -1.0630    0.0140 h1        1 UEP      0.011000
     28 HO3'       -3.2350   -1.3590   -1.8650 ho        1 UEP      0.229000
     29 H2'        -0.5440   -1.7070    0.3460 h1        1 UEP      0.084000
     30 HO2'       -0.6150   -2.8660   -1.5450 ho        1 UEP      0.238000
     31 H1'         0.4810    0.0890   -1.3390 h2        1 UEP      0.089000
     32 H7          2.1790   -0.3110   -2.0870 hc        1 UEP      0.131500
     33 H7A         2.8510    1.0300   -1.5610 hc        1 UEP      0.131500
     34 H8          4.9280    0.0890   -1.5470 hc        1 UEP      0.069000
     35 H8A         4.2880   -0.3860   -2.9340 hc        1 UEP      0.069000
     36 H8B         4.3280   -1.3910   -1.6890 hc        1 UEP      0.069000
     37 H5          4.6670   -0.7060    0.4280 ha        1 UEP      0.152000
     38 HN3         2.0590   -0.9650    3.6520 hn        1 UEP      0.248000
@<TRIPOS>BOND
     1    1    2 1   
     2    2    3 1   
     3    2    4 1   
     4    2    5 1   
     5    5    6 1   
     6    6    7 1   
     7    6   24 1   
     8    6   25 1   
     9    7    8 1   
    10    7   12 1   
    11    7   26 1   
    12    8    9 1   
    13    8   10 1   
    14    8   27 1   
    15    9   28 1   
    16   10   11 1   
    17   10   13 1   
    18   10   29 1   
    19   11   30 1   
    20   12   13 1   
    21   13   14 1   
    22   13   31 1   
    23   14   17 1   
    24   14   22 1   
    25   15   16 1   
    26   15   17 1   
    27   15   32 1   
    28   15   33 1   
    29   16   34 1   
    30   16   35 1   
    31   16   36 1   
    32   17   18 1   
    33   18   37 1   
    34   19   20 1   
    35   19   21 1   
    36   21   22 1   
    37   21   38 1   
    38   22   23 1   
@<TRIPOS>SUBSTRUCTURE
     1 UEP         1 TEMP              0 ****  ****    0 ROOT
