@<TRIPOS>MOLECULE
UEP
   38    39     1     0     0
SMALL
bcc


@<TRIPOS>ATOM
      1 O3P         4.3480   -0.7400    0.8010 o         1 UEP     -0.848500
      2 P           3.8390   -0.5890   -0.5820 p5        1 UEP      1.428800
      3 O1P         4.1830    0.9610   -0.9770 oh        1 UEP     -0.784400
      4 O2P         4.1880   -1.4780   -1.7090 o         1 UEP     -0.848500
      5 O5'         2.2020   -0.4420   -0.5080 os        1 UEP     -0.586200
      6 C5'         1.6500    0.1900    0.6090 c3        1 UEP      0.167400
      7 C4'         0.9120    1.4770    0.2330 c3        1 UEP      0.047100
      8 C3'         0.4540    2.3020    1.4820 c3        1 UEP      0.362800
      9 O3'         0.6820    3.5960    1.3980 o         1 UEP     -0.873500
     10 C2'        -1.1110    2.0050    1.5430 c3        1 UEP      0.031100
     11 O2'        -1.8570    3.1950    1.6520 oh        1 UEP     -0.658800
     12 O4'        -0.2540    1.1600   -0.5550 os        1 UEP     -0.425600
     13 C1'        -1.4490    1.3590    0.1780 c3        1 UEP      0.282500
     14 N1         -2.2550    0.1090    0.1620 n         1 UEP     -0.342000
     15 C8         -3.8390    1.6030   -2.3950 c3        1 UEP     -0.090100
     16 C6         -2.8990   -0.2520   -1.0160 cc        1 UEP      0.156400
     17 C5         -3.7100   -1.3590   -1.0920 cd        1 UEP     -0.396200
     18 C4         -3.8580   -2.2640    0.0360 c         1 UEP      0.725700
     19 O4         -4.6070   -3.2670    0.0630 o         1 UEP     -0.696500
     20 N3         -3.0870   -1.9580    1.1600 n         1 UEP     -0.597500
     21 C2         -2.2160   -0.8410    1.2170 c         1 UEP      0.808500
     22 O2         -1.4980   -0.7500    2.2330 o         1 UEP     -0.623500
     23 H5'         0.9100   -0.5180    1.0830 h1        1 UEP      0.034700
     24 H5'A        2.4600    0.4330    1.3530 h1        1 UEP      0.034700
     25 H4'         1.5380    2.1100   -0.4510 h1        1 UEP      0.070700
     26 H3'         0.8970    1.8110    2.4030 h1        1 UEP     -0.043300
     27 HO3'        4.0020    1.5640   -0.2650 ho        1 UEP      0.423000
     28 H2'        -1.3780    1.3750    2.4240 h1        1 UEP      0.066700
     29 HO2'       -1.2250    3.9320    1.5080 ho        1 UEP      0.437000
     30 H1'        -2.0760    2.0960   -0.4160 h2        1 UEP      0.053700
     31 H7         -2.7900   -0.1310   -3.1450 hc        1 UEP      0.082700
     32 H7A        -1.7310    1.0640   -2.3060 hc        1 UEP      0.082700
     33 H8         -3.7090    2.1760   -3.3450 hc        1 UEP      0.034033
     34 H8A        -4.8420    1.1110   -2.4100 hc        1 UEP      0.034033
     35 H8B        -3.8140    2.3240   -1.5420 hc        1 UEP      0.034033
     36 H5         -4.2460   -1.6200   -2.0090 ha        1 UEP      0.151000
     37 HN3        -3.0490   -2.5910    1.9260 hn        1 UEP      0.330500
     38 C7         -2.7440    0.5730   -2.2700 c3        1 UEP     -0.067200
@<TRIPOS>BOND
     1    1    2 1   
     2    2    3 1   
     3    2    4 1   
     4    2    5 1   
     5    3   27 1   
     6    5    6 1   
     7    6    7 1   
     8    6   23 1   
     9    6   24 1   
    10    7    8 1   
    11    7   12 1   
    12    7   25 1   
    13    8    9 1   
    14    8   10 1   
    15    8   26 1   
    16   10   11 1   
    17   10   13 1   
    18   10   28 1   
    19   11   29 1   
    20   12   13 1   
    21   13   14 1   
    22   13   30 1   
    23   14   16 1   
    24   14   21 1   
    25   15   33 1   
    26   15   34 1   
    27   15   35 1   
    28   15   38 1   
    29   16   17 2   
    30   16   38 1   
    31   17   18 1   
    32   17   36 1   
    33   18   19 2   
    34   18   20 1   
    35   20   21 1   
    36   20   37 1   
    37   21   22 2   
    38   31   38 1   
    39   32   38 1   
@<TRIPOS>SUBSTRUCTURE
     1 UEP         1 TEMP              0 ****  ****    0 ROOT
