@<TRIPOS>MOLECULE
UET
   69    70     1     0     0
SMALL
bcc


@<TRIPOS>ATOM
      1 O3        296.0650 -506.0130  155.1590 o         1 UET     -0.361400
      2 S         295.6490 -506.1910  156.4250 s4        1 UET      1.580500
      3 O2        294.5410 -506.8780  156.7520 o         1 UET     -0.361400
      4 C17       296.5260 -505.5380  157.6190 c3        1 UET     -0.403800
      5 C18       297.5320 -506.5720  158.0190 ca        1 UET     -0.214300
      6 C23       298.8010 -506.5800  157.4210 ca        1 UET     -0.092000
      7 C22       299.7500 -507.5150  157.8280 ca        1 UET     -0.113000
      8 C21       299.4470 -508.4260  158.8440 ca        1 UET     -0.056000
      9 C20       298.1920 -508.4000  159.4570 ca        1 UET     -0.113000
     10 C19       297.2370 -507.4690  159.0570 ca        1 UET     -0.092000
     11 N4        -95.9770  172.8620  -52.0150 n3        1 UET     -0.955800
     12 C9        -95.8340  171.8910  -52.9830 c3        1 UET      0.269500
     13 C10       -95.0780  172.2800  -54.2700 c3        1 UET     -0.034100
     14 C11       -93.6630  172.5950  -53.9420 ca        1 UET     -0.155300
     15 C16       -92.7280  171.5630  -53.7890 ca        1 UET     -0.116500
     16 C15       -91.3970  171.8630  -53.5090 ca        1 UET     -0.109000
     17 C14       -90.9910  173.1930  -53.3790 ca        1 UET     -0.081000
     18 C13       -91.9200  174.2230  -53.5330 ca        1 UET     -0.109000
     19 C12       -93.2540  173.9270  -53.8130 ca        1 UET     -0.116500
     20 C8        -97.3230  171.5300  -53.5420 c         1 UET      0.474100
     21 O1        -98.3050  172.2150  -53.6860 o         1 UET     -0.401100
     22 N3        -97.5050  170.0250  -54.0210 n4        1 UET     -0.711800
     23 C7        -98.8450  169.7490  -54.5780 c3        1 UET      0.023800
     24 C6        -99.0370  168.3120  -55.0330 c         1 UET      0.511100
     25 O         -98.1820  167.4400  -55.0160 o         1 UET     -0.370100
     26 N2       -100.4090  167.9450  -55.5320 n4        1 UET     -0.671800
     27 C5       -100.3580  167.0680  -56.7640 c3        1 UET      0.167100
     28 C4       -101.6860  166.4680  -57.0920 ca        1 UET     -0.154300
     29 C3       -102.5130  167.0720  -58.0470 ca        1 UET     -0.084500
     30 C2       -103.7010  166.4510  -58.4410 ca        1 UET     -0.080500
     31 C24      -102.0580  165.2410  -56.5260 ca        1 UET     -0.084500
     32 C25      -103.2440  164.6180  -56.9170 ca        1 UET     -0.080500
     33 C1       -104.0640  165.2230  -57.8770 ca        1 UET     -0.196900
     34 C        -105.3580  164.5920  -58.2510 ce        1 UET      0.558800
     35 N1       -105.2250  163.5970  -59.3700 n4        1 UET     -0.818600
     36 N        -106.5300  164.7620  -57.7810 n2        1 UET     -0.659100
     37 H171      295.9490 -505.2350  158.5490 h1        1 UET      0.203700
     38 H172      297.0890 -504.5870  157.3560 h1        1 UET      0.203700
     39 H4        -95.9220  172.6190  -51.0540 hn        1 UET      0.463800
     40 H23       299.0590 -505.8460  156.6410 ha        1 UET      0.152000
     41 H19       296.2600 -507.4350  159.5670 ha        1 UET      0.152000
     42 H22       300.7460 -507.5260  157.3550 ha        1 UET      0.172000
     43 H21       300.2040 -509.1600  159.1690 ha        1 UET      0.172000
     44 H20       297.9590 -509.1090  160.2690 ha        1 UET      0.172000
     45 H9        -95.4400  170.9220  -52.5600 h1        1 UET      0.089700
     46 H101      -95.5690  173.1650  -54.7600 hc        1 UET      0.062700
     47 H102      -95.1250  171.4150  -54.9830 hc        1 UET      0.062700
     48 H16       -93.0370  170.5140  -53.9040 ha        1 UET      0.124000
     49 H12       -93.9770  174.7460  -53.9470 ha        1 UET      0.124000
     50 H15       -90.6620  171.0500  -53.3950 ha        1 UET      0.162000
     51 H14       -89.9360  173.4290  -53.1610 ha        1 UET      0.168000
     52 H13       -91.5990  175.2740  -53.4390 ha        1 UET      0.162000
     53 H3        -97.3240  169.4200  -53.2140 hn        1 UET      0.459800
     54 H71C      -99.6150  170.0100  -53.7860 hx        1 UET      0.158700
     55 H72C      -99.0110  170.4480  -55.4570 hx        1 UET      0.158700
     56 H2       -100.9520  168.7920  -55.7360 hn        1 UET      0.475300
     57 H51C      -99.9870  167.7090  -57.6170 hx        1 UET      0.134200
     58 H52C      -99.5990  166.2500  -56.5660 hx        1 UET      0.134200
     59 HA       -102.2300  168.0300  -58.5170 ha        1 UET      0.168500
     60 H24      -101.4090  164.7420  -55.7860 ha        1 UET      0.168500
     61 HB       -104.3440  166.9410  -59.1940 ha        1 UET      0.181000
     62 H25      -103.5260  163.6550  -56.4570 ha        1 UET      0.181000
     63 H11N     -104.8660  164.0760  -60.2030 hn        1 UET      0.482467
     64 H12N     -106.1350  163.1620  -59.5990 hn        1 UET      0.482467
     65 H        -106.6920  165.4090  -57.0350 hn        1 UET      0.501400
     66 H42       -95.8720  173.8190  -52.2610 hn        1 UET      0.463800
     67 H32       -96.7790  169.8380  -54.7210 hn        1 UET      0.459800
     68 H221     -100.8970  167.4250  -54.7850 hn        1 UET      0.475300
     69 H131     -104.5670  162.8620  -59.0870 hn        1 UET      0.482467
@<TRIPOS>BOND
     1    1    2 1   
     2    2    3 1   
     3    2    4 1   
     4    4    5 1   
     5    4   37 1   
     6    4   38 1   
     7    5    6 ar  
     8    5   10 ar  
     9    6    7 ar  
    10    6   40 1   
    11    7    8 ar  
    12    7   42 1   
    13    8    9 ar  
    14    8   43 1   
    15    9   10 ar  
    16    9   44 1   
    17   10   41 1   
    18   11   12 1   
    19   11   39 1   
    20   11   66 1   
    21   12   13 1   
    22   12   20 1   
    23   12   45 1   
    24   13   14 1   
    25   13   46 1   
    26   13   47 1   
    27   14   15 ar  
    28   14   19 ar  
    29   15   16 ar  
    30   15   48 1   
    31   16   17 ar  
    32   16   50 1   
    33   17   18 ar  
    34   17   51 1   
    35   18   19 ar  
    36   18   52 1   
    37   19   49 1   
    38   20   21 2   
    39   20   22 1   
    40   22   23 1   
    41   22   53 1   
    42   22   67 1   
    43   23   24 1   
    44   23   54 1   
    45   23   55 1   
    46   24   25 2   
    47   24   26 1   
    48   26   27 1   
    49   26   56 1   
    50   26   68 1   
    51   27   28 1   
    52   27   57 1   
    53   27   58 1   
    54   28   29 ar  
    55   28   31 ar  
    56   29   30 ar  
    57   29   59 1   
    58   30   33 ar  
    59   30   61 1   
    60   31   32 ar  
    61   31   60 1   
    62   32   33 ar  
    63   32   62 1   
    64   33   34 1   
    65   34   35 1   
    66   34   36 2   
    67   35   63 1   
    68   35   64 1   
    69   35   69 1   
    70   36   65 1   
@<TRIPOS>SUBSTRUCTURE
     1 UET         1 TEMP              0 ****  ****    0 ROOT
