@<TRIPOS>MOLECULE
UET
   69    70     1     0     0
SMALL
bcc


@<TRIPOS>ATOM
      1 O3        388.4870 -636.8830  207.3780 o         1 UET     -0.361400
      2 S         388.8320 -636.4790  208.6130 s4        1 UET      1.580500
      3 O2        387.9590 -635.9620  209.4950 o         1 UET     -0.361400
      4 C17       390.3820 -636.6160  209.0590 c3        1 UET     -0.403800
      5 C18       390.5260 -637.9680  209.6830 ca        1 UET     -0.214300
      6 C23       390.9100 -639.0640  208.8950 ca        1 UET     -0.092000
      7 C22       391.0860 -640.3120  209.4880 ca        1 UET     -0.113000
      8 C21       390.9030 -640.4680  210.8640 ca        1 UET     -0.056000
      9 C20       390.5460 -639.3710  211.6520 ca        1 UET     -0.113000
     10 C19       390.3680 -638.1190  211.0690 ca        1 UET     -0.092000
     11 N4       -127.6310  212.5890  -67.6900 n8        1 UET     -0.969800
     12 C9       -127.3390  212.9030  -69.0500 c3        1 UET      0.154500
     13 C10      -127.2650  214.4130  -69.3970 c3        1 UET     -0.031100
     14 C11      -126.2020  215.0530  -68.5820 ca        1 UET     -0.164300
     15 C16      -124.8680  215.0100  -69.0080 ca        1 UET     -0.119500
     16 C15      -123.8760  215.6400  -68.2590 ca        1 UET     -0.108500
     17 C14      -124.2090  216.3170  -67.0840 ca        1 UET     -0.079000
     18 C13      -125.5380  216.3650  -66.6590 ca        1 UET     -0.108500
     19 C12      -126.5330  215.7350  -67.4040 ca        1 UET     -0.119500
     20 C8       -128.4030  212.3100  -70.0110 c         1 UET      0.569100
     21 O1       -128.3830  212.2460  -71.2320 o         1 UET     -0.513100
     22 N3       -129.6770  211.7040  -69.3960 ny        1 UET     -0.687800
     23 C7       -130.7390  211.4240  -70.3950 c3        1 UET      0.035800
     24 C6       -130.2840  210.3960  -71.4280 c         1 UET      0.521100
     25 O        -129.7780  209.3220  -71.1450 o         1 UET     -0.355100
     26 N2       -130.4790  210.7430  -72.8740 ny        1 UET     -0.665800
     27 C5       -130.4210  209.5270  -73.7700 c3        1 UET      0.168100
     28 C4       -130.6780  209.8520  -75.2040 ca        1 UET     -0.151300
     29 C3       -129.6080  210.1390  -76.0610 ca        1 UET     -0.085000
     30 C2       -129.8300  210.3090  -77.4300 ca        1 UET     -0.081500
     31 C24      -131.9760  209.7470  -75.7240 ca        1 UET     -0.085000
     32 C25      -132.2010  209.9150  -77.0910 ca        1 UET     -0.081500
     33 C1       -131.1260  210.1910  -77.9440 ca        1 UET     -0.197900
     34 C        -131.3690  210.4230  -79.3930 ce        1 UET      0.559800
     35 N1       -131.3900  209.1510  -80.1950 nz        1 UET     -0.818600
     36 N        -131.5570  211.5040  -80.0400 n2        1 UET     -0.659100
     37 H171      391.1470 -636.5350  208.2220 h1        1 UET      0.203700
     38 H172      390.7520 -635.8450  209.8080 h1        1 UET      0.203700
     39 H4       -127.7610  213.4090  -67.1220 hn        1 UET      0.426300
     40 H23       391.0850 -638.9440  207.8140 ha        1 UET      0.152000
     41 H19       390.1160 -637.2530  211.7020 ha        1 UET      0.152000
     42 H22       391.3820 -641.1750  208.8680 ha        1 UET      0.172000
     43 H21       391.0510 -641.4570  211.3310 ha        1 UET      0.172000
     44 H20       390.4170 -639.4910  212.7410 ha        1 UET      0.172000
     45 H9       -126.3790  212.4070  -69.4100 h1        1 UET      0.134700
     46 H101     -128.2550  214.9010  -69.1980 hc        1 UET      0.071700
     47 H102     -127.0340  214.5120  -70.4910 hc        1 UET      0.071700
     48 H16      -124.6020  214.4940  -69.9420 ha        1 UET      0.128500
     49 H12      -127.5810  215.8020  -67.0760 ha        1 UET      0.128500
     50 H15      -122.8280  215.6120  -68.6000 ha        1 UET      0.164500
     51 H14      -123.4230  216.8210  -66.4960 ha        1 UET      0.170000
     52 H13      -125.8020  216.9100  -65.7380 ha        1 UET      0.164500
     53 H3       -130.0470  212.3620  -68.6900 hn        1 UET      0.499800
     54 H71C     -131.6450  210.9860  -69.8630 hx        1 UET      0.156700
     55 H72C     -131.0400  212.4030  -70.8710 hx        1 UET      0.156700
     56 H2       -129.7270  211.4010  -73.1420 hn        1 UET      0.479300
     57 H51C     -129.3960  209.0650  -73.6430 hx        1 UET      0.134700
     58 H52C     -131.1900  208.7920  -73.3860 hx        1 UET      0.134700
     59 HA       -128.5780  210.2100  -75.6730 ha        1 UET      0.168500
     60 H24      -132.8290  209.5050  -75.0670 ha        1 UET      0.168500
     61 HB       -128.9760  210.5360  -78.0930 ha        1 UET      0.180000
     62 H25      -133.2300  209.8330  -77.4840 ha        1 UET      0.180000
     63 H11N     -130.4780  208.6900  -80.1130 hn        1 UET      0.482467
     64 H12N     -131.5830  209.3370  -81.1940 hn        1 UET      0.482467
     65 H        -131.5560  212.3860  -79.5700 hn        1 UET      0.500400
     66 H42      -126.9530  211.9780  -67.2760 hn        1 UET      0.426300
     67 H32      -129.4100  210.8390  -68.8970 hn        1 UET      0.499800
     68 H221     -131.3820  211.2180  -73.0030 hn        1 UET      0.479300
     69 H131     -132.1210  208.5350  -79.8230 hn        1 UET      0.482467
@<TRIPOS>BOND
     1    1    2 1   
     2    2    3 1   
     3    2    4 1   
     4    4    5 1   
     5    4   37 1   
     6    4   38 1   
     7    5    6 ar  
     8    5   10 ar  
     9    6    7 ar  
    10    6   40 1   
    11    7    8 ar  
    12    7   42 1   
    13    8    9 ar  
    14    8   43 1   
    15    9   10 ar  
    16    9   44 1   
    17   10   41 1   
    18   11   12 1   
    19   11   39 1   
    20   11   66 1   
    21   12   13 1   
    22   12   20 1   
    23   12   45 1   
    24   13   14 1   
    25   13   46 1   
    26   13   47 1   
    27   14   15 ar  
    28   14   19 ar  
    29   15   16 ar  
    30   15   48 1   
    31   16   17 ar  
    32   16   50 1   
    33   17   18 ar  
    34   17   51 1   
    35   18   19 ar  
    36   18   52 1   
    37   19   49 1   
    38   20   21 2   
    39   20   22 1   
    40   22   23 1   
    41   22   53 1   
    42   22   67 1   
    43   23   24 1   
    44   23   54 1   
    45   23   55 1   
    46   24   25 2   
    47   24   26 1   
    48   26   27 1   
    49   26   56 1   
    50   26   68 1   
    51   27   28 1   
    52   27   57 1   
    53   27   58 1   
    54   28   29 ar  
    55   28   31 ar  
    56   29   30 ar  
    57   29   59 1   
    58   30   33 ar  
    59   30   61 1   
    60   31   32 ar  
    61   31   60 1   
    62   32   33 ar  
    63   32   62 1   
    64   33   34 1   
    65   34   35 1   
    66   34   36 2   
    67   35   63 1   
    68   35   64 1   
    69   35   69 1   
    70   36   65 1   
@<TRIPOS>SUBSTRUCTURE
     1 UET         1 TEMP              0 ****  ****    0 ROOT
