@<TRIPOS>MOLECULE
UF0
   61    60     1     0     0
SMALL
bcc


@<TRIPOS>ATOM
      1 C           1.1930   -4.1250   -0.2020 c         1 UF0      0.905600
      2 N           0.5000   -2.1280    1.1890 n3        1 UF0     -0.920800
      3 O           2.0930   -4.3870    0.6470 o         1 UF0     -0.848300
      4 O1         -8.4900   -2.6290   -1.0680 oh        1 UF0     -0.619800
      5 CA          0.4630   -2.7430   -0.1260 c3        1 UF0      0.017500
      6 CB          1.0070   -1.8780   -1.2750 c3        1 UF0      0.168400
      7 O1A         1.6340    0.9120   -0.1760 os        1 UF0     -0.589200
      8 C1B         2.6910    1.8040   -0.0510 c3        1 UF0      0.203400
      9 C1C         2.4720    2.8170    1.0950 c3        1 UF0     -0.097000
     10 C1D         1.3450    3.8380    0.8270 c3        1 UF0      0.103100
     11 C1E        -0.0110    3.4750    1.4680 c         1 UF0      0.637100
     12 N1F        -0.6760    2.3840    0.9880 n         1 UF0     -0.541900
     13 O1G        -0.4630    4.1900    2.3950 o         1 UF0     -0.682100
     14 C1H        -2.0510    2.0990    1.2860 c3        1 UF0      0.109000
     15 C1I        -2.8510    1.6440    0.0580 c3        1 UF0     -0.186400
     16 C1J        -3.4460    0.2640    0.2590 c         1 UF0      0.655100
     17 N1K        -2.6040   -0.8140    0.3260 n         1 UF0     -0.541900
     18 O1L        -4.6940    0.1280    0.3620 o         1 UF0     -0.706100
     19 C1M        -3.0650   -2.1360    0.6350 c3        1 UF0      0.062000
     20 C1N        -3.6270   -2.9380   -0.5630 c3        1 UF0      0.043000
     21 N1O        -4.8190   -2.3710   -1.1460 n         1 UF0     -0.507900
     22 C1P         2.2140    2.0660    2.3900 c3        1 UF0     -0.087600
     23 C1Q         3.7720    3.6110    1.2270 c3        1 UF0     -0.087600
     24 P1R         1.0370    0.6760   -1.7110 p5        1 UF0      1.431800
     25 O1S         2.1700    0.5220   -2.6370 o         1 UF0     -0.836000
     26 O1T         0.0030    1.7410   -1.7900 o         1 UF0     -0.836000
     27 C1U        -6.0730   -2.8340   -0.8200 c         1 UF0      0.616100
     28 C1V        -7.2620   -1.9370   -1.1630 c3        1 UF0      0.052400
     29 O1W        -6.2950   -3.9580   -0.3140 o         1 UF0     -0.649100
     30 O1X         1.1920    4.1500   -0.5380 oh        1 UF0     -0.627800
     31 O1Y         0.2380   -0.7010   -1.4000 os        1 UF0     -0.594200
     32 OXT         0.8300   -4.9180   -1.1160 o         1 UF0     -0.848300
     33 HN          1.1510   -2.6360    1.7660 hn        1 UF0      0.344300
     34 HNA         0.8270   -1.1820    1.1230 hn        1 UF0      0.344300
     35 HO1        -8.3600   -3.3920   -0.4840 ho        1 UF0      0.426000
     36 HA         -0.6280   -2.9360   -0.3550 h1        1 UF0      0.035700
     37 HB          2.0830   -1.6010   -1.1080 h1        1 UF0      0.040700
     38 HBA         0.9120   -2.4770   -2.2240 h1        1 UF0      0.040700
     39 H1B         3.6260    1.2220    0.2000 h1        1 UF0      0.027200
     40 H1BA        2.8560    2.3560   -1.0190 h1        1 UF0      0.027200
     41 H1D         1.6360    4.8260    1.2970 h1        1 UF0      0.069700
     42 HN1F       -0.2680    1.8800    0.2160 hn        1 UF0      0.366500
     43 H1H        -2.0830    1.3000    2.0830 h1        1 UF0      0.045700
     44 H1HA       -2.5330    3.0210    1.7220 h1        1 UF0      0.045700
     45 H1I        -3.7010    2.3550   -0.1090 hc        1 UF0      0.095700
     46 H1IA       -2.2170    1.6480   -0.8770 hc        1 UF0      0.095700
     47 HN1K       -1.6330   -0.7100    0.0960 hn        1 UF0      0.370500
     48 H1M        -2.1910   -2.7220    1.0450 h1        1 UF0      0.075200
     49 H1MA       -3.8630   -2.0670    1.4290 h1        1 UF0      0.075200
     50 H1N        -2.8440   -2.9940   -1.3740 h1        1 UF0      0.081700
     51 H1NA       -3.8460   -3.9830   -0.2060 h1        1 UF0      0.081700
     52 HN1O       -4.7600   -1.3910   -1.3400 hn        1 UF0      0.316500
     53 H1P         3.1620    1.6090    2.7630 hc        1 UF0      0.034367
     54 H1PA        1.8140    2.7560    3.1720 hc        1 UF0      0.034367
     55 H1PB        1.4780    1.2420    2.2130 hc        1 UF0      0.034367
     56 H1Q         3.9330    4.2300    0.3120 hc        1 UF0      0.034367
     57 H1QA        3.7260    4.2840    2.1170 hc        1 UF0      0.034367
     58 H1QB        4.6400    2.9200    1.3510 hc        1 UF0      0.034367
     59 H1V        -7.2020   -1.5610   -2.2180 h1        1 UF0      0.068200
     60 H1VA       -7.2730   -1.0690   -0.4470 h1        1 UF0      0.068200
     61 HO1X        0.8530    3.3630   -1.0110 ho        1 UF0      0.459000
@<TRIPOS>BOND
     1    1    3 1   
     2    1    5 1   
     3    1   32 1   
     4    2    5 1   
     5    2   33 1   
     6    2   34 1   
     7    4   28 1   
     8    4   35 1   
     9    5    6 1   
    10    5   36 1   
    11    6   31 1   
    12    6   37 1   
    13    6   38 1   
    14    7    8 1   
    15    7   24 1   
    16    8    9 1   
    17    8   39 1   
    18    8   40 1   
    19    9   10 1   
    20    9   22 1   
    21    9   23 1   
    22   10   11 1   
    23   10   30 1   
    24   10   41 1   
    25   11   12 1   
    26   11   13 2   
    27   12   14 1   
    28   12   42 1   
    29   14   15 1   
    30   14   43 1   
    31   14   44 1   
    32   15   16 1   
    33   15   45 1   
    34   15   46 1   
    35   16   17 1   
    36   16   18 2   
    37   17   19 1   
    38   17   47 1   
    39   19   20 1   
    40   19   48 1   
    41   19   49 1   
    42   20   21 1   
    43   20   50 1   
    44   20   51 1   
    45   21   27 1   
    46   21   52 1   
    47   22   53 1   
    48   22   54 1   
    49   22   55 1   
    50   23   56 1   
    51   23   57 1   
    52   23   58 1   
    53   24   25 1   
    54   24   26 1   
    55   24   31 1   
    56   27   28 1   
    57   27   29 2   
    58   28   59 1   
    59   28   60 1   
    60   30   61 1   
@<TRIPOS>SUBSTRUCTURE
     1 UF0         1 TEMP              0 ****  ****    0 ROOT
