@<TRIPOS>MOLECULE
UF2
   31    32     1     0     0
SMALL
bcc


@<TRIPOS>ATOM
      1 P          -3.6570   -0.0810    1.2420 p5        1 UF2      1.331900
      2 O1P        -3.0670    0.9850    2.1190 o         1 UF2     -0.927833
      3 O5'        -2.9550    0.3340   -0.3070 os        1 UF2     -0.551200
      4 C5'        -1.5950    0.4430   -0.2670 c3        1 UF2      0.230400
      5 C4'        -0.9300   -0.7960   -0.9150 c3        1 UF2      0.048100
      6 C3'        -0.5780   -1.9170    0.0770 c3        1 UF2      0.144100
      7 O3'        -1.3990   -3.0420   -0.1120 oh        1 UF2     -0.668800
      8 C2'         0.8750   -2.3280   -0.2960 c3        1 UF2      0.111600
      9 F2'         1.6450   -2.6710    0.7940 f         1 UF2     -0.241300
     10 C1'         1.4170   -1.1040   -1.1170 c3        1 UF2      0.273500
     11 O4'         0.2920   -0.3940   -1.5950 os        1 UF2     -0.431600
     12 N1          2.3050   -0.1980   -0.3680 n         1 UF2     -0.366000
     13 C6          1.8120    0.6500    0.6070 cc        1 UF2      0.098600
     14 C5          2.6090    1.5300    1.2800 cd        1 UF2     -0.365200
     15 C4          4.0320    1.6200    0.9810 c         1 UF2      0.720700
     16 N3          4.5060    0.7590   -0.0290 n         1 UF2     -0.595500
     17 C2          3.6730   -0.1410   -0.7180 c         1 UF2      0.806500
     18 O2          4.1760   -0.8640   -1.6130 o         1 UF2     -0.686500
     19 O4          4.8540    2.3830    1.5300 o         1 UF2     -0.674500
     20 O2P        -2.9910   -1.4350    1.3960 o         1 UF2     -0.927833
     21 O1         -5.1290   -0.0690    0.9840 o         1 UF2     -0.927833
     22 H1         -1.2610    1.3400   -0.8690 h1        1 UF2     -0.001300
     23 H2         -1.2350    0.5610    0.7970 h1        1 UF2     -0.001300
     24 H3         -1.6000   -1.1900   -1.7270 h1        1 UF2      0.081700
     25 H4         -0.6450   -1.5640    1.1440 h1        1 UF2      0.113700
     26 H5         -2.2450   -2.8300    0.3530 ho        1 UF2      0.509000
     27 H6          0.8450   -3.2100   -0.9960 h1        1 UF2      0.067700
     28 H7          1.9950   -1.4500   -2.0240 h2        1 UF2      0.092700
     29 H8          0.7160    0.5630    0.8000 h4        1 UF2      0.226000
     30 H9          2.2120    2.1910    2.0580 ha        1 UF2      0.180000
     31 H10         5.4660    0.7720   -0.2840 hn        1 UF2      0.328500
@<TRIPOS>BOND
     1    1    2 1   
     2    1    3 1   
     3    1   20 1   
     4    1   21 1   
     5    3    4 1   
     6    4    5 1   
     7    4   22 1   
     8    4   23 1   
     9    5    6 1   
    10    5   11 1   
    11    5   24 1   
    12    6    7 1   
    13    6    8 1   
    14    6   25 1   
    15    7   26 1   
    16    8    9 1   
    17    8   10 1   
    18    8   27 1   
    19   10   11 1   
    20   10   12 1   
    21   10   28 1   
    22   12   13 1   
    23   12   17 1   
    24   13   14 2   
    25   13   29 1   
    26   14   15 1   
    27   14   30 1   
    28   15   16 1   
    29   15   19 2   
    30   16   17 1   
    31   16   31 1   
    32   17   18 2   
@<TRIPOS>SUBSTRUCTURE
     1 UF2         1 TEMP              0 ****  ****    0 ROOT
