@<TRIPOS>MOLECULE
UF2
   31    29     1     0     0
SMALL
bcc


@<TRIPOS>ATOM
      1 P           2.9580   -0.7870   -2.4680 p3        1 UF2      2.507000
      2 O1P         4.4690   -0.6440   -2.3190 o         1 UF2     -1.241000
      3 O5'         2.2710   -0.7130   -1.0410 o         1 UF2     -0.717000
      4 C5'         0.8430   -0.7540   -0.9780 c3        1 UF2      0.074000
      5 C4'         0.4150   -1.7950    0.0060 c3        1 UF2     -0.096000
      6 C3'        -0.8080   -2.1980   -0.2670 c3        1 UF2     -0.018000
      7 O3'        -0.9790   -3.6170    0.1240 oh        1 UF2     -0.353000
      8 C2'        -1.7230   -1.2980    0.5820 c3        1 UF2      0.006000
      9 F2'        -2.3230   -0.4510   -0.1610 f         1 UF2     -0.163000
     10 C1'        -0.7640   -0.5520    1.6010 c3        1 UF2      0.135000
     11 O4'         0.3600   -1.1610    1.5120 os        1 UF2     -0.237000
     12 N1         -0.6140    0.8540    1.2230 n         1 UF2     -0.262000
     13 C6          0.6370    1.5110    1.4100 c2        1 UF2      0.094000
     14 C5          0.7300    2.9830    1.2380 c1        1 UF2     -0.359000
     15 C4         -0.4440    3.7410    0.7780 c1        1 UF2      0.358000
     16 N3         -1.6630    3.0550    0.4760 n2        1 UF2     -0.374000
     17 C2         -1.7880    1.6200    0.7630 c2        1 UF2      0.391000
     18 O2         -2.8780    1.0930    0.7350 o         1 UF2     -0.422000
     19 O4         -0.3880    4.9430    0.6830 o         1 UF2     -0.408000
     20 O2P         2.4230    0.3520   -3.3510 o         1 UF2     -1.241000
     21 O1          2.6310   -2.1390   -3.1200 o         1 UF2     -1.241000
     22 H1          0.4700   -0.9840   -1.8970 h1        1 UF2      0.037500
     23 H2          0.4950    0.1390   -0.6920 h1        1 UF2      0.037500
     24 H3          1.0590   -2.5890   -0.0180 h1        1 UF2      0.228000
     25 H4         -0.9970   -2.0830   -1.2000 h1        1 UF2      0.127000
     26 H5         -1.4960   -4.0360   -0.4850 ho        1 UF2      0.216000
     27 H6         -2.3840   -1.8480    1.0750 h1        1 UF2      0.101000
     28 H7         -1.1220   -0.6250    2.5220 h2        1 UF2      0.114000
     29 H8          1.4220    1.0000    1.7180 h4        1 UF2      0.288000
     30 H9          1.5970    3.4420    1.3670 ha        1 UF2      0.182000
     31 H10        -2.4110    3.5400    0.1830 hn        1 UF2      0.239000
@<TRIPOS>BOND
     1    1    2 1   
     2    1   20 1   
     3    1   21 1   
     4    3    4 1   
     5    4    5 1   
     6    4   22 1   
     7    4   23 1   
     8    5    6 1   
     9    5   11 1   
    10    5   24 1   
    11    6    7 1   
    12    6    8 1   
    13    6   25 1   
    14    7   26 1   
    15    8    9 1   
    16    8   10 1   
    17    8   27 1   
    18   10   11 1   
    19   10   12 1   
    20   10   28 1   
    21   12   13 1   
    22   12   17 1   
    23   13   14 1   
    24   13   29 1   
    25   14   30 1   
    26   15   19 1   
    27   16   17 1   
    28   16   31 1   
    29   17   18 1   
@<TRIPOS>SUBSTRUCTURE
     1 UF2         1 TEMP              0 ****  ****    0 ROOT
