@<TRIPOS>MOLECULE
UFO
   32    33     1     0     0
SMALL
bcc


@<TRIPOS>ATOM
      1 C2         -0.1220   -0.0160   -0.0020 ca        1 UFO     -0.252300
      2 C1          1.2750    0.1340   -0.0100 ca        1 UFO     -0.129000
      3 C5          1.3320   -0.2300    2.4150 ca        1 UFO      0.222600
      4 C4         -0.0750   -0.3710    2.3820 ca        1 UFO     -0.204000
      5 C3         -0.7870   -0.2640    1.1980 ca        1 UFO     -0.065000
      6 N14        -0.9510   -1.2090   -1.9750 n4        1 UFO     -0.851600
      7 C13        -0.8790    0.1210   -1.2650 c3        1 UFO      0.196100
      8 N7          2.0260   -0.2810    3.6070 nh        1 UFO     -0.663000
      9 C12         1.3630   -0.6400    4.8300 c3        1 UFO      0.195100
     10 C8          3.4700   -0.3340    3.5890 c3        1 UFO      0.205800
     11 C9          4.0790    0.4070    2.3880 c3        1 UFO      0.172800
     12 N10         3.4410    0.0470    1.1340 nh        1 UFO     -0.633000
     13 C11         4.0720    0.6140   -0.0340 c3        1 UFO      0.172100
     14 C6          2.0290    0.0180    1.1610 ca        1 UFO      0.092600
     15 H1          1.7690    0.3600   -0.9680 ha        1 UFO      0.131000
     16 H4         -0.6340   -0.5600    3.3130 ha        1 UFO      0.156000
     17 H3         -1.8840   -0.3640    1.2190 ha        1 UFO      0.133000
     18 HN14       -1.4600   -1.1230   -2.8570 hn        1 UFO      0.451800
     19 HN1A       -1.4230   -1.8930   -1.3750 hn        1 UFO      0.451800
     20 H13        -1.9390    0.4550   -1.0790 hx        1 UFO      0.103700
     21 H13A       -0.3790    0.8440   -1.9720 hx        1 UFO      0.103700
     22 H12         0.5720    0.1220    5.0690 h1        1 UFO      0.054033
     23 H12A        0.8800   -1.6520    4.7490 h1        1 UFO      0.054033
     24 H12B        2.1050   -0.6620    5.6710 h1        1 UFO      0.054033
     25 H8          3.8100   -1.4100    3.5780 h1        1 UFO      0.065200
     26 H8A         3.8600    0.1500    4.5290 h1        1 UFO      0.065200
     27 H9          5.1660    0.1150    2.3200 h1        1 UFO      0.062700
     28 H9A         4.0250    1.5200    2.5700 h1        1 UFO      0.062700
     29 H11         3.6900    1.6420   -0.2800 h1        1 UFO      0.046367
     30 H11A        5.1800    0.6730    0.1350 h1        1 UFO      0.046367
     31 H11B        3.8860   -0.0650   -0.9080 h1        1 UFO      0.046367
     32 H143       -0.0020   -1.5490   -2.1590 hn        1 UFO      0.451800
@<TRIPOS>BOND
     1    1    2 ar  
     2    1    5 ar  
     3    1    7 1   
     4    2   14 ar  
     5    2   15 1   
     6    3    4 ar  
     7    3    8 1   
     8    3   14 ar  
     9    4    5 ar  
    10    4   16 1   
    11    5   17 1   
    12    6    7 1   
    13    6   18 1   
    14    6   19 1   
    15    6   32 1   
    16    7   20 1   
    17    7   21 1   
    18    8    9 1   
    19    8   10 1   
    20    9   22 1   
    21    9   23 1   
    22    9   24 1   
    23   10   11 1   
    24   10   25 1   
    25   10   26 1   
    26   11   12 1   
    27   11   27 1   
    28   11   28 1   
    29   12   13 1   
    30   12   14 1   
    31   13   29 1   
    32   13   30 1   
    33   13   31 1   
@<TRIPOS>SUBSTRUCTURE
     1 UFO         1 TEMP              0 ****  ****    0 ROOT
