@<TRIPOS>MOLECULE
UFO
   31    32     1     0     0
SMALL
bcc


@<TRIPOS>ATOM
      1 C2          2.0950   -0.1000   -0.2140 ca        1 UFO     -0.106300
      2 C1          1.1380    0.9130   -0.1460 ca        1 UFO     -0.147000
      3 C5         -0.6510   -0.7520   -0.0350 ca        1 UFO      0.107600
      4 C4          0.3400   -1.7510   -0.0900 ca        1 UFO     -0.159000
      5 C3          1.6900   -1.4320   -0.1830 ca        1 UFO     -0.113000
      6 N14         4.4120   -0.4350    0.5790 n3        1 UFO     -0.916800
      7 C13         3.5470    0.2550   -0.3520 c3        1 UFO      0.209100
      8 N7         -2.0250   -1.0970   -0.0650 nh        1 UFO     -0.635000
      9 C12        -2.3740   -2.4200    0.3930 c3        1 UFO      0.176100
     10 C8         -2.9370   -0.0630    0.3860 c3        1 UFO      0.184800
     11 C9         -2.5550    1.3240   -0.1520 c3        1 UFO      0.182800
     12 N10        -1.1770    1.6690    0.1460 nh        1 UFO     -0.633000
     13 C11        -0.7950    2.9780   -0.3300 c3        1 UFO      0.175100
     14 C6         -0.2350    0.6250   -0.0420 ca        1 UFO      0.097600
     15 H1          1.4830    1.9590   -0.1670 ha        1 UFO      0.131000
     16 H4          0.0590   -2.8150   -0.0710 ha        1 UFO      0.133000
     17 H3          2.4390   -2.2380   -0.2340 ha        1 UFO      0.145000
     18 HN14        5.2750    0.0610    0.6800 hn        1 UFO      0.350300
     19 HN1A        3.9790   -0.5310    1.4760 hn        1 UFO      0.350300
     20 H13         3.8850   -0.0350   -1.3910 h1        1 UFO      0.031700
     21 H13A        3.6540    1.3790   -0.2760 h1        1 UFO      0.031700
     22 H12        -1.9220   -2.6720    1.3910 h1        1 UFO      0.038367
     23 H12A       -3.4900   -2.5070    0.4730 h1        1 UFO      0.038367
     24 H12B       -2.0160   -3.1670   -0.3640 h1        1 UFO      0.038367
     25 H8         -3.9630   -0.3160   -0.0060 h1        1 UFO      0.044200
     26 H8A        -2.9940   -0.0220    1.5120 h1        1 UFO      0.044200
     27 H9         -2.7610    1.3620   -1.2610 h1        1 UFO      0.043700
     28 H9A        -3.2150    2.0860    0.3510 h1        1 UFO      0.043700
     29 H11        -1.6800    3.6660   -0.2850 h1        1 UFO      0.037700
     30 H11A        0.0020    3.3860    0.3470 h1        1 UFO      0.037700
     31 H11B       -0.4040    2.9650   -1.3830 h1        1 UFO      0.037700
@<TRIPOS>BOND
     1    1    2 ar  
     2    1    5 ar  
     3    1    7 1   
     4    2   14 ar  
     5    2   15 1   
     6    3    4 ar  
     7    3    8 1   
     8    3   14 ar  
     9    4    5 ar  
    10    4   16 1   
    11    5   17 1   
    12    6    7 1   
    13    6   18 1   
    14    6   19 1   
    15    7   20 1   
    16    7   21 1   
    17    8    9 1   
    18    8   10 1   
    19    9   22 1   
    20    9   23 1   
    21    9   24 1   
    22   10   11 1   
    23   10   25 1   
    24   10   26 1   
    25   11   12 1   
    26   11   27 1   
    27   11   28 1   
    28   12   13 1   
    29   12   14 1   
    30   13   29 1   
    31   13   30 1   
    32   13   31 1   
@<TRIPOS>SUBSTRUCTURE
     1 UFO         1 TEMP              0 ****  ****    0 ROOT
