@<TRIPOS>MOLECULE
UFO
   32    33     1     0     0
SMALL
bcc


@<TRIPOS>ATOM
      1 C2         -0.1190   -0.0190   -0.0050 ca        1 UFO     -0.252300
      2 C1          1.2780    0.1300   -0.0110 ca        1 UFO     -0.129000
      3 C5          1.3300   -0.2280    2.4140 ca        1 UFO      0.222600
      4 C4         -0.0770   -0.3670    2.3800 ca        1 UFO     -0.203000
      5 C3         -0.7870   -0.2630    1.1930 ca        1 UFO     -0.065000
      6 N14        -0.9470   -1.2170   -1.9760 n4        1 UFO     -0.851600
      7 C13        -0.8730    0.1160   -1.2710 c3        1 UFO      0.196100
      8 N7          2.0220   -0.2760    3.6080 nh        1 UFO     -0.663000
      9 C12         1.3560   -0.6310    4.8310 c3        1 UFO      0.195100
     10 C8          3.4650   -0.3300    3.5930 c3        1 UFO      0.205800
     11 C9          4.0770    0.4090    2.3910 c3        1 UFO      0.172800
     12 N10         3.4410    0.0450    1.1370 nh        1 UFO     -0.633000
     13 C11         4.0750    0.6090   -0.0310 c3        1 UFO      0.172100
     14 C6          2.0300    0.0180    1.1610 ca        1 UFO      0.092600
     15 H1          1.7740    0.3540   -0.9690 ha        1 UFO      0.131000
     16 H4         -0.6380   -0.5540    3.3100 ha        1 UFO      0.156000
     17 H3         -1.8840   -0.3620    1.2130 ha        1 UFO      0.133000
     18 HN14       -1.4210   -1.8970   -1.3750 hn        1 UFO      0.451800
     19 HN1A        0.0020   -1.5590   -2.1580 hn        1 UFO      0.451800
     20 H13        -1.9340    0.4530   -1.0870 hx        1 UFO      0.103700
     21 H13A       -0.3720    0.8360   -1.9790 hx        1 UFO      0.103700
     22 H12         0.8730   -1.6440    4.7510 h1        1 UFO      0.054033
     23 H12A        0.5650    0.1320    5.0660 h1        1 UFO      0.054033
     24 H12B        2.0960   -0.6520    5.6740 h1        1 UFO      0.054033
     25 H8          3.8540    0.1570    4.5330 h1        1 UFO      0.065200
     26 H8A         3.8050   -1.4060    3.5860 h1        1 UFO      0.065200
     27 H9          5.1640    0.1160    2.3260 h1        1 UFO      0.062700
     28 H9A         4.0230    1.5220    2.5710 h1        1 UFO      0.062700
     29 H11         3.6940    1.6370   -0.2810 h1        1 UFO      0.046367
     30 H11A        3.8910   -0.0720   -0.9040 h1        1 UFO      0.046367
     31 H11B        5.1830    0.6680    0.1400 h1        1 UFO      0.046367
     32 H143       -1.4540   -1.1330   -2.8590 hn        1 UFO      0.451800
@<TRIPOS>BOND
     1    1    2 ar  
     2    1    5 ar  
     3    1    7 1   
     4    2   14 ar  
     5    2   15 1   
     6    3    4 ar  
     7    3    8 1   
     8    3   14 ar  
     9    4    5 ar  
    10    4   16 1   
    11    5   17 1   
    12    6    7 1   
    13    6   18 1   
    14    6   19 1   
    15    6   32 1   
    16    7   20 1   
    17    7   21 1   
    18    8    9 1   
    19    8   10 1   
    20    9   22 1   
    21    9   23 1   
    22    9   24 1   
    23   10   11 1   
    24   10   25 1   
    25   10   26 1   
    26   11   12 1   
    27   11   27 1   
    28   11   28 1   
    29   12   13 1   
    30   12   14 1   
    31   13   29 1   
    32   13   30 1   
    33   13   31 1   
@<TRIPOS>SUBSTRUCTURE
     1 UFO         1 TEMP              0 ****  ****    0 ROOT
