@<TRIPOS>MOLECULE
UFO
   32    33     1     0     0
SMALL
bcc


@<TRIPOS>ATOM
      1 C2         -0.1170   -0.0130   -0.0080 ca        1 UFO     -0.252300
      2 C1          1.2810    0.1230   -0.0130 ca        1 UFO     -0.129000
      3 C5          1.3290   -0.2180    2.4140 ca        1 UFO      0.222600
      4 C4         -0.0800   -0.3440    2.3800 ca        1 UFO     -0.203000
      5 C3         -0.7880   -0.2430    1.1920 ca        1 UFO     -0.065000
      6 N14        -0.9530   -1.2170   -1.9720 nz        1 UFO     -0.851600
      7 C13        -0.8690    0.1190   -1.2750 c3        1 UFO      0.196100
      8 N7          2.0190   -0.2640    3.6100 nh        1 UFO     -0.663000
      9 C12         1.3490   -0.6040    4.8340 c3        1 UFO      0.195100
     10 C8          3.4620   -0.3310    3.5960 c3        1 UFO      0.205800
     11 C9          4.0820    0.3920    2.3890 c3        1 UFO      0.172800
     12 N10         3.4430    0.0260    1.1370 nh        1 UFO     -0.633000
     13 C11         4.0830    0.5750   -0.0340 c3        1 UFO      0.172100
     14 C6          2.0310    0.0120    1.1600 ca        1 UFO      0.092600
     15 H1          1.7810    0.3350   -0.9720 ha        1 UFO      0.131000
     16 H4         -0.6430   -0.5190    3.3110 ha        1 UFO      0.156000
     17 H3         -1.8850   -0.3310    1.2110 ha        1 UFO      0.133000
     18 HN14       -1.4590   -1.1350   -2.8550 hn        1 UFO      0.451800
     19 HN1A       -0.0070   -1.5690   -2.1500 hn        1 UFO      0.451800
     20 H13        -1.9260    0.4670   -1.0950 hx        1 UFO      0.103700
     21 H13A       -0.3600    0.8300   -1.9880 hx        1 UFO      0.103700
     22 H12         2.0880   -0.6250    5.6780 h1        1 UFO      0.054033
     23 H12A        0.8560   -1.6120    4.7610 h1        1 UFO      0.054033
     24 H12B        0.5650    0.1680    5.0630 h1        1 UFO      0.054033
     25 H8          3.8540    0.1590    4.5320 h1        1 UFO      0.065200
     26 H8A         3.7920   -1.4110    3.5970 h1        1 UFO      0.065200
     27 H9          4.0380    1.5070    2.5600 h1        1 UFO      0.062700
     28 H9A         5.1650    0.0890    2.3270 h1        1 UFO      0.062700
     29 H11         3.7120    1.6050   -0.2920 h1        1 UFO      0.046367
     30 H11A        3.8930   -0.1100   -0.9030 h1        1 UFO      0.046367
     31 H11B        5.1910    0.6250    0.1370 h1        1 UFO      0.046367
     32 H143       -1.4330   -1.8900   -1.3660 hn        1 UFO      0.451800
@<TRIPOS>BOND
     1    1    2 ar  
     2    1    5 ar  
     3    1    7 1   
     4    2   14 ar  
     5    2   15 1   
     6    3    4 ar  
     7    3    8 1   
     8    3   14 ar  
     9    4    5 ar  
    10    4   16 1   
    11    5   17 1   
    12    6    7 1   
    13    6   18 1   
    14    6   19 1   
    15    6   32 1   
    16    7   20 1   
    17    7   21 1   
    18    8    9 1   
    19    8   10 1   
    20    9   22 1   
    21    9   23 1   
    22    9   24 1   
    23   10   11 1   
    24   10   25 1   
    25   10   26 1   
    26   11   12 1   
    27   11   27 1   
    28   11   28 1   
    29   12   13 1   
    30   12   14 1   
    31   13   29 1   
    32   13   30 1   
    33   13   31 1   
@<TRIPOS>SUBSTRUCTURE
     1 UFO         1 TEMP              0 ****  ****    0 ROOT
