@<TRIPOS>MOLECULE
UFP
   31    32     1     0     0
SMALL
bcc


@<TRIPOS>ATOM
      1 N1          0.7610   -0.3240    2.1930 n         1 UFP     -0.362000
      2 C2          1.0630   -0.6480    3.5310 c         1 UFP      0.799500
      3 N3          0.0040   -0.9680    4.4030 n         1 UFP     -0.592500
      4 C4         -1.3450   -0.9500    4.0180 c         1 UFP      0.705700
      5 C5         -1.5940   -0.5790    2.6140 cc        1 UFP     -0.092700
      6 C6         -0.5490   -0.2760    1.7690 cd        1 UFP      0.059600
      7 O2          2.2340   -0.6790    3.9790 o         1 UFP     -0.675500
      8 O4         -2.2120   -1.2380    4.8650 o         1 UFP     -0.648500
      9 F5         -2.8810   -0.5490    2.1990 f         1 UFP     -0.140500
     10 C1'         1.8750    0.0790    1.2920 c3        1 UFP      0.308500
     11 C2'         2.2940   -1.0260    0.3040 c3        1 UFP     -0.131400
     12 C3'         1.8150   -0.5410   -1.0730 c3        1 UFP      0.156100
     13 C4'         1.4110    0.9330   -0.8690 c3        1 UFP      0.049100
     14 O3'         2.8840   -0.6560   -1.9830 oh        1 UFP     -0.670800
     15 O4'         1.4920    1.2230    0.5550 os        1 UFP     -0.436600
     16 C5'        -0.0040    1.2770   -1.3930 c3        1 UFP      0.228400
     17 O5'         0.0640    1.7940   -2.6540 os        1 UFP     -0.551200
     18 P          -0.3790    0.6500   -3.9020 p5        1 UFP      1.330900
     19 O1P        -1.7280    0.2040   -3.4200 o         1 UFP     -0.929167
     20 O2P        -0.2960    1.4510   -5.1620 o         1 UFP     -0.929167
     21 O3P         0.7260   -0.3580   -3.6500 o         1 UFP     -0.929167
     22 HN3         0.2440   -1.2020    5.3390 hn        1 UFP      0.334500
     23 H6         -0.7070    0.0280    0.7040 h4        1 UFP      0.240000
     24 H1'         2.7210    0.3920    1.9730 h2        1 UFP      0.082700
     25 H2'1        1.8580   -2.0210    0.5510 hc        1 UFP      0.055200
     26 H2'2        3.4080   -1.1180    0.3170 hc        1 UFP      0.055200
     27 H3'         0.9400   -1.1450   -1.4430 h1        1 UFP      0.105700
     28 H4'         2.1620    1.6160   -1.3490 h1        1 UFP      0.082700
     29 HO3'        2.4740   -0.5570   -2.8750 ho        1 UFP      0.502000
     30 H5'1       -0.6560    0.3550   -1.3690 h1        1 UFP     -0.003800
     31 H5'2       -0.4350    2.0470   -0.6840 h1        1 UFP     -0.003800
@<TRIPOS>BOND
     1    1    2 1   
     2    1    6 1   
     3    1   10 1   
     4    2    3 1   
     5    2    7 2   
     6    3    4 1   
     7    3   22 1   
     8    4    5 1   
     9    4    8 2   
    10    5    6 2   
    11    5    9 1   
    12    6   23 1   
    13   10   11 1   
    14   10   15 1   
    15   10   24 1   
    16   11   12 1   
    17   11   25 1   
    18   11   26 1   
    19   12   13 1   
    20   12   14 1   
    21   12   27 1   
    22   13   15 1   
    23   13   16 1   
    24   13   28 1   
    25   14   29 1   
    26   16   17 1   
    27   16   30 1   
    28   16   31 1   
    29   17   18 1   
    30   18   19 1   
    31   18   20 1   
    32   18   21 1   
@<TRIPOS>SUBSTRUCTURE
     1 UFP         1 TEMP              0 ****  ****    0 ROOT
