@<TRIPOS>MOLECULE
UFR
   33    34     1     0     0
SMALL
bcc


@<TRIPOS>ATOM
      1 O3P        -3.2840   -0.3470    0.1430 o         1 UFR     -0.923833
      2 P          -2.4320   -0.9140    1.2510 p5        1 UFR      1.350900
      3 O1P        -1.0420   -1.2630    0.7370 o         1 UFR     -0.923833
      4 O2P        -3.0250   -1.8120    2.2820 o         1 UFR     -0.923833
      5 O5'        -2.1190    0.5780    2.0710 os        1 UFR     -0.567200
      6 C5'        -0.8890    1.1550    1.9320 c3        1 UFR      0.225400
      7 C4'        -0.8350    2.2090    0.7980 c3        1 UFR      0.061100
      8 O4'         0.5460    2.6130    0.6190 os        1 UFR     -0.438600
      9 C3'        -1.3460    1.7080   -0.5700 c3        1 UFR      0.106100
     10 O3'        -2.5750    2.3050   -0.9150 oh        1 UFR     -0.649800
     11 C2'        -0.2590    2.0980   -1.5720 c3        1 UFR     -0.120400
     12 C1'         0.9950    2.3080   -0.6990 c3        1 UFR      0.301500
     13 N1          1.9030    1.1430   -0.6950 n         1 UFR     -0.370000
     14 C2          3.2740    1.3640   -0.9750 c         1 UFR      0.797500
     15 O2          3.7210    2.4870   -1.3240 o         1 UFR     -0.706500
     16 N3          4.1540    0.2790   -0.8930 n         1 UFR     -0.605500
     17 C4          3.7520   -1.0300   -0.5210 c         1 UFR      0.733700
     18 O4          4.6590   -1.8820   -0.4770 o         1 UFR     -0.646500
     19 C5          2.3320   -1.1950   -0.2370 cc        1 UFR     -0.415400
     20 C6          1.4780   -0.1130   -0.3160 cd        1 UFR      0.107600
     21 C7          1.7500   -2.4870    0.1600 c         1 UFR      0.579100
     22 O5          2.3820   -3.5510    0.1390 o         1 UFR     -0.598100
     23 H5'1       -0.0880    0.3850    1.7540 h1        1 UFR     -0.002300
     24 H5'2       -0.6370    1.7100    2.8850 h1        1 UFR     -0.002300
     25 H4'        -1.3810    3.1400    1.1020 h1        1 UFR      0.049700
     26 H3'        -1.4830    0.5770   -0.5240 h1        1 UFR      0.149700
     27 HO3'       -3.2530    1.6560   -0.6290 ho        1 UFR      0.477000
     28 H2'1       -0.1270    1.3100   -2.3490 hc        1 UFR      0.053700
     29 H2'2       -0.5120    3.0610   -2.0790 hc        1 UFR      0.053700
     30 H1'         1.6070    3.2000   -1.0260 h2        1 UFR      0.089700
     31 HN3         5.1120    0.4600   -1.0870 hn        1 UFR      0.321500
     32 H6          0.3690   -0.2570   -0.0640 h4        1 UFR      0.309000
     33 H7          0.6710   -2.4220    0.4810 h4        1 UFR      0.128200
@<TRIPOS>BOND
     1    1    2 1   
     2    2    3 1   
     3    2    4 1   
     4    2    5 1   
     5    5    6 1   
     6    6    7 1   
     7    6   23 1   
     8    6   24 1   
     9    7    8 1   
    10    7    9 1   
    11    7   25 1   
    12    8   12 1   
    13    9   10 1   
    14    9   11 1   
    15    9   26 1   
    16   10   27 1   
    17   11   12 1   
    18   11   28 1   
    19   11   29 1   
    20   12   13 1   
    21   12   30 1   
    22   13   14 1   
    23   13   20 1   
    24   14   15 2   
    25   14   16 1   
    26   16   17 1   
    27   16   31 1   
    28   17   18 2   
    29   17   19 1   
    30   19   20 2   
    31   19   21 1   
    32   20   32 1   
    33   21   22 2   
    34   21   33 1   
@<TRIPOS>SUBSTRUCTURE
     1 UFR         1 TEMP              0 ****  ****    0 ROOT
