@<TRIPOS>MOLECULE
UFT
   31    32     1     0     0
SMALL
bcc


@<TRIPOS>ATOM
      1 OP3         5.1360   -0.5270    0.4480 o         1 UFT     -0.854500
      2 P           3.7270   -0.3650    0.8670 p5        1 UFT      1.904000
      3 OP1         3.0400   -1.2910    1.7990 o         1 UFT     -0.854500
      4 OP2         3.4820    1.1540    1.3910 oh        1 UFT     -0.840000
      5 O5'         2.7910   -0.2870   -0.5000 os        1 UFT     -0.746000
      6 N1         -2.3970    0.1550   -0.1080 n         1 UFT     -0.239000
      7 C6         -1.8720   -0.8490    0.6750 c2        1 UFT      0.096000
      8 C2         -3.7390    0.0660   -0.5380 c2        1 UFT      0.389000
      9 O2         -4.2860    0.9130   -1.2840 o         1 UFT     -0.404000
     10 N3         -4.5220   -1.0170   -0.0840 n         1 UFT     -0.379000
     11 C4         -4.0130   -2.0350    0.7420 c2        1 UFT      0.359000
     12 O4         -4.7870   -2.9570    1.0840 o         1 UFT     -0.419000
     13 C5         -2.6140   -1.9090    1.1180 c2        1 UFT     -0.374000
     14 F2'        -1.4520    3.3240    0.7230 f         1 UFT     -0.204000
     15 C2'        -0.8450    2.0880    0.5940 c3        1 UFT      0.148000
     16 C5'         1.4110   -0.2630   -0.3030 c3        1 UFT      0.025000
     17 C4'         0.8140    1.0570   -0.8210 c3        1 UFT      0.079000
     18 O4'        -0.5060    0.7380   -1.4040 os        1 UFT     -0.317000
     19 C1'        -1.5370    1.2580   -0.5950 c3        1 UFT      0.071000
     20 C3'         0.5910    2.0830    0.2280 c2        1 UFT     -0.561000
     21 O3'         1.1580    3.3280   -0.0270 oh        1 UFT     -0.296000
     22 H6         -0.7910   -0.7310    0.9220 h4        1 UFT      0.216000
     23 H5         -2.1870   -2.6920    1.7530 ha        1 UFT      0.168000
     24 H2'        -1.0230    1.5340    1.5630 h1        1 UFT      0.046000
     25 H5'         0.9570   -1.1180   -0.8840 h1        1 UFT      0.055000
     26 H5'A        1.1790   -0.3970    0.7910 h1        1 UFT      0.055000
     27 H4'         1.4230    1.4290   -1.6860 h1        1 UFT      0.090000
     28 H1'        -2.1850    1.9190   -1.2360 h2        1 UFT      0.125000
     29 H3'         2.5870    1.4720    1.2590 ho        1 UFT      0.263000
     30 HO3'        1.8430    3.4120    0.6500 ho        1 UFT      0.163000
     31 HN3        -5.4650   -1.0540   -0.3940 hn        1 UFT      0.237000
@<TRIPOS>BOND
     1    1    2 1   
     2    2    3 1   
     3    2    4 1   
     4    2    5 1   
     5    4   29 1   
     6    5   16 1   
     7    6    7 1   
     8    6    8 1   
     9    6   19 1   
    10    7   13 1   
    11    7   22 1   
    12    8    9 1   
    13    8   10 1   
    14   10   11 1   
    15   10   31 1   
    16   11   12 1   
    17   11   13 1   
    18   13   23 1   
    19   14   15 1   
    20   15   19 1   
    21   15   20 1   
    22   15   24 1   
    23   16   17 1   
    24   16   25 1   
    25   16   26 1   
    26   17   18 1   
    27   17   20 1   
    28   17   27 1   
    29   18   19 1   
    30   19   28 1   
    31   20   21 1   
    32   21   30 1   
@<TRIPOS>SUBSTRUCTURE
     1 UFT         1 TEMP              0 ****  ****    0 ROOT
