@<TRIPOS>MOLECULE
UGC
   16    13     1     0     0
SMALL
bcc


@<TRIPOS>ATOM
      1 O3         -1.8440   -0.8500    1.9350 o         1 UGC     -0.219500
      2 C3         -0.9700   -0.7450    1.1450 c1        1 UGC      0.441000
      3 O4         -0.0870   -0.6430    0.3440 o         1 UGC     -0.219500
      4 C2          2.9480    0.7520   -2.1790 c2        1 UGC      0.224000
      5 O2          2.8280    2.0420   -1.8040 oh        1 UGC     -0.221000
      6 N2          2.1390   -0.1080   -1.6120 n8        1 UGC     -0.235000
      7 C1          3.1030   -2.3080   -2.9500 c1        1 UGC     -0.067000
      8 O1          3.9310   -1.6660   -3.5800 o         1 UGC     -0.365000
      9 N1          3.0910   -3.8060   -3.2470 nz        1 UGC     -0.153000
     10 H2          3.7030    0.4260   -2.9410 h5        1 UGC      0.253000
     11 H3          3.4780    2.5870   -2.2900 ho        1 UGC      0.296000
     12 H4          2.2050   -1.1120   -1.8780 hn        1 UGC      0.311000
     13 H5          3.2650   -4.3000   -2.3730 hn        1 UGC      0.214667
     14 H6          2.1590   -4.0530   -3.5760 hn        1 UGC      0.214667
     15 H22         1.4580    0.1680   -0.9280 hn        1 UGC      0.311000
     16 H13         3.7760   -4.1120   -3.9400 hn        1 UGC      0.214667
@<TRIPOS>BOND
     1    1    2 1   
     2    2    3 1   
     3    4    5 1   
     4    4    6 1   
     5    4   10 1   
     6    5   11 1   
     7    6   12 1   
     8    6   15 1   
     9    7    8 1   
    10    7    9 1   
    11    9   13 1   
    12    9   14 1   
    13    9   16 1   
@<TRIPOS>SUBSTRUCTURE
     1 UGC         1 TEMP              0 ****  ****    0 ROOT
