@<TRIPOS>MOLECULE
UGC
   16    13     1     0     0
SMALL
bcc


@<TRIPOS>ATOM
      1 O3          0.5290   -0.6180    0.8330 o         1 UGC     -0.219500
      2 C3         -0.1000   -0.7140    1.8470 c1        1 UGC      0.441000
      3 O4         -0.7210   -0.8140    2.8480 o         1 UGC     -0.219500
      4 C2          2.6180    0.7680   -2.5190 c2        1 UGC      0.224000
      5 O2          2.4500    2.0750   -2.2310 oh        1 UGC     -0.221000
      6 N2          2.0930   -0.0950   -1.6850 n3        1 UGC     -0.235000
      7 C1          2.9240   -2.3300   -3.0530 c1        1 UGC     -0.067000
      8 O1          3.4770   -1.6880   -3.9340 o         1 UGC     -0.365000
      9 N1          3.0110   -3.8470   -3.2120 n4        1 UGC     -0.153000
     10 H2          3.1800    0.4310   -3.4290 h5        1 UGC      0.253000
     11 H3          2.8810    2.6210   -2.9180 ho        1 UGC      0.296000
     12 H4          1.5870    0.1910   -0.8660 hn        1 UGC      0.311000
     13 H5          2.0610   -4.2120   -3.2540 hn        1 UGC      0.214667
     14 H6          3.5220   -4.1620   -4.0390 hn        1 UGC      0.214667
     15 H22         2.2040   -1.1110   -1.8770 hn        1 UGC      0.311000
     16 H13         3.4650   -4.2240   -2.3820 hn        1 UGC      0.214667
@<TRIPOS>BOND
     1    1    2 1   
     2    2    3 1   
     3    4    5 1   
     4    4    6 1   
     5    4   10 1   
     6    5   11 1   
     7    6   12 1   
     8    6   15 1   
     9    7    8 1   
    10    7    9 1   
    11    9   13 1   
    12    9   14 1   
    13    9   16 1   
@<TRIPOS>SUBSTRUCTURE
     1 UGC         1 TEMP              0 ****  ****    0 ROOT
