@<TRIPOS>MOLECULE
UGJ
   30    32     1     0     0
SMALL
bcc


@<TRIPOS>ATOM
      1 N01         1.2080    2.1990   -0.3930 nh        1 UGJ     -0.826600
      2 C02         1.6850    0.9320   -0.2230 cc        1 UGJ      0.276800
      3 C03         3.0380    0.5960   -0.1000 cd        1 UGJ     -0.178100
      4 S04         3.3160   -1.0670   -0.0030 ss        1 UGJ      0.048100
      5 C05         1.6740   -1.4480   -0.0980 ca        1 UGJ      0.493600
      6 C06         0.8610   -0.2690   -0.2170 ca        1 UGJ     -0.290100
      7 C07        -0.5310   -0.4280   -0.2990 cp        1 UGJ      0.146000
      8 C08        -1.4380    0.7200   -0.4270 cp        1 UGJ     -0.082000
      9 C09        -1.7740    1.1880   -1.7060 ca        1 UGJ     -0.092000
     10 C10        -2.6480    2.2610   -1.8590 ca        1 UGJ     -0.129000
     11 C11        -3.1990    2.8810   -0.7360 ca        1 UGJ     -0.108000
     12 C12        -2.8710    2.4310    0.5410 ca        1 UGJ     -0.129000
     13 C13        -1.9910    1.3550    0.6980 ca        1 UGJ      0.026400
     14 CL         -1.6110    0.8310    2.2680 cl        1 UGJ     -0.071400
     15 C15        -1.0550   -1.7240   -0.2760 ca        1 UGJ     -0.208300
     16 C16        -2.4510   -1.9440   -0.3600 cg        1 UGJ      0.241800
     17 N17        -3.5990   -2.1300   -0.4300 n1        1 UGJ     -0.367800
     18 C18        -0.1590   -2.8640   -0.1640 ca        1 UGJ      0.731200
     19 N19        -0.6740   -4.1420   -0.2010 nh        1 UGJ     -0.954500
     20 N20         1.1950   -2.7070   -0.0640 nb        1 UGJ     -0.730000
     21 C21         4.0900    1.5130   -0.0570 ch        1 UGJ      0.237500
     22 N22         4.9660    2.2810   -0.0210 n1        1 UGJ     -0.386800
     23 H011        1.8330    2.9510   -0.2250 hn        1 UGJ      0.433300
     24 H012        0.2410    2.3660   -0.2480 hn        1 UGJ      0.433300
     25 H09        -1.3420    0.6970   -2.5920 ha        1 UGJ      0.153000
     26 H10        -2.9080    2.6160   -2.8680 ha        1 UGJ      0.146000
     27 H11        -3.8960    3.7240   -0.8570 ha        1 UGJ      0.145000
     28 H12        -3.3090    2.9170    1.4270 ha        1 UGJ      0.155000
     29 H191       -1.6490   -4.2610   -0.0750 hn        1 UGJ      0.442800
     30 H192       -0.0790   -4.9150   -0.0210 hn        1 UGJ      0.442800
@<TRIPOS>BOND
     1    1    2 1   
     2    1   23 1   
     3    1   24 1   
     4    2    3 2   
     5    2    6 1   
     6    3    4 1   
     7    3   21 1   
     8    4    5 1   
     9    5    6 ar  
    10    5   20 ar  
    11    6    7 ar  
    12    7    8 1   
    13    7   15 ar  
    14    8    9 ar  
    15    8   13 ar  
    16    9   10 ar  
    17    9   25 1   
    18   10   11 ar  
    19   10   26 1   
    20   11   12 ar  
    21   11   27 1   
    22   12   13 ar  
    23   12   28 1   
    24   13   14 1   
    25   15   16 1   
    26   15   18 ar  
    27   16   17 3   
    28   18   19 1   
    29   18   20 ar  
    30   19   29 1   
    31   19   30 1   
    32   21   22 3   
@<TRIPOS>SUBSTRUCTURE
     1 UGJ         1 TEMP              0 ****  ****    0 ROOT
