@<TRIPOS>MOLECULE
UGJ
   32    34     1     0     0
SMALL
bcc


@<TRIPOS>ATOM
      1 N01        -0.0080   -0.1510    0.2160 n4        1 UGJ     -0.679400
      2 C02         1.4260   -0.0570    0.1030 cc        1 UGJ     -0.059200
      3 C03         2.3050    0.0450    1.1910 cd        1 UGJ      0.035900
      4 S04         3.8970    0.0820    0.7490 ss        1 UGJ      0.401100
      5 C05         3.5490   -0.0350   -0.8970 ca        1 UGJ      0.342600
      6 C06         2.1320   -0.0950   -1.1430 ca        1 UGJ     -0.133100
      7 C07         1.6630   -0.1730   -2.4780 cp        1 UGJ      0.128000
      8 C08         0.2330   -0.1850   -2.7950 cp        1 UGJ     -0.169000
      9 C09        -0.3470    0.9430   -3.3950 ca        1 UGJ     -0.095000
     10 C10        -1.6840    0.9220   -3.7930 ca        1 UGJ     -0.105000
     11 C11        -2.4520   -0.2280   -3.6110 ca        1 UGJ     -0.066000
     12 C12        -1.8920   -1.3550   -3.0050 ca        1 UGJ     -0.107000
     13 C13        -0.5600   -1.3300   -2.5860 ca        1 UGJ     -0.018600
     14 CL          0.1000   -2.7140   -1.8490 cl        1 UGJ     -0.063400
     15 C15         2.6190   -0.2200   -3.4960 ca        1 UGJ     -0.053300
     16 C16         2.2530   -0.3210   -4.8620 cg        1 UGJ      0.140800
     17 N17         1.9300   -0.4100   -5.9770 n1        1 UGJ     -0.200800
     18 C18         4.0160   -0.1740   -3.1400 ca        1 UGJ      0.509200
     19 N19         5.0160   -0.2420   -4.2290 n4        1 UGJ     -0.824300
     20 N20         4.4780   -0.0760   -1.8860 nb        1 UGJ     -0.570000
     21 C21         1.8960    0.1090    2.5350 ch        1 UGJ      0.108500
     22 N22         1.5740    0.1630    3.6530 n1        1 UGJ     -0.164800
     23 H011       -0.2960   -1.1400    0.1020 hn        1 UGJ      0.482133
     24 H012       -0.4520    0.4070   -0.5310 hn        1 UGJ      0.482133
     25 H09         0.2580    1.8470   -3.5680 ha        1 UGJ      0.159000
     26 H10        -2.1270    1.8140   -4.2730 ha        1 UGJ      0.184000
     27 H11        -3.5020   -0.2560   -3.9560 ha        1 UGJ      0.188000
     28 H12        -2.4980   -2.2710   -2.8760 ha        1 UGJ      0.189000
     29 H191        5.9780   -0.1490   -3.8660 hn        1 UGJ      0.491133
     30 H192        4.8320    0.5180   -4.8990 hn        1 UGJ      0.491133
     31 H013       -0.3150    0.1920    1.1370 hn        1 UGJ      0.482133
     32 H193        4.9220   -1.1490   -4.7090 hn        1 UGJ      0.491133
@<TRIPOS>BOND
     1    1    2 1   
     2    1   23 1   
     3    1   24 1   
     4    1   31 1   
     5    2    3 2   
     6    2    6 1   
     7    3    4 1   
     8    3   21 1   
     9    4    5 1   
    10    5    6 ar  
    11    5   20 ar  
    12    6    7 ar  
    13    7    8 1   
    14    7   15 ar  
    15    8    9 ar  
    16    8   13 ar  
    17    9   10 ar  
    18    9   25 1   
    19   10   11 ar  
    20   10   26 1   
    21   11   12 ar  
    22   11   27 1   
    23   12   13 ar  
    24   12   28 1   
    25   13   14 1   
    26   15   16 1   
    27   15   18 ar  
    28   16   17 3   
    29   18   19 1   
    30   18   20 ar  
    31   19   29 1   
    32   19   30 1   
    33   19   32 1   
    34   21   22 3   
@<TRIPOS>SUBSTRUCTURE
     1 UGJ         1 TEMP              0 ****  ****    0 ROOT
