@<TRIPOS>MOLECULE
UGJ
   30    32     1     0     0
SMALL
bcc


@<TRIPOS>ATOM
      1 N01         0.0130    0.1580    0.0730 nh        1 UGJ     -0.826600
      2 C02         1.3760    0.0970    0.0460 cc        1 UGJ      0.276800
      3 C03         2.2020    0.1610    1.1740 cd        1 UGJ     -0.178100
      4 S04         3.8510    0.1610    0.8050 ss        1 UGJ      0.048100
      5 C05         3.5810    0.0590   -0.8570 ca        1 UGJ      0.493600
      6 C06         2.1780    0.0280   -1.1680 ca        1 UGJ     -0.290100
      7 C07         1.7980   -0.0630   -2.5160 cp        1 UGJ      0.146000
      8 C08         0.3870   -0.0940   -2.9250 cp        1 UGJ     -0.082000
      9 C09        -0.2760    1.1130   -3.1890 ca        1 UGJ     -0.092000
     10 C10        -1.6070    1.1130   -3.5990 ca        1 UGJ     -0.129000
     11 C11        -2.2920   -0.0930   -3.7510 ca        1 UGJ     -0.108000
     12 C12        -1.6500   -1.3000   -3.4880 ca        1 UGJ     -0.129000
     13 C13        -0.3130   -1.3040   -3.0730 ca        1 UGJ      0.026400
     14 CL          0.4430   -2.7920   -2.7580 cl        1 UGJ     -0.071400
     15 C15         2.8010   -0.1070   -3.4880 ca        1 UGJ     -0.208300
     16 C16         2.4750   -0.1950   -4.8640 cg        1 UGJ      0.241800
     17 N17         2.2120   -0.2660   -5.9950 n1        1 UGJ     -0.367800
     18 C18         4.1980   -0.0610   -3.0880 ca        1 UGJ      0.731200
     19 N19         5.1830   -0.0440   -4.0520 nh        1 UGJ     -0.954500
     20 N20         4.5680    0.0080   -1.7740 nb        1 UGJ     -0.730000
     21 C21         1.7520    0.2210    2.4950 ch        1 UGJ      0.237500
     22 N22         1.3730    0.2690    3.5950 n1        1 UGJ     -0.386800
     23 H011       -0.4910   -0.1160   -0.7370 hn        1 UGJ      0.433300
     24 H012       -0.4340    0.0450    0.9520 hn        1 UGJ      0.433300
     25 H09         0.2660    2.0650   -3.0720 ha        1 UGJ      0.153000
     26 H10        -2.1150    2.0670   -3.8080 ha        1 UGJ      0.146000
     27 H11        -3.3420   -0.0940   -4.0830 ha        1 UGJ      0.145000
     28 H12        -2.1890   -2.2530   -3.6110 ha        1 UGJ      0.155000
     29 H191        6.1340   -0.1180   -3.7810 hn        1 UGJ      0.442800
     30 H192        4.9390   -0.2890   -4.9790 hn        1 UGJ      0.442800
@<TRIPOS>BOND
     1    1    2 1   
     2    1   23 1   
     3    1   24 1   
     4    2    3 2   
     5    2    6 1   
     6    3    4 1   
     7    3   21 1   
     8    4    5 1   
     9    5    6 ar  
    10    5   20 ar  
    11    6    7 ar  
    12    7    8 1   
    13    7   15 ar  
    14    8    9 ar  
    15    8   13 ar  
    16    9   10 ar  
    17    9   25 1   
    18   10   11 ar  
    19   10   26 1   
    20   11   12 ar  
    21   11   27 1   
    22   12   13 ar  
    23   12   28 1   
    24   13   14 1   
    25   15   16 1   
    26   15   18 ar  
    27   16   17 3   
    28   18   19 1   
    29   18   20 ar  
    30   19   29 1   
    31   19   30 1   
    32   21   22 3   
@<TRIPOS>SUBSTRUCTURE
     1 UGJ         1 TEMP              0 ****  ****    0 ROOT
