@<TRIPOS>MOLECULE
UGJ
   30    32     1     0     0
SMALL
bcc


@<TRIPOS>ATOM
      1 N01         0.0140    0.0510    0.1060 nv        1 UGJ     -0.826600
      2 C02         1.3760    0.0030    0.0710 cc        1 UGJ      0.276800
      3 C03         2.2050   -0.0220    1.1990 cd        1 UGJ     -0.178100
      4 S04         3.8530    0.0220    0.8300 ss        1 UGJ      0.048100
      5 C05         3.5800    0.0580   -0.8360 ca        1 UGJ      0.493600
      6 C06         2.1760    0.0430   -1.1450 ca        1 UGJ     -0.290100
      7 C07         1.7940    0.0620   -2.4950 cp        1 UGJ      0.146000
      8 C08         0.3820    0.0540   -2.9030 cp        1 UGJ     -0.082000
      9 C09        -0.2910    1.2740   -3.0640 ca        1 UGJ     -0.092000
     10 C10        -1.6230    1.2980   -3.4710 ca        1 UGJ     -0.129000
     11 C11        -2.2990    0.1030   -3.7220 ca        1 UGJ     -0.108000
     12 C12        -1.6470   -1.1170   -3.5610 ca        1 UGJ     -0.129000
     13 C13        -0.3090   -1.1440   -3.1510 ca        1 UGJ      0.026400
     14 Cl          0.4590   -2.6480   -2.9620 cl        1 UGJ     -0.071400
     15 C15         2.7950    0.1080   -3.4700 ca        1 UGJ     -0.208300
     16 C16         2.4670    0.1330   -4.8470 cg        1 UGJ      0.241800
     17 N17         2.2010    0.1550   -5.9800 n1        1 UGJ     -0.367800
     18 C18         4.1920    0.1310   -3.0690 ca        1 UGJ      0.731200
     19 N19         5.1750    0.2370   -4.0300 nv        1 UGJ     -0.954500
     20 N20         4.5650    0.0920   -1.7550 nb        1 UGJ     -0.730000
     21 C21         1.7570   -0.0760    2.5210 ch        1 UGJ      0.237500
     22 N22         1.3810   -0.1230    3.6230 n1        1 UGJ     -0.386800
     23 H011       -0.4900   -0.1590   -0.7230 hn        1 UGJ      0.433300
     24 H012       -0.4310   -0.1400    0.9730 hn        1 UGJ      0.433300
     25 H09         0.2440    2.2160   -2.8700 ha        1 UGJ      0.153000
     26 H10        -2.1380    2.2610   -3.5990 ha        1 UGJ      0.146000
     27 H11        -3.3490    0.1220   -4.0510 ha        1 UGJ      0.145000
     28 H12        -2.1790   -2.0590   -3.7630 ha        1 UGJ      0.155000
     29 H191        6.1270    0.1480   -3.7680 hn        1 UGJ      0.442800
     30 H192        4.9310    0.0680   -4.9740 hn        1 UGJ      0.442800
@<TRIPOS>BOND
     1    1    2 1   
     2    1   23 1   
     3    1   24 1   
     4    2    3 2   
     5    2    6 1   
     6    3    4 1   
     7    3   21 1   
     8    4    5 1   
     9    5    6 ar  
    10    5   20 ar  
    11    6    7 ar  
    12    7    8 1   
    13    7   15 ar  
    14    8    9 ar  
    15    8   13 ar  
    16    9   10 ar  
    17    9   25 1   
    18   10   11 ar  
    19   10   26 1   
    20   11   12 ar  
    21   11   27 1   
    22   12   13 ar  
    23   12   28 1   
    24   13   14 1   
    25   15   16 1   
    26   15   18 ar  
    27   16   17 3   
    28   18   19 1   
    29   18   20 ar  
    30   19   29 1   
    31   19   30 1   
    32   21   22 3   
@<TRIPOS>SUBSTRUCTURE
     1 UGJ         1 TEMP              0 ****  ****    0 ROOT
