@<TRIPOS>MOLECULE
UGT
   41    43     1     0     0
SMALL
bcc


@<TRIPOS>ATOM
      1 N14         0.9500    1.8010    2.0090 nz        1 UGT     -0.811600
      2 C06         2.0270    0.8230    1.5970 ce        1 UGT      0.573800
      3 C05         1.7760   -0.4820    2.1810 cc        1 UGT     -0.339000
      4 C04         0.8080   -1.3770    1.7220 cd        1 UGT     -0.102000
      5 C03         0.8130   -2.5770    2.4820 cd        1 UGT     -0.154000
      6 C02         1.7790   -2.5390    3.4760 cc        1 UGT     -0.142100
      7 S01         2.6300   -1.1240    3.4710 ss        1 UGT      0.170200
      8 N07         2.9320    1.3170    0.8280 nf        1 UGT     -0.512100
      9 C08         4.0190    0.6570    0.2500 ca        1 UGT      0.081400
     10 C13         5.0820    1.4760   -0.2090 ca        1 UGT     -0.033000
     11 C09         4.0910   -0.7410    0.0500 ca        1 UGT     -0.109000
     12 C10         5.1960   -1.2970   -0.5840 ca        1 UGT     -0.127000
     13 C11         6.2450   -0.4880   -1.0200 ca        1 UGT     -0.073000
     14 C12         6.1870    0.8990   -0.8320 ca        1 UGT     -0.085300
     15 C15         7.3310    1.7300   -1.3210 c3        1 UGT      0.168700
     16 O16         7.1030    3.0900   -0.9630 os        1 UGT     -0.434600
     17 C17         8.1210    3.9690   -1.4530 c3        1 UGT      0.113100
     18 C21         8.0060    5.2730   -0.6520 c3        1 UGT     -0.106400
     19 C18         7.8560    4.3640   -2.9290 c3        1 UGT      0.119800
     20 N19         7.4190    5.7530   -2.9840 n7        1 UGT     -0.786200
     21 C20         7.7150    6.3680   -1.6920 c3        1 UGT      0.142800
     22 H141        1.0420    2.7030    1.5280 hn        1 UGT      0.462467
     23 H142        1.0130    1.9450    3.0200 hn        1 UGT      0.462467
     24 H04         0.1370   -1.2030    0.8770 ha        1 UGT      0.165000
     25 H03         0.1370   -3.4160    2.2930 ha        1 UGT      0.185000
     26 H02         1.9690   -3.3490    4.1850 h4        1 UGT      0.203000
     27 H13         5.0520    2.5720   -0.0730 ha        1 UGT      0.177000
     28 H09         3.2650   -1.3940    0.3730 ha        1 UGT      0.146000
     29 H10         5.2420   -2.3860   -0.7450 ha        1 UGT      0.157000
     30 H11         7.1190   -0.9390   -1.5160 ha        1 UGT      0.157000
     31 H151        7.4170    1.6390   -2.4390 h1        1 UGT      0.053200
     32 H152        8.2900    1.3750   -0.8490 h1        1 UGT      0.053200
     33 H17         9.1270    3.4910   -1.3360 h1        1 UGT      0.058700
     34 H211        7.1810    5.1990    0.0980 hc        1 UGT      0.062700
     35 H212        8.9570    5.4820   -0.1080 hc        1 UGT      0.062700
     36 H181        8.8160    4.2890   -3.5090 h1        1 UGT      0.058200
     37 H182        7.1050    3.6720   -3.3950 h1        1 UGT      0.058200
     38 H201        8.6250    7.0140   -1.8310 h1        1 UGT      0.055700
     39 H202        6.8740    7.0280   -1.3510 h1        1 UGT      0.055700
     40 H19         6.4350    5.8010   -3.1750 hn        1 UGT      0.351800
     41 H143        0.0440    1.3790    1.7840 hn        1 UGT      0.462467
@<TRIPOS>BOND
     1    1    2 1   
     2    1   22 1   
     3    1   23 1   
     4    1   41 1   
     5    2    3 1   
     6    2    8 2   
     7    3    4 2   
     8    3    7 1   
     9    4    5 1   
    10    4   24 1   
    11    5    6 2   
    12    5   25 1   
    13    6    7 1   
    14    6   26 1   
    15    8    9 1   
    16    9   10 ar  
    17    9   11 ar  
    18   10   14 ar  
    19   10   27 1   
    20   11   12 ar  
    21   11   28 1   
    22   12   13 ar  
    23   12   29 1   
    24   13   14 ar  
    25   13   30 1   
    26   14   15 1   
    27   15   16 1   
    28   15   31 1   
    29   15   32 1   
    30   16   17 1   
    31   17   18 1   
    32   17   19 1   
    33   17   33 1   
    34   18   21 1   
    35   18   34 1   
    36   18   35 1   
    37   19   20 1   
    38   19   36 1   
    39   19   37 1   
    40   20   21 1   
    41   20   40 1   
    42   21   38 1   
    43   21   39 1   
@<TRIPOS>SUBSTRUCTURE
     1 UGT         1 TEMP              0 ****  ****    0 ROOT
