@<TRIPOS>MOLECULE
UGT
   41    43     1     0     0
SMALL
bcc


@<TRIPOS>ATOM
      1 N14         0.9260    1.7550    1.9660 n4        1 UGT     -0.811600
      2 C06         2.0210    0.7900    1.5720 ce        1 UGT      0.573800
      3 C05         1.7820   -0.5150    2.1590 cc        1 UGT     -0.339000
      4 C04         0.8330   -1.4260    1.6950 cd        1 UGT     -0.102000
      5 C03         0.8470   -2.6220    2.4610 cd        1 UGT     -0.154000
      6 C02         1.8010   -2.5650    3.4650 cc        1 UGT     -0.142100
      7 S01         2.6310   -1.1370    3.4620 ss        1 UGT      0.170200
      8 N07         2.9270    1.2930    0.8100 nf        1 UGT     -0.512100
      9 C08         4.0310    0.6460    0.2470 ca        1 UGT      0.081400
     10 C13         5.0860    1.4780   -0.2050 ca        1 UGT     -0.033000
     11 C09         4.1250   -0.7520    0.0560 ca        1 UGT     -0.109000
     12 C10         5.2450   -1.2950   -0.5630 ca        1 UGT     -0.127000
     13 C11         6.2860   -0.4730   -0.9920 ca        1 UGT     -0.074000
     14 C12         6.2070    0.9130   -0.8120 ca        1 UGT     -0.085300
     15 C15         7.3440    1.7580   -1.2930 c3        1 UGT      0.168700
     16 O16         7.0910    3.1170   -0.9480 os        1 UGT     -0.434600
     17 C17         8.1020    4.0070   -1.4310 c3        1 UGT      0.113100
     18 C21         7.9580    5.3150   -0.6410 c3        1 UGT     -0.106400
     19 C18         7.8500    4.3880   -2.9140 c3        1 UGT      0.119800
     20 N19         7.3930    5.7700   -2.9840 n3        1 UGT     -0.786200
     21 C20         7.6630    6.3990   -1.6930 c3        1 UGT      0.142800
     22 H141        0.0280    1.3190    1.7330 hn        1 UGT      0.462467
     23 H142        0.9750    1.9060    2.9770 hn        1 UGT      0.462467
     24 H04         0.1690   -1.2660    0.8410 ha        1 UGT      0.165000
     25 H03         0.1850   -3.4720    2.2700 ha        1 UGT      0.185000
     26 H02         1.9950   -3.3680    4.1810 h4        1 UGT      0.203000
     27 H13         5.0390    2.5740   -0.0760 ha        1 UGT      0.177000
     28 H09         3.3040   -1.4150    0.3740 ha        1 UGT      0.146000
     29 H10         5.3080   -2.3840   -0.7170 ha        1 UGT      0.157000
     30 H11         7.1730   -0.9140   -1.4760 ha        1 UGT      0.157000
     31 H151        7.4440    1.6610   -2.4100 h1        1 UGT      0.053200
     32 H152        8.3020    1.4210   -0.8070 h1        1 UGT      0.053200
     33 H17         9.1140    3.5450   -1.2980 h1        1 UGT      0.058700
     34 H211        7.1240    5.2340    0.0990 hc        1 UGT      0.062700
     35 H212        8.8990    5.5420   -0.0870 hc        1 UGT      0.062700
     36 H181        8.8180    4.3240   -3.4810 h1        1 UGT      0.058200
     37 H182        7.1150    3.6820   -3.3840 h1        1 UGT      0.058200
     38 H201        8.5660    7.0570   -1.8250 h1        1 UGT      0.055700
     39 H202        6.8090    7.0490   -1.3660 h1        1 UGT      0.055700
     40 H19         6.4110    5.8020   -3.1870 hn        1 UGT      0.351800
     41 H143        1.0100    2.6560    1.4810 hn        1 UGT      0.462467
@<TRIPOS>BOND
     1    1    2 1   
     2    1   22 1   
     3    1   23 1   
     4    1   41 1   
     5    2    3 1   
     6    2    8 2   
     7    3    4 2   
     8    3    7 1   
     9    4    5 1   
    10    4   24 1   
    11    5    6 2   
    12    5   25 1   
    13    6    7 1   
    14    6   26 1   
    15    8    9 1   
    16    9   10 ar  
    17    9   11 ar  
    18   10   14 ar  
    19   10   27 1   
    20   11   12 ar  
    21   11   28 1   
    22   12   13 ar  
    23   12   29 1   
    24   13   14 ar  
    25   13   30 1   
    26   14   15 1   
    27   15   16 1   
    28   15   31 1   
    29   15   32 1   
    30   16   17 1   
    31   17   18 1   
    32   17   19 1   
    33   17   33 1   
    34   18   21 1   
    35   18   34 1   
    36   18   35 1   
    37   19   20 1   
    38   19   36 1   
    39   19   37 1   
    40   20   21 1   
    41   20   40 1   
    42   21   38 1   
    43   21   39 1   
@<TRIPOS>SUBSTRUCTURE
     1 UGT         1 TEMP              0 ****  ****    0 ROOT
