@<TRIPOS>MOLECULE
UGX
   47    49     1     0     0
SMALL
bcc


@<TRIPOS>ATOM
      1 O13         3.0830    0.1900    1.7900 o         1 UGX     -0.620100
      2 C12         2.8960    0.2660    0.5580 c         1 UGX      0.656100
      3 N14         3.9360    0.1390   -0.3390 n         1 UGX     -0.560900
      4 C21         5.2690   -0.2140    0.0580 c3        1 UGX      0.090000
      5 C15         5.8290   -1.5070   -0.5770 c3        1 UGX     -0.078000
      6 C24         5.8250   -1.4050   -2.0930 c3        1 UGX     -0.088100
      7 C23         7.2640   -1.6600   -0.0880 c3        1 UGX     -0.088100
      8 C22         5.0180   -2.7130   -0.1380 c3        1 UGX     -0.088100
      9 C11         1.5210    0.5320   -0.0300 c3        1 UGX     -0.179400
     10 C6          0.5170    0.8970    1.0790 c3        1 UGX      0.053000
     11 N5         -0.8540    0.7860    0.6410 na        1 UGX     -0.053100
     12 C1         -1.6250   -0.3480    0.4700 cc        1 UGX     -0.107300
     13 C7          0.8060    2.3360    1.6060 c3        1 UGX      0.086000
     14 N8          0.2540    3.3840    0.7940 n         1 UGX     -0.576900
     15 C9         -1.0130    3.2590    0.2250 c         1 UGX      0.734100
     16 O10        -1.5870    4.2540   -0.2550 o         1 UGX     -0.626500
     17 C4         -1.5800    1.9020    0.1790 cc        1 UGX     -0.193900
     18 C2         -2.8360    1.4610   -0.2610 cd        1 UGX     -0.087000
     19 C3         -2.8720    0.0340   -0.0780 cd        1 UGX     -0.100000
     20 C16        -3.9590   -0.8400   -0.3860 cd        1 UGX     -0.021000
     21 C18        -3.9930   -2.2060   -0.1560 cc        1 UGX     -0.185100
     22 S20        -5.4330   -2.8840   -0.6490 ss        1 UGX      0.018200
     23 C19        -6.0680   -1.4310   -1.1810 cc        1 UGX     -0.168100
     24 C17        -5.1880   -0.3920   -0.9910 cd        1 UGX     -0.141000
     25 H14         3.7310    0.1130   -1.3100 hn        1 UGX      0.310500
     26 H111        1.5720    1.3640   -0.7810 hc        1 UGX      0.082700
     27 H112        1.1840   -0.3960   -0.5650 hc        1 UGX      0.082700
     28 H211        5.9520    0.6380   -0.2310 h1        1 UGX      0.063700
     29 H212        5.2980   -0.3240    1.1810 h1        1 UGX      0.063700
     30 H241        6.2840   -0.4410   -2.4210 hc        1 UGX      0.037811
     31 H242        6.4140   -2.2460   -2.5340 hc        1 UGX      0.037811
     32 H243        4.7870   -1.4650   -2.4980 hc        1 UGX      0.037811
     33 H231        7.2910   -1.7110    1.0270 hc        1 UGX      0.037811
     34 H232        7.7100   -2.5980   -0.4980 hc        1 UGX      0.037811
     35 H233        7.8840   -0.7940   -0.4230 hc        1 UGX      0.037811
     36 H221        3.9710   -2.6490   -0.5210 hc        1 UGX      0.037811
     37 H222        5.4790   -3.6500   -0.5330 hc        1 UGX      0.037811
     38 H223        4.9860   -2.7740    0.9770 hc        1 UGX      0.037811
     39 H6          0.6760    0.1850    1.9450 h1        1 UGX      0.100700
     40 H71C        0.4030    2.4000    2.6600 h1        1 UGX      0.061200
     41 H72C        1.9250    2.4590    1.6550 h1        1 UGX      0.061200
     42 H1         -1.2660   -1.3380    0.7540 h4        1 UGX      0.172000
     43 H8          0.6060    4.3020    0.9390 hn        1 UGX      0.322500
     44 H2         -3.6290    2.0890   -0.6590 ha        1 UGX      0.171000
     45 H18        -3.1910   -2.7860    0.2940 h4        1 UGX      0.165000
     46 H17        -5.3700    0.6510   -1.2550 ha        1 UGX      0.156000
     47 H19        -7.0610   -1.3470   -1.6190 h4        1 UGX      0.171000
@<TRIPOS>BOND
     1    1    2 2   
     2    2    3 1   
     3    2    9 1   
     4    3    4 1   
     5    3   25 1   
     6    4    5 1   
     7    4   28 1   
     8    4   29 1   
     9    5    6 1   
    10    5    7 1   
    11    5    8 1   
    12    6   30 1   
    13    6   31 1   
    14    6   32 1   
    15    7   33 1   
    16    7   34 1   
    17    7   35 1   
    18    8   36 1   
    19    8   37 1   
    20    8   38 1   
    21    9   10 1   
    22    9   26 1   
    23    9   27 1   
    24   10   11 1   
    25   10   13 1   
    26   10   39 1   
    27   11   12 1   
    28   11   17 1   
    29   12   19 2   
    30   12   42 1   
    31   13   14 1   
    32   13   40 1   
    33   13   41 1   
    34   14   15 1   
    35   14   43 1   
    36   15   16 2   
    37   15   17 1   
    38   17   18 2   
    39   18   19 1   
    40   18   44 1   
    41   19   20 1   
    42   20   21 2   
    43   20   24 1   
    44   21   22 1   
    45   21   45 1   
    46   22   23 1   
    47   23   24 2   
    48   23   47 1   
    49   24   46 1   
@<TRIPOS>SUBSTRUCTURE
     1 UGX         1 TEMP              0 ****  ****    0 ROOT
