@<TRIPOS>MOLECULE
UGX
   48    50     1     0     0
SMALL
bcc


@<TRIPOS>ATOM
      1 O13        -1.0010    0.1410    0.9050 o         1 UGX     -0.412100
      2 C12        -0.2130   -0.3100    0.0860 c         1 UGX      0.563100
      3 N14         1.2180    0.1430    0.2250 n4        1 UGX     -0.673800
      4 C21         1.8160   -0.2970    1.5200 c3        1 UGX      0.105800
      5 C15         3.2390    0.2490    1.7480 c3        1 UGX     -0.068000
      6 C24         3.2400    1.7690    1.7260 c3        1 UGX     -0.110433
      7 C23         3.6690   -0.2430    3.1260 c3        1 UGX     -0.110433
      8 C22         4.1910   -0.2920    0.6940 c3        1 UGX     -0.110433
      9 C11        -0.5370   -1.2700   -1.0230 c3        1 UGX     -0.179400
     10 C6         -0.4730   -0.6450   -2.4340 c3        1 UGX      0.048000
     11 N5          0.8700   -0.4990   -2.9240 na        1 UGX     -0.103100
     12 C1          1.6460   -1.3700   -3.6760 cc        1 UGX     -0.097300
     13 C7         -1.2080    0.7310   -2.4450 c3        1 UGX      0.052000
     14 N8         -0.4260    1.7710   -1.8210 n         1 UGX     -0.582900
     15 C9          0.9350    1.8920   -2.1560 c         1 UGX      0.693100
     16 O10         1.5830    2.8800   -1.7690 o         1 UGX     -0.592500
     17 C4          1.5580    0.7330   -2.8080 cc        1 UGX     -0.272900
     18 C2          2.7860    0.6150   -3.4740 cd        1 UGX     -0.052000
     19 C3          2.8500   -0.7170   -4.0200 cd        1 UGX     -0.057000
     20 C16         3.9290   -1.2740   -4.7730 cd        1 UGX     -0.071000
     21 C18         3.9610   -2.5510   -5.3200 cc        1 UGX     -0.190100
     22 S20         5.3730   -2.8380   -6.1350 ss        1 UGX      0.120200
     23 C19         6.0060   -1.3310   -5.8150 cc        1 UGX     -0.176100
     24 C17         5.1410   -0.5610   -5.0700 cd        1 UGX     -0.139000
     25 H14         1.2470    1.1770    0.1950 hn        1 UGX      0.474800
     26 H111       -1.5960   -1.6170   -0.8510 hc        1 UGX      0.117200
     27 H112        0.1330   -2.1700   -0.9570 hc        1 UGX      0.117200
     28 H211        1.8390   -1.4230    1.5260 hx        1 UGX      0.104700
     29 H212        1.1370    0.0640    2.3480 hx        1 UGX      0.104700
     30 H241        2.4320    2.1750    2.3820 hc        1 UGX      0.057478
     31 H242        4.2210    2.1460    2.1110 hc        1 UGX      0.057478
     32 H243        3.1110    2.1690    0.6910 hc        1 UGX      0.057478
     33 H231        4.7070    0.1100    3.3410 hc        1 UGX      0.057478
     34 H232        2.9900    0.1580    3.9160 hc        1 UGX      0.057478
     35 H233        3.6590   -1.3580    3.1660 hc        1 UGX      0.057478
     36 H221        5.2420   -0.0290    0.9710 hc        1 UGX      0.057478
     37 H222        4.1170   -1.4040    0.6270 hc        1 UGX      0.057478
     38 H223        3.9860    0.1510   -0.3100 hc        1 UGX      0.057478
     39 H6         -1.0370   -1.3470   -3.1210 h1        1 UGX      0.113700
     40 H71C       -2.1730    0.6230   -1.8720 h1        1 UGX      0.083700
     41 H72C       -1.4600    0.9830   -3.5160 h1        1 UGX      0.083700
     42 H1          1.3110   -2.3800   -3.9200 h4        1 UGX      0.187000
     43 H8         -0.9130    2.6290   -1.6520 hn        1 UGX      0.336500
     44 H2          3.5450    1.3930   -3.5650 ha        1 UGX      0.187000
     45 H18         3.1600   -3.2850   -5.2420 h4        1 UGX      0.168000
     46 H17         5.3290    0.4630   -4.7430 ha        1 UGX      0.156000
     47 H19         6.9880   -1.0120   -6.1670 h4        1 UGX      0.185000
     48 H142        1.7930   -0.2080   -0.5520 hn        1 UGX      0.474800
@<TRIPOS>BOND
     1    1    2 2   
     2    2    3 1   
     3    2    9 1   
     4    3    4 1   
     5    3   25 1   
     6    3   48 1   
     7    4    5 1   
     8    4   28 1   
     9    4   29 1   
    10    5    6 1   
    11    5    7 1   
    12    5    8 1   
    13    6   30 1   
    14    6   31 1   
    15    6   32 1   
    16    7   33 1   
    17    7   34 1   
    18    7   35 1   
    19    8   36 1   
    20    8   37 1   
    21    8   38 1   
    22    9   10 1   
    23    9   26 1   
    24    9   27 1   
    25   10   11 1   
    26   10   13 1   
    27   10   39 1   
    28   11   12 1   
    29   11   17 1   
    30   12   19 2   
    31   12   42 1   
    32   13   14 1   
    33   13   40 1   
    34   13   41 1   
    35   14   15 1   
    36   14   43 1   
    37   15   16 2   
    38   15   17 1   
    39   17   18 2   
    40   18   19 1   
    41   18   44 1   
    42   19   20 1   
    43   20   21 2   
    44   20   24 1   
    45   21   22 1   
    46   21   45 1   
    47   22   23 1   
    48   23   24 2   
    49   23   47 1   
    50   24   46 1   
@<TRIPOS>SUBSTRUCTURE
     1 UGX         1 TEMP              0 ****  ****    0 ROOT
