@<TRIPOS>MOLECULE
UGX
   47    42     1     0     0
SMALL
bcc


@<TRIPOS>ATOM
      1 O13        -2.1330   -0.0640    1.0970 o         1 UGX     -0.372000
      2 C12        -1.0190    0.4200    1.1020 c1        1 UGX      0.300000
      3 N14        -0.5370    1.1360    2.2850 n2        1 UGX     -0.371000
      4 C21        -1.0910    0.8290    3.5990 c3        1 UGX     -0.026000
      5 C15        -0.6990    1.9570    4.6080 c3        1 UGX     -0.078000
      6 C24        -1.4900    1.7740    5.9190 c3        1 UGX     -0.206333
      7 C23         0.7970    1.8800    4.9020 c3        1 UGX     -0.206333
      8 C22        -1.0300    3.3210    4.0020 c3        1 UGX     -0.206333
      9 C11        -0.0980    0.2600   -0.1370 c3        1 UGX     -0.200000
     10 C6         -0.9730   -0.0950   -1.4010 c3        1 UGX      0.031000
     11 N5         -0.0880   -0.8290   -2.3910 n3        1 UGX     -0.119000
     12 C1          0.7750   -1.8930   -2.3110 c1        1 UGX     -0.090000
     13 C7         -1.5780    1.0990   -1.8650 c3        1 UGX     -0.027000
     14 N8         -1.9760    1.1230   -3.1890 n         1 UGX     -0.387000
     15 C9         -1.0730    0.7900   -4.1100 c2        1 UGX      0.377000
     16 O10        -0.8190    1.5590   -5.0150 o         1 UGX     -0.353000
     17 C4         -0.0640   -0.3410   -3.7390 c2        1 UGX     -0.144000
     18 C2          0.8220   -1.1230   -4.4600 c1        1 UGX     -0.088000
     19 C3          1.3520   -2.0900   -3.5940 c1        1 UGX     -0.099000
     20 C16         2.2850   -3.2490   -3.9980 c1        1 UGX     -0.080000
     21 C18         3.7370   -3.2390   -3.9250 c1        1 UGX     -0.446500
     22 S20         4.2530   -4.6150   -4.4420 ss        1 UGX      0.556000
     23 C19         3.0140   -5.4620   -4.8330 c1        1 UGX     -0.446500
     24 C17         1.8240   -4.6620   -4.5740 c1        1 UGX     -0.080000
     25 H14         0.1100    1.7680    2.2010 hn        1 UGX      0.223000
     26 H111        0.5430   -0.4560    0.0250 hc        1 UGX      0.117000
     27 H112        0.3810    1.0950   -0.2970 hc        1 UGX      0.117000
     28 H211       -2.0650    0.7720    3.5360 h1        1 UGX      0.104000
     29 H212       -0.7320   -0.0290    3.9120 h1        1 UGX      0.104000
     30 H241       -2.3690    2.2120    5.8350 hc        1 UGX      0.077222
     31 H242       -1.6170    0.8120    6.0950 hc        1 UGX      0.077222
     32 H243       -0.9890    2.1810    6.6660 hc        1 UGX      0.077222
     33 H231        1.2960    1.8870    4.0590 hc        1 UGX      0.077222
     34 H232        0.9930    1.0520    5.3910 hc        1 UGX      0.077222
     35 H233        1.0650    2.6580    5.4500 hc        1 UGX      0.077222
     36 H221       -1.9110    3.2810    3.5680 hc        1 UGX      0.077222
     37 H222       -0.3510    3.5570    3.3410 hc        1 UGX      0.077222
     38 H223       -1.0450    3.9990    4.7120 hc        1 UGX      0.077222
     39 H6         -1.6850   -0.7070   -1.1190 h1        1 UGX      0.137000
     40 H71C       -0.9420    1.8320   -1.7280 h1        1 UGX      0.098000
     41 H72C       -2.3730    1.2740   -1.3060 h1        1 UGX      0.098000
     42 H1          0.9600   -2.4210   -1.5120 DU        1 UGX      0.166200
     43 H8         -2.7230    1.5850   -3.4310 hn        1 UGX      0.241000
     44 H2          1.0380   -1.0200   -5.4030 DU        1 UGX      0.166200
     45 H18         4.2920   -2.4980   -3.6080 DU        1 UGX      0.166200
     46 H17         0.9040   -4.9420   -4.7280 DU        1 UGX      0.166200
     47 H19         3.0290   -6.3730   -5.1900 DU        1 UGX      0.166200
@<TRIPOS>BOND
     1    1    2 1   
     2    2    9 1   
     3    3    4 1   
     4    3   25 1   
     5    4    5 1   
     6    4   28 1   
     7    4   29 1   
     8    5    6 1   
     9    5    7 1   
    10    5    8 1   
    11    6   30 1   
    12    6   31 1   
    13    6   32 1   
    14    7   33 1   
    15    7   34 1   
    16    7   35 1   
    17    8   36 1   
    18    8   37 1   
    19    8   38 1   
    20    9   10 1   
    21    9   26 1   
    22    9   27 1   
    23   10   11 1   
    24   10   13 1   
    25   10   39 1   
    26   11   12 1   
    27   11   17 1   
    28   12   19 1   
    29   13   14 1   
    30   13   40 1   
    31   13   41 1   
    32   14   15 1   
    33   14   43 1   
    34   15   16 1   
    35   15   17 1   
    36   17   18 1   
    37   18   19 1   
    38   20   21 1   
    39   20   24 1   
    40   21   22 1   
    41   22   23 1   
    42   23   24 1   
@<TRIPOS>SUBSTRUCTURE
     1 UGX         1 TEMP              0 ****  ****    0 ROOT
