@<TRIPOS>MOLECULE
UGX
   48    50     1     0     0
SMALL
bcc


@<TRIPOS>ATOM
      1 O13        -0.9610    0.2260    0.9510 o         1 UGX     -0.412100
      2 C12        -0.2020   -0.2410    0.1140 c         1 UGX      0.563100
      3 N14         1.2480    0.1540    0.2410 ny        1 UGX     -0.673800
      4 C21         1.8440   -0.3320    1.5210 c3        1 UGX      0.105800
      5 C15         3.2900    0.1530    1.7390 c3        1 UGX     -0.068000
      6 C24         3.3510    1.6720    1.7430 c3        1 UGX     -0.110433
      7 C23         3.7180   -0.3790    3.1020 c3        1 UGX     -0.110433
      8 C22         4.2060   -0.4060    0.6640 c3        1 UGX     -0.110433
      9 C11        -0.5770   -1.1670   -1.0070 c3        1 UGX     -0.179400
     10 C6         -0.5060   -0.5210   -2.4080 c3        1 UGX      0.048000
     11 N5          0.8350   -0.4190   -2.9130 na        1 UGX     -0.103100
     12 C1          1.5670   -1.3060   -3.6910 cc        1 UGX     -0.097300
     13 C7         -1.1870    0.8830   -2.3850 c3        1 UGX      0.052000
     14 N8         -0.3570    1.8810   -1.7540 ns        1 UGX     -0.582900
     15 C9          1.0040    1.9540   -2.1050 c         1 UGX      0.693100
     16 O10         1.6950    2.9090   -1.7100 o         1 UGX     -0.592500
     17 C4          1.5730    0.7830   -2.7850 cc        1 UGX     -0.272900
     18 C2          2.7870    0.6290   -3.4690 cd        1 UGX     -0.052000
     19 C3          2.7910   -0.6940   -4.0390 cd        1 UGX     -0.057000
     20 C16         3.8370   -1.2800   -4.8150 cd        1 UGX     -0.071000
     21 C18         3.8120   -2.5490   -5.3840 cc        1 UGX     -0.190100
     22 S20         5.2020   -2.8760   -6.2230 ss        1 UGX      0.120200
     23 C19         5.8970   -1.4000   -5.8870 cc        1 UGX     -0.176100
     24 C17         5.0720   -0.6100   -5.1180 cd        1 UGX     -0.139000
     25 H14         1.7980   -0.2070   -0.5490 hn        1 UGX      0.474800
     26 H111        0.0570   -2.0940   -0.9650 hc        1 UGX      0.117200
     27 H112       -1.6470   -1.4750   -0.8270 hc        1 UGX      0.117200
     28 H211        1.1900    0.0410    2.3630 hx        1 UGX      0.104700
     29 H212        1.8220   -1.4580    1.5070 hx        1 UGX      0.104700
     30 H241        2.5680    2.0980    2.4160 hc        1 UGX      0.057478
     31 H242        3.2250    2.0950    0.7160 hc        1 UGX      0.057478
     32 H243        4.3510    2.0040    2.1200 hc        1 UGX      0.057478
     33 H231        4.7720   -0.0710    3.3090 hc        1 UGX      0.057478
     34 H232        3.0650    0.0340    3.9080 hc        1 UGX      0.057478
     35 H233        3.6640   -1.4940    3.1240 hc        1 UGX      0.057478
     36 H221        4.0070    0.0620   -0.3300 hc        1 UGX      0.057478
     37 H222        5.2710   -0.1900    0.9310 hc        1 UGX      0.057478
     38 H223        4.0880   -1.5130    0.5790 hc        1 UGX      0.057478
     39 H6         -1.1060   -1.1870   -3.1000 h1        1 UGX      0.113700
     40 H71C       -2.1480    0.8020   -1.8020 h1        1 UGX      0.083700
     41 H72C       -1.4420    1.1630   -3.4490 h1        1 UGX      0.083700
     42 H1          1.1890   -2.2980   -3.9470 h4        1 UGX      0.187000
     43 H8         -0.8070    2.7530   -1.5640 hn        1 UGX      0.336500
     44 H2          3.5740    1.3780   -3.5570 ha        1 UGX      0.187000
     45 H18         2.9850   -3.2520   -5.3060 h4        1 UGX      0.168000
     46 H17         5.3040    0.4010   -4.7780 ha        1 UGX      0.156000
     47 H19         6.8850   -1.1120   -6.2470 h4        1 UGX      0.185000
     48 H142        1.3170    1.1860    0.2290 hn        1 UGX      0.474800
@<TRIPOS>BOND
     1    1    2 2   
     2    2    3 1   
     3    2    9 1   
     4    3    4 1   
     5    3   25 1   
     6    3   48 1   
     7    4    5 1   
     8    4   28 1   
     9    4   29 1   
    10    5    6 1   
    11    5    7 1   
    12    5    8 1   
    13    6   30 1   
    14    6   31 1   
    15    6   32 1   
    16    7   33 1   
    17    7   34 1   
    18    7   35 1   
    19    8   36 1   
    20    8   37 1   
    21    8   38 1   
    22    9   10 1   
    23    9   26 1   
    24    9   27 1   
    25   10   11 1   
    26   10   13 1   
    27   10   39 1   
    28   11   12 1   
    29   11   17 1   
    30   12   19 2   
    31   12   42 1   
    32   13   14 1   
    33   13   40 1   
    34   13   41 1   
    35   14   15 1   
    36   14   43 1   
    37   15   16 2   
    38   15   17 1   
    39   17   18 2   
    40   18   19 1   
    41   18   44 1   
    42   19   20 1   
    43   20   21 2   
    44   20   24 1   
    45   21   22 1   
    46   21   45 1   
    47   22   23 1   
    48   23   24 2   
    49   23   47 1   
    50   24   46 1   
@<TRIPOS>SUBSTRUCTURE
     1 UGX         1 TEMP              0 ****  ****    0 ROOT
