@<TRIPOS>MOLECULE
UGX
   48    50     1     0     0
SMALL
bcc


@<TRIPOS>ATOM
      1 O13        -0.9710    0.2310    0.9360 o         1 UGX     -0.412100
      2 C12        -0.2000   -0.2470    0.1160 c         1 UGX      0.563100
      3 N14         1.2410    0.1830    0.2310 n4        1 UGX     -0.673800
      4 C21         1.8450   -0.2460    1.5270 c3        1 UGX      0.105800
      5 C15         3.2800    0.2790    1.7300 c3        1 UGX     -0.068000
      6 C24         3.3070    1.7980    1.6830 c3        1 UGX     -0.110433
      7 C23         3.7170   -0.1980    3.1100 c3        1 UGX     -0.110433
      8 C22         4.2100   -0.2960    0.6750 c3        1 UGX     -0.110433
      9 C11        -0.5530   -1.2180   -0.9740 c3        1 UGX     -0.179400
     10 C6         -0.4950   -0.6180   -2.3950 c3        1 UGX      0.048000
     11 N5          0.8450   -0.5030   -2.9030 na        1 UGX     -0.103100
     12 C1          1.5970   -1.3990   -3.6500 cc        1 UGX     -0.097300
     13 C7         -1.2060    0.7700   -2.4200 c3        1 UGX      0.052000
     14 N8         -0.3990    1.8070   -1.8220 n         1 UGX     -0.582900
     15 C9          0.9600    1.8980   -2.1740 c         1 UGX      0.693100
     16 O10         1.6290    2.8810   -1.8100 o         1 UGX     -0.592500
     17 C4          1.5550    0.7180   -2.8150 cc        1 UGX     -0.272900
     18 C2          2.7730    0.5690   -3.4920 cd        1 UGX     -0.052000
     19 C3          2.8080   -0.7730   -4.0180 cd        1 UGX     -0.057000
     20 C16         3.8680   -1.3600   -4.7740 cd        1 UGX     -0.071000
     21 C18         3.8720   -2.6480   -5.2990 cc        1 UGX     -0.190100
     22 S20         5.2700   -2.9710   -6.1260 ss        1 UGX      0.120200
     23 C19         5.9310   -1.4700   -5.8410 cc        1 UGX     -0.176100
     24 C17         5.0870   -0.6730   -5.0990 cd        1 UGX     -0.139000
     25 H14         1.2870    1.2160    0.1840 hn        1 UGX      0.474800
     26 H111        0.1020   -2.1290   -0.9000 hc        1 UGX      0.117200
     27 H112       -1.6160   -1.5440   -0.7840 hc        1 UGX      0.117200
     28 H211        1.1820    0.1400    2.3560 hx        1 UGX      0.104700
     29 H212        1.8490   -1.3720    1.5510 hx        1 UGX      0.104700
     30 H241        2.5140    2.2280    2.3410 hc        1 UGX      0.057478
     31 H242        4.2980    2.1640    2.0500 hc        1 UGX      0.057478
     32 H243        3.1730    2.1830    0.6430 hc        1 UGX      0.057478
     33 H231        4.7640    0.1400    3.3080 hc        1 UGX      0.057478
     34 H232        3.6890   -1.3130    3.1690 hc        1 UGX      0.057478
     35 H233        3.0540    0.2260    3.9010 hc        1 UGX      0.057478
     36 H221        4.1160   -1.4070    0.6260 hc        1 UGX      0.057478
     37 H222        4.0020    0.1350   -0.3340 hc        1 UGX      0.057478
     38 H223        5.2690   -0.0470    0.9350 hc        1 UGX      0.057478
     39 H6         -1.0790   -1.3200   -3.0650 h1        1 UGX      0.113700
     40 H71C       -1.4660    1.0090   -3.4920 h1        1 UGX      0.083700
     41 H72C       -2.1660    0.6880   -1.8350 h1        1 UGX      0.083700
     42 H1          1.2410   -2.4070   -3.8740 h4        1 UGX      0.187000
     43 H8         -0.8690    2.6750   -1.6620 hn        1 UGX      0.336500
     44 H2          3.5440    1.3310   -3.6050 ha        1 UGX      0.187000
     45 H18         3.0610   -3.3670   -5.1980 h4        1 UGX      0.168000
     46 H17         5.2960    0.3540   -4.7930 ha        1 UGX      0.156000
     47 H19         6.9120   -1.1720   -6.2100 h4        1 UGX      0.185000
     48 H142        1.8000   -0.1910   -0.5460 hn        1 UGX      0.474800
@<TRIPOS>BOND
     1    1    2 2   
     2    2    3 1   
     3    2    9 1   
     4    3    4 1   
     5    3   25 1   
     6    3   48 1   
     7    4    5 1   
     8    4   28 1   
     9    4   29 1   
    10    5    6 1   
    11    5    7 1   
    12    5    8 1   
    13    6   30 1   
    14    6   31 1   
    15    6   32 1   
    16    7   33 1   
    17    7   34 1   
    18    7   35 1   
    19    8   36 1   
    20    8   37 1   
    21    8   38 1   
    22    9   10 1   
    23    9   26 1   
    24    9   27 1   
    25   10   11 1   
    26   10   13 1   
    27   10   39 1   
    28   11   12 1   
    29   11   17 1   
    30   12   19 2   
    31   12   42 1   
    32   13   14 1   
    33   13   40 1   
    34   13   41 1   
    35   14   15 1   
    36   14   43 1   
    37   15   16 2   
    38   15   17 1   
    39   17   18 2   
    40   18   19 1   
    41   18   44 1   
    42   19   20 1   
    43   20   21 2   
    44   20   24 1   
    45   21   22 1   
    46   21   45 1   
    47   22   23 1   
    48   23   24 2   
    49   23   47 1   
    50   24   46 1   
@<TRIPOS>SUBSTRUCTURE
     1 UGX         1 TEMP              0 ****  ****    0 ROOT
