@<TRIPOS>MOLECULE
UGY
   15    14     1     0     0
SMALL
bcc


@<TRIPOS>ATOM
      1 OXT        -0.1350   -0.6260   -2.4730 o         1 UGY     -0.824800
      2 C          -0.9850   -0.6060   -1.5440 c         1 UGY      0.925600
      3 O          -2.2000   -0.4030   -1.8070 o         1 UGY     -0.824800
      4 CA         -0.5480   -0.8270   -0.1150 c3        1 UGY      0.172900
      5 N          -0.1160   -2.1720    0.0470 n3        1 UGY     -0.935800
      6 NB          0.5210    0.0530    0.1940 n         1 UGY     -0.496900
      7 CG          0.2490    1.3810    0.6130 c         1 UGY      0.726100
      8 OE         -0.9000    1.7630    0.7100 o         1 UGY     -0.684100
      9 NE          1.3180    2.2610    0.9210 n         1 UGY     -0.651000
     10 HA         -1.2990   -0.6510    0.4870 h2        1 UGY      0.027700
     11 H          -0.8230   -2.7380   -0.0900 hn        1 UGY      0.354800
     12 H2          0.2090   -2.2890    0.8950 hn        1 UGY      0.354800
     13 H6          1.3840   -0.2350    0.1220 hn        1 UGY      0.312500
     14 H7          1.1430    3.1170    1.1900 hn        1 UGY      0.272000
     15 H8          2.1830    1.9720    0.8490 hn        1 UGY      0.272000
@<TRIPOS>BOND
     1    1    2 1   
     2    2    3 1   
     3    2    4 1   
     4    4    5 1   
     5    4    6 1   
     6    4   10 1   
     7    5   11 1   
     8    5   12 1   
     9    6    7 1   
    10    6   13 1   
    11    7    8 2   
    12    7    9 1   
    13    9   14 1   
    14    9   15 1   
@<TRIPOS>SUBSTRUCTURE
     1 UGY         1 TEMP              0 ****  ****    0 ROOT
