@<TRIPOS>MOLECULE
UGY
   15    14     1     0     0
SMALL
bcc


@<TRIPOS>ATOM
      1 OXT         2.7600   -0.0040   -0.3020 o         1 UGY     -0.830300
      2 C           1.6130    0.4620   -0.0750 c         1 UGY      0.879600
      3 O           1.3210    1.6870   -0.0010 o         1 UGY     -0.830300
      4 CA          0.4490   -0.6050    0.1220 c3        1 UGY      0.153900
      5 N           0.9020   -1.7880    0.8680 n3        1 UGY     -0.889800
      6 NB         -0.7340    0.0360    0.7100 n         1 UGY     -0.498900
      7 CG         -1.9500   -0.0520    0.0300 c         1 UGY      0.726100
      8 OE         -2.2510   -1.0020   -0.7380 o         1 UGY     -0.663100
      9 NE         -2.9630    0.9050    0.3100 n         1 UGY     -0.653000
     10 HA          0.1800   -0.9890   -0.9110 h2        1 UGY      0.072700
     11 H           1.8290   -1.9890    0.5240 hn        1 UGY      0.339300
     12 H2          0.9890   -1.5700    1.8430 hn        1 UGY      0.339300
     13 H6         -0.5050    0.9370    1.0870 hn        1 UGY      0.305500
     14 H7         -2.6650    1.8280    0.5180 hn        1 UGY      0.275000
     15 H8         -3.7300    0.8530   -0.3200 hn        1 UGY      0.275000
@<TRIPOS>BOND
     1    1    2 1   
     2    2    3 1   
     3    2    4 1   
     4    4    5 1   
     5    4    6 1   
     6    4   10 1   
     7    5   11 1   
     8    5   12 1   
     9    6    7 1   
    10    6   13 1   
    11    7    8 2   
    12    7    9 1   
    13    9   14 1   
    14    9   15 1   
@<TRIPOS>SUBSTRUCTURE
     1 UGY         1 TEMP              0 ****  ****    0 ROOT
