@<TRIPOS>MOLECULE
UHB
   66    71     1     0     0
SMALL
bcc


@<TRIPOS>ATOM
      1 C01         0.4080   -1.6310    0.7940 ca        1 UHB     -0.082000
      2 C02        -0.0570   -0.3110    0.7020 ca        1 UHB     -0.118000
      3 C03         0.4020    0.6900    1.5490 ca        1 UHB     -0.130000
      4 C04         1.3730    0.4140    2.5500 ca        1 UHB      0.080600
      5 C05         1.8310   -0.9060    2.6400 ca        1 UHB     -0.150300
      6 C06         1.3470   -1.9090    1.7650 ca        1 UHB     -0.126600
      7 C07         2.0200   -3.1980    2.1220 c         1 UHB      0.708100
      8 C08         2.8470   -1.5270    3.5740 c3        1 UHB      0.130300
      9 N09         2.9520   -2.9120    3.1350 ns        1 UHB     -0.574900
     10 O10         1.8390   -4.3200    1.6330 o         1 UHB     -0.605500
     11 N11         1.8680    1.3750    3.4440 ns        1 UHB     -0.458100
     12 C12         1.6380    2.7390    3.4160 c         1 UHB      0.663100
     13 O13         0.8900    3.3010    2.5960 o         1 UHB     -0.588100
     14 C14         2.3070    3.5800    4.5170 c3        1 UHB      0.090800
     15 N15         3.7220    3.3000    4.6810 n3        1 UHB     -0.742600
     16 C16         4.2300    3.7700    5.9640 c3        1 UHB      0.139300
     17 C17         5.7450    3.5250    6.1360 c3        1 UHB      0.075000
     18 N18         6.5350    3.9740    5.0070 n         1 UHB     -0.454800
     19 C19         6.0260    3.5090    3.7370 c3        1 UHB      0.075000
     20 C20         4.5150    3.7720    3.5520 c3        1 UHB      0.139300
     21 C21         7.3450    5.0960    5.1420 c         1 UHB      0.642100
     22 C22         8.0240    5.6830    3.9040 c3        1 UHB      0.032100
     23 C23         9.0390    4.7140    3.2550 c3        1 UHB      0.133100
     24 C24        10.4100    5.4080    3.3920 c3        1 UHB      0.085100
     25 C25        10.1260    6.7360    4.1690 c3        1 UHB      0.231800
     26 O26         8.7040    6.8830    4.2800 os        1 UHB     -0.380600
     27 O27         7.5560    5.5900    6.2670 o         1 UHB     -0.594100
     28 O28         8.6670    4.4140    1.9330 oh        1 UHB     -0.583800
     29 O29        10.8830    5.7230    2.1010 oh        1 UHB     -0.600800
     30 N30        10.7620    6.7920    5.4620 na        1 UHB     -0.298000
     31 C31        12.3560    7.0030    7.0670 ca        1 UHB     -0.222200
     32 C32        12.1550    6.7900    5.6410 ca        1 UHB      0.442800
     33 C33        10.1970    7.0120    6.7450 cc        1 UHB      0.445700
     34 N34        11.1160    7.1350    7.7120 nd        1 UHB     -0.556100
     35 N35        14.7330    6.8790    6.6230 nb        1 UHB     -0.795000
     36 C36        14.3910    6.6860    5.3220 ca        1 UHB      0.687900
     37 N37        13.1700    6.6240    4.7390 nb        1 UHB     -0.765000
     38 C38        13.7130    7.0380    7.5350 ca        1 UHB      0.763200
     39 N39        13.9790    7.2140    8.8660 nv        1 UHB     -0.959500
     40 H01         0.0380   -2.4160    0.1180 ha        1 UHB      0.157000
     41 H02        -0.8080   -0.0580   -0.0630 ha        1 UHB      0.142000
     42 H03         0.0050    1.7130    1.4360 ha        1 UHB      0.177000
     43 H081        3.8490   -1.0250    3.4780 h1        1 UHB      0.054700
     44 H082        2.5080   -1.4560    4.6450 h1        1 UHB      0.054700
     45 HN09        3.2970   -3.6080    3.7440 hn        1 UHB      0.324500
     46 H14         1.7730    3.3500    5.4830 h1        1 UHB      0.072200
     47 H14A        2.1040    4.6610    4.2550 h1        1 UHB      0.072200
     48 H16         4.0190    4.8680    6.1190 h1        1 UHB      0.048200
     49 H16A        3.6990    3.1980    6.7760 h1        1 UHB      0.048200
     50 H17         6.0800    4.0500    7.0750 h1        1 UHB      0.075450
     51 H17A        5.9290    2.4200    6.2570 h1        1 UHB      0.075450
     52 H19         6.2100    2.3960    3.6910 h1        1 UHB      0.075450
     53 H19A        6.5740    3.9810    2.8750 h1        1 UHB      0.075450
     54 H20         4.3560    4.8730    3.3610 h1        1 UHB      0.048200
     55 H20A        4.1740    3.2100    2.6370 h1        1 UHB      0.048200
     56 H22         7.2400    6.0150    3.1660 h1        1 UHB      0.101700
     57 H23         9.0470    3.7190    3.7820 h1        1 UHB      0.104700
     58 H24        11.1370    4.7440    3.9310 h1        1 UHB      0.090700
     59 H25        10.4680    7.6300    3.5600 h2        1 UHB      0.104700
     60 HO28        8.9470    5.1400    1.3580 ho        1 UHB      0.432000
     61 HO29       11.8230    5.9350    2.1910 ho        1 UHB      0.442000
     62 H33         9.1010    7.0410    6.8710 h5        1 UHB      0.113800
     63 H36        15.2540    6.5620    4.6330 h5        1 UHB      0.050100
     64 HN39       13.2250    7.3720    9.4860 hn        1 UHB      0.450300
     65 HN3A       14.9100    7.2790    9.1930 hn        1 UHB      0.450300
     66 HN11        2.5380    1.0380    4.1020 hn        1 UHB      0.331500
@<TRIPOS>BOND
     1    1    2 ar  
     2    1    6 ar  
     3    1   40 1   
     4    2    3 ar  
     5    2   41 1   
     6    3    4 ar  
     7    3   42 1   
     8    4    5 ar  
     9    4   11 1   
    10    5    6 ar  
    11    5    8 1   
    12    6    7 1   
    13    7    9 1   
    14    7   10 2   
    15    8    9 1   
    16    8   43 1   
    17    8   44 1   
    18    9   45 1   
    19   11   12 1   
    20   11   66 1   
    21   12   13 2   
    22   12   14 1   
    23   14   15 1   
    24   14   46 1   
    25   14   47 1   
    26   15   16 1   
    27   15   20 1   
    28   16   17 1   
    29   16   48 1   
    30   16   49 1   
    31   17   18 1   
    32   17   50 1   
    33   17   51 1   
    34   18   19 1   
    35   18   21 1   
    36   19   20 1   
    37   19   52 1   
    38   19   53 1   
    39   20   54 1   
    40   20   55 1   
    41   21   22 1   
    42   21   27 2   
    43   22   23 1   
    44   22   26 1   
    45   22   56 1   
    46   23   24 1   
    47   23   28 1   
    48   23   57 1   
    49   24   25 1   
    50   24   29 1   
    51   24   58 1   
    52   25   26 1   
    53   25   30 1   
    54   25   59 1   
    55   28   60 1   
    56   29   61 1   
    57   30   32 1   
    58   30   33 1   
    59   31   32 ar  
    60   31   34 1   
    61   31   38 ar  
    62   32   37 ar  
    63   33   34 2   
    64   33   62 1   
    65   35   36 ar  
    66   35   38 ar  
    67   36   37 ar  
    68   36   63 1   
    69   38   39 1   
    70   39   64 1   
    71   39   65 1   
@<TRIPOS>SUBSTRUCTURE
     1 UHB         1 TEMP              0 ****  ****    0 ROOT
