@<TRIPOS>MOLECULE
UHB
   66    71     1     0     0
SMALL
bcc


@<TRIPOS>ATOM
      1 C01         0.4140   -1.5990    0.7330 ca        1 UHB     -0.082000
      2 C02        -0.0930   -0.2910    0.7510 ca        1 UHB     -0.118000
      3 C03         0.3750    0.6660    1.6410 ca        1 UHB     -0.130000
      4 C04         1.3970    0.3570    2.5790 ca        1 UHB      0.080600
      5 C05         1.8980   -0.9510    2.5610 ca        1 UHB     -0.150300
      6 C06         1.4050   -1.9090    1.6430 ca        1 UHB     -0.126600
      7 C07         2.1300   -3.1970    1.8820 c         1 UHB      0.708100
      8 C08         2.9730   -1.5990    3.4060 c3        1 UHB      0.130300
      9 N09         3.0990   -2.9480    2.8710 n         1 UHB     -0.574900
     10 O10         1.9610   -4.2900    1.3280 o         1 UHB     -0.605500
     11 N11         1.9050    1.2720    3.5120 n         1 UHB     -0.458100
     12 C12         1.6330    2.6270    3.5860 c         1 UHB      0.663100
     13 O13         0.8310    3.2170    2.8400 o         1 UHB     -0.588100
     14 C14         2.3270    3.4160    4.7110 c3        1 UHB      0.090800
     15 N15         3.7560    3.1730    4.7920 n3        1 UHB     -0.742600
     16 C16         4.3090    3.5740    6.0800 c3        1 UHB      0.138800
     17 C17         5.8380    3.3690    6.1670 c3        1 UHB      0.075000
     18 N18         6.5600    3.9180    5.0360 n         1 UHB     -0.454800
     19 C19         6.0060    3.5200    3.7610 c3        1 UHB      0.075000
     20 C20         4.4810    3.7440    3.6630 c3        1 UHB      0.138800
     21 C21         7.3390    5.0560    5.2100 c         1 UHB      0.642100
     22 C22         7.9390    5.7470    3.9850 c3        1 UHB      0.032100
     23 C23         8.9530    4.8590    3.2270 c3        1 UHB      0.133100
     24 C24        10.3050    5.5910    3.3480 c3        1 UHB      0.085100
     25 C25        10.0150    6.8550    4.2240 c3        1 UHB      0.231800
     26 O26         8.5970    6.9430    4.4090 os        1 UHB     -0.380600
     27 O27         7.5870    5.4820    6.3540 o         1 UHB     -0.594100
     28 O28         8.5290    4.6320    1.9060 oh        1 UHB     -0.583800
     29 O29        10.7060    6.0080    2.0600 oh        1 UHB     -0.600800
     30 N30        10.7100    6.8490    5.4880 na        1 UHB     -0.298000
     31 C31        12.3710    7.0120    7.0290 ca        1 UHB     -0.222200
     32 C32        12.1100    6.8860    5.6030 ca        1 UHB      0.442800
     33 C33        10.2000    6.9640    6.8060 cc        1 UHB      0.445700
     34 N34        11.1590    7.0560    7.7370 nd        1 UHB     -0.556100
     35 N35        14.7270    7.0040    6.4700 nb        1 UHB     -0.795000
     36 C36        14.3300    6.8850    5.1770 ca        1 UHB      0.687900
     37 N37        13.0850    6.8170    4.6470 nb        1 UHB     -0.765000
     38 C38        13.7470    7.0660    7.4370 ca        1 UHB      0.763200
     39 N39        14.0700    7.1630    8.7630 nh        1 UHB     -0.959500
     40 H01         0.0370   -2.3500    0.0230 ha        1 UHB      0.157000
     41 H02        -0.8850   -0.0140    0.0370 ha        1 UHB      0.142000
     42 H03        -0.0570    1.6810    1.6150 ha        1 UHB      0.177000
     43 H081        3.9540   -1.0590    3.3000 h1        1 UHB      0.054700
     44 H082        2.6820   -1.6090    4.4930 h1        1 UHB      0.054700
     45 HN09        3.4910   -3.6710    3.4160 hn        1 UHB      0.324500
     46 H14         1.8460    3.1050    5.6820 h1        1 UHB      0.072200
     47 H14A        2.0800    4.5040    4.5320 h1        1 UHB      0.072200
     48 H16         3.8340    2.9320    6.8740 h1        1 UHB      0.048200
     49 H16A        4.0720    4.6520    6.3170 h1        1 UHB      0.048200
     50 H17         6.2000    3.8430    7.1230 h1        1 UHB      0.075450
     51 H17A        6.0600    2.2650    6.2040 h1        1 UHB      0.075450
     52 H19         6.4980    4.0650    2.9090 h1        1 UHB      0.075450
     53 H19A        6.2210    2.4190    3.6340 h1        1 UHB      0.075450
     54 H20         4.2790    4.8490    3.5530 h1        1 UHB      0.048200
     55 H20A        4.1140    3.2320    2.7280 h1        1 UHB      0.048200
     56 H22         7.1110    6.0980    3.3060 h1        1 UHB      0.101700
     57 H23         9.0190    3.8330    3.6860 h1        1 UHB      0.104700
     58 H24        11.0790    4.9210    3.8070 h1        1 UHB      0.090700
     59 H25        10.2980    7.7980    3.6610 h2        1 UHB      0.104700
     60 HO28        8.7580    5.4040    1.3690 ho        1 UHB      0.432000
     61 HO29       11.6420    6.2470    2.1220 ho        1 UHB      0.442000
     62 H33         9.1110    6.9450    6.9840 h5        1 UHB      0.113800
     63 H36        15.1630    6.8380    4.4420 h5        1 UHB      0.050100
     64 HN39       15.0130    7.2400    9.0500 hn        1 UHB      0.450300
     65 HN3A       13.3410    7.2520    9.4260 hn        1 UHB      0.450300
     66 HN11        2.6140    0.9160    4.1160 hn        1 UHB      0.331500
@<TRIPOS>BOND
     1    1    2 ar  
     2    1    6 ar  
     3    1   40 1   
     4    2    3 ar  
     5    2   41 1   
     6    3    4 ar  
     7    3   42 1   
     8    4    5 ar  
     9    4   11 1   
    10    5    6 ar  
    11    5    8 1   
    12    6    7 1   
    13    7    9 1   
    14    7   10 2   
    15    8    9 1   
    16    8   43 1   
    17    8   44 1   
    18    9   45 1   
    19   11   12 1   
    20   11   66 1   
    21   12   13 2   
    22   12   14 1   
    23   14   15 1   
    24   14   46 1   
    25   14   47 1   
    26   15   16 1   
    27   15   20 1   
    28   16   17 1   
    29   16   48 1   
    30   16   49 1   
    31   17   18 1   
    32   17   50 1   
    33   17   51 1   
    34   18   19 1   
    35   18   21 1   
    36   19   20 1   
    37   19   52 1   
    38   19   53 1   
    39   20   54 1   
    40   20   55 1   
    41   21   22 1   
    42   21   27 2   
    43   22   23 1   
    44   22   26 1   
    45   22   56 1   
    46   23   24 1   
    47   23   28 1   
    48   23   57 1   
    49   24   25 1   
    50   24   29 1   
    51   24   58 1   
    52   25   26 1   
    53   25   30 1   
    54   25   59 1   
    55   28   60 1   
    56   29   61 1   
    57   30   32 1   
    58   30   33 1   
    59   31   32 ar  
    60   31   34 1   
    61   31   38 ar  
    62   32   37 ar  
    63   33   34 2   
    64   33   62 1   
    65   35   36 ar  
    66   35   38 ar  
    67   36   37 ar  
    68   36   63 1   
    69   38   39 1   
    70   39   64 1   
    71   39   65 1   
@<TRIPOS>SUBSTRUCTURE
     1 UHB         1 TEMP              0 ****  ****    0 ROOT
