@<TRIPOS>MOLECULE
UHB
   66    71     1     0     0
SMALL
bcc


@<TRIPOS>ATOM
      1 C01         8.7400    0.2600   -1.5570 ca        1 UHB     -0.082000
      2 C02         8.4000   -1.0460   -1.1740 ca        1 UHB     -0.118000
      3 C03         7.2720   -1.3170   -0.4120 ca        1 UHB     -0.130000
      4 C04         6.4060   -0.2730    0.0140 ca        1 UHB      0.080600
      5 C05         6.7520    1.0290   -0.3680 ca        1 UHB     -0.150300
      6 C06         7.9080    1.2800   -1.1460 ca        1 UHB     -0.126600
      7 C07         8.0000    2.7570   -1.3750 c         1 UHB      0.708100
      8 C08         6.0580    2.3450   -0.0920 c3        1 UHB      0.130300
      9 N09         6.8500    3.3360   -0.8080 n         1 UHB     -0.574900
     10 O10         8.8860    3.3900   -1.9620 o         1 UHB     -0.605500
     11 N11         5.2600   -0.4780    0.7950 n         1 UHB     -0.458100
     12 C12         4.6930   -1.6910    1.1440 c         1 UHB      0.663100
     13 O13         5.1780   -2.7960    0.8460 o         1 UHB     -0.588100
     14 C14         3.4230   -1.6410    2.0130 c3        1 UHB      0.090800
     15 N15         2.4130   -0.7270    1.5100 n3        1 UHB     -0.742600
     16 C16         1.4330   -0.3760    2.5300 c3        1 UHB      0.139300
     17 C17         0.3220    0.5570    2.0000 c3        1 UHB      0.075000
     18 N18        -0.2760    0.0990    0.7620 n         1 UHB     -0.454800
     19 C19         0.7000   -0.2510   -0.2450 c3        1 UHB      0.075000
     20 C20         1.8000   -1.2020    0.2760 c3        1 UHB      0.139300
     21 C21        -1.5760   -0.3950    0.7730 c         1 UHB      0.642100
     22 C22        -2.1360   -1.0560   -0.4870 c3        1 UHB      0.032100
     23 C23        -2.2440   -0.0840   -1.6830 c3        1 UHB      0.133100
     24 C24        -3.7520    0.0160   -1.9920 c3        1 UHB      0.085100
     25 C25        -4.4550   -0.8740   -0.9140 c3        1 UHB      0.231800
     26 O26        -3.4350   -1.5760   -0.1930 os        1 UHB     -0.380600
     27 O27        -2.2940   -0.2570    1.7820 o         1 UHB     -0.595100
     28 O28        -1.4560   -0.5270   -2.7600 oh        1 UHB     -0.583800
     29 O29        -3.9850   -0.5390   -3.2690 oh        1 UHB     -0.600800
     30 N30        -5.3100   -0.1290   -0.0240 na        1 UHB     -0.298000
     31 C31        -7.0880    1.0380    0.7740 ca        1 UHB     -0.222200
     32 C32        -6.4590    0.5590   -0.4470 ca        1 UHB      0.442800
     33 C33        -5.3000   -0.0500    1.3920 cc        1 UHB      0.445700
     34 N34        -6.3360    0.6380    1.8910 nd        1 UHB     -0.556100
     35 N35        -8.7980    2.0130   -0.6360 nb        1 UHB     -0.795000
     36 C36        -8.0990    1.5050   -1.6840 ca        1 UHB      0.687900
     37 N37        -6.9510    0.7860   -1.7030 nb        1 UHB     -0.765000
     38 C38        -8.3010    1.7930    0.6300 ca        1 UHB      0.763200
     39 N39        -8.9370    2.2930    1.7330 nh        1 UHB     -0.959500
     40 H01         9.6360    0.4640   -2.1620 ha        1 UHB      0.157000
     41 H02         9.0460   -1.8820   -1.4870 ha        1 UHB      0.142000
     42 H03         7.0480   -2.3620   -0.1370 ha        1 UHB      0.177000
     43 H081        5.0070    2.3440   -0.4920 h1        1 UHB      0.054700
     44 H082        6.0240    2.5610    1.0120 h1        1 UHB      0.054700
     45 HN09        6.8120    4.2900   -0.5550 hn        1 UHB      0.324500
     46 H14         3.0490   -2.7050    2.0860 h1        1 UHB      0.072200
     47 H14A        3.7370   -1.3100    3.0440 h1        1 UHB      0.072200
     48 H16         0.9530   -1.2940    2.9790 h1        1 UHB      0.048200
     49 H16A        1.9720    0.1710    3.3530 h1        1 UHB      0.048200
     50 H17        -0.4670    0.6510    2.7990 h1        1 UHB      0.075450
     51 H17A        0.7600    1.5770    1.8040 h1        1 UHB      0.075450
     52 H19         0.2150   -0.7300   -1.1410 h1        1 UHB      0.075450
     53 H19A        1.1820    0.7100   -0.5900 h1        1 UHB      0.075450
     54 H20         2.6080   -1.2600   -0.5070 h1        1 UHB      0.048200
     55 H20A        1.3620   -2.2360    0.3980 h1        1 UHB      0.048200
     56 H22        -1.5150   -1.9610   -0.7460 h1        1 UHB      0.101700
     57 H23        -1.8280    0.9290   -1.4240 h1        1 UHB      0.104700
     58 H24        -4.0930    1.0840   -1.9550 h1        1 UHB      0.090700
     59 H25        -5.0730   -1.6840   -1.4140 h2        1 UHB      0.104700
     60 HO28       -1.9400   -1.2150   -3.2380 ho        1 UHB      0.432000
     61 HO29       -4.8710   -0.2590   -3.5380 ho        1 UHB      0.442000
     62 H33        -4.4770   -0.5080    1.9680 h5        1 UHB      0.113800
     63 H36        -8.5450    1.7140   -2.6810 h5        1 UHB      0.050100
     64 HN39       -8.5790    2.0780    2.6300 hn        1 UHB      0.450300
     65 HN3A       -9.7930    2.7810    1.6470 hn        1 UHB      0.450300
     66 HN11        4.7510    0.3480    1.0290 hn        1 UHB      0.331500
@<TRIPOS>BOND
     1    1    2 ar  
     2    1    6 ar  
     3    1   40 1   
     4    2    3 ar  
     5    2   41 1   
     6    3    4 ar  
     7    3   42 1   
     8    4    5 ar  
     9    4   11 1   
    10    5    6 ar  
    11    5    8 1   
    12    6    7 1   
    13    7    9 1   
    14    7   10 2   
    15    8    9 1   
    16    8   43 1   
    17    8   44 1   
    18    9   45 1   
    19   11   12 1   
    20   11   66 1   
    21   12   13 2   
    22   12   14 1   
    23   14   15 1   
    24   14   46 1   
    25   14   47 1   
    26   15   16 1   
    27   15   20 1   
    28   16   17 1   
    29   16   48 1   
    30   16   49 1   
    31   17   18 1   
    32   17   50 1   
    33   17   51 1   
    34   18   19 1   
    35   18   21 1   
    36   19   20 1   
    37   19   52 1   
    38   19   53 1   
    39   20   54 1   
    40   20   55 1   
    41   21   22 1   
    42   21   27 2   
    43   22   23 1   
    44   22   26 1   
    45   22   56 1   
    46   23   24 1   
    47   23   28 1   
    48   23   57 1   
    49   24   25 1   
    50   24   29 1   
    51   24   58 1   
    52   25   26 1   
    53   25   30 1   
    54   25   59 1   
    55   28   60 1   
    56   29   61 1   
    57   30   32 1   
    58   30   33 1   
    59   31   32 ar  
    60   31   34 1   
    61   31   38 ar  
    62   32   37 ar  
    63   33   34 2   
    64   33   62 1   
    65   35   36 ar  
    66   35   38 ar  
    67   36   37 ar  
    68   36   63 1   
    69   38   39 1   
    70   39   64 1   
    71   39   65 1   
@<TRIPOS>SUBSTRUCTURE
     1 UHB         1 TEMP              0 ****  ****    0 ROOT
