@<TRIPOS>MOLECULE
UHB
   68    73     1     0     0
SMALL
bcc


@<TRIPOS>ATOM
      1 C01         1.6080   -0.1850    0.2430 ca        1 UHB     -0.004000
      2 C02         2.7190   -1.0250    0.4430 ca        1 UHB     -0.106000
      3 C03         3.0750   -1.4640    1.7120 ca        1 UHB     -0.086000
      4 C04         2.3110   -1.0720    2.8400 ca        1 UHB     -0.050400
      5 C05         1.1990   -0.2580    2.6550 ca        1 UHB     -0.077300
      6 C06         0.8700    0.1880    1.3500 ca        1 UHB     -0.133600
      7 C07        -0.3530    1.0570    1.4500 c         1 UHB      0.702100
      8 C08         0.1770    0.2990    3.6270 c3        1 UHB      0.118300
      9 N09        -0.6690    1.1620    2.8200 n         1 UHB     -0.563900
     10 O10        -0.9540    1.6130    0.5320 o         1 UHB     -0.532500
     11 N11         2.6840   -1.5450    4.1720 n4        1 UHB     -0.549200
     12 C12         3.9800   -0.9050    4.6620 c         1 UHB      0.536100
     13 O13         4.9310   -1.6630    4.7190 o         1 UHB     -0.395100
     14 C14         3.8960    0.5720    5.0630 c3        1 UHB      0.147800
     15 N15         5.1010    1.2530    4.6750 n3        1 UHB     -0.758600
     16 C16         6.1730    1.1760    5.6570 c3        1 UHB      0.153800
     17 C17         7.4760    1.8570    5.1790 c3        1 UHB      0.083000
     18 N18         7.2570    3.1810    4.6350 n         1 UHB     -0.461800
     19 C19         6.2100    3.2360    3.6460 c3        1 UHB      0.083000
     20 C20         4.8890    2.5810    4.1180 c3        1 UHB      0.153800
     21 C21         7.8230    4.2890    5.2420 c         1 UHB      0.656100
     22 C22         7.4440    5.6880    4.7580 c3        1 UHB      0.030100
     23 C23         8.0110    6.0060    3.3580 c3        1 UHB      0.102100
     24 C24         8.9370    7.2290    3.5590 c3        1 UHB      0.086100
     25 C25         8.9570    7.4780    5.1000 c3        1 UHB      0.248800
     26 O26         7.9550    6.6490    5.6900 os        1 UHB     -0.375600
     27 O27         8.6650    4.1510    6.1520 o         1 UHB     -0.610100
     28 O28         6.9770    6.2470    2.4380 oh        1 UHB     -0.581800
     29 O29         8.3370    8.3760    2.9960 oh        1 UHB     -0.582800
     30 N30        10.2450    7.2150    5.7260 na        1 UHB     -0.283000
     31 C31        12.3640    7.4940    6.5330 ca        1 UHB     -0.124200
     32 C32        11.4110    7.9670    5.5000 ca        1 UHB      0.447800
     33 C33        10.5180    6.3780    6.8320 cc        1 UHB      0.537700
     34 N34        11.7650    6.5120    7.3250 nd        1 UHB     -0.594100
     35 N35        13.9490    9.0640    5.6050 nb        1 UHB     -0.672000
     36 C36        12.9850    9.4050    4.7040 ca        1 UHB      0.672900
     37 N37        11.7210    8.9150    4.5860 nb        1 UHB     -0.629000
     38 C38        13.6280    8.1090    6.5140 ca        1 UHB      0.515200
     39 N39        14.6250    7.7050    7.5230 n4        1 UHB     -0.814300
     40 H01         1.3310    0.1630   -0.7680 ha        1 UHB      0.195000
     41 H02         3.3190   -1.3440   -0.4270 ha        1 UHB      0.181000
     42 H03         3.9540   -2.1190    1.8330 ha        1 UHB      0.168000
     43 H081        0.6710    0.9110    4.4330 h1        1 UHB      0.063700
     44 H082       -0.4090   -0.5330    4.1100 h1        1 UHB      0.063700
     45 HN09       -1.5830    1.3940    3.1270 hn        1 UHB      0.351500
     46 H14         2.9980    1.0460    4.5720 h1        1 UHB      0.090700
     47 H14A        3.7310    0.5530    6.1840 h1        1 UHB      0.090700
     48 H16         6.4040    0.0860    5.8300 h1        1 UHB      0.056200
     49 H16A        5.8590    1.6330    6.6400 h1        1 UHB      0.056200
     50 H17         7.9470    1.2240    4.3730 h1        1 UHB      0.085200
     51 H17A        8.1820    1.9080    6.0570 h1        1 UHB      0.085200
     52 H19         6.5760    2.6850    2.7300 h1        1 UHB      0.085200
     53 H19A        5.9810    4.2960    3.3400 h1        1 UHB      0.085200
     54 H20         4.2190    2.4890    3.2180 h1        1 UHB      0.056200
     55 H20A        4.3860    3.2620    4.8650 h1        1 UHB      0.056200
     56 H22         6.3250    5.8250    4.7960 h1        1 UHB      0.111700
     57 H23         8.5770    5.1310    2.9330 h1        1 UHB      0.109700
     58 H24         9.9560    7.0420    3.1330 h1        1 UHB      0.090700
     59 H25         8.6560    8.5460    5.3400 h2        1 UHB      0.138700
     60 HO28        6.6150    7.1330    2.6030 ho        1 UHB      0.436000
     61 HO29        8.6860    8.4810    2.1000 ho        1 UHB      0.442000
     62 H33         9.7460    5.6720    7.2090 h5        1 UHB      0.145800
     63 H36        13.2760   10.1940    3.9700 h5        1 UHB      0.103100
     64 HN39       14.3180    8.0490    8.4420 hn        1 UHB      0.480133
     65 HN3A       14.6710    6.6780    7.5450 hn        1 UHB      0.480133
     66 HN11        2.8100   -2.5690    4.1320 hn        1 UHB      0.463300
     67 H112        1.9270   -1.3300    4.8300 hn        1 UHB      0.463300
     68 H393       15.5530    8.0920    7.3050 hn        1 UHB      0.480133
@<TRIPOS>BOND
     1    1    2 ar  
     2    1    6 ar  
     3    1   40 1   
     4    2    3 ar  
     5    2   41 1   
     6    3    4 ar  
     7    3   42 1   
     8    4    5 ar  
     9    4   11 1   
    10    5    6 ar  
    11    5    8 1   
    12    6    7 1   
    13    7    9 1   
    14    7   10 2   
    15    8    9 1   
    16    8   43 1   
    17    8   44 1   
    18    9   45 1   
    19   11   12 1   
    20   11   66 1   
    21   11   67 1   
    22   12   13 2   
    23   12   14 1   
    24   14   15 1   
    25   14   46 1   
    26   14   47 1   
    27   15   16 1   
    28   15   20 1   
    29   16   17 1   
    30   16   48 1   
    31   16   49 1   
    32   17   18 1   
    33   17   50 1   
    34   17   51 1   
    35   18   19 1   
    36   18   21 1   
    37   19   20 1   
    38   19   52 1   
    39   19   53 1   
    40   20   54 1   
    41   20   55 1   
    42   21   22 1   
    43   21   27 2   
    44   22   23 1   
    45   22   26 1   
    46   22   56 1   
    47   23   24 1   
    48   23   28 1   
    49   23   57 1   
    50   24   25 1   
    51   24   29 1   
    52   24   58 1   
    53   25   26 1   
    54   25   30 1   
    55   25   59 1   
    56   28   60 1   
    57   29   61 1   
    58   30   32 1   
    59   30   33 1   
    60   31   32 ar  
    61   31   34 1   
    62   31   38 ar  
    63   32   37 ar  
    64   33   34 2   
    65   33   62 1   
    66   35   36 ar  
    67   35   38 ar  
    68   36   37 ar  
    69   36   63 1   
    70   38   39 1   
    71   39   64 1   
    72   39   65 1   
    73   39   68 1   
@<TRIPOS>SUBSTRUCTURE
     1 UHB         1 TEMP              0 ****  ****    0 ROOT
