@<TRIPOS>MOLECULE
UHD
   48    46     1     0     0
SMALL
bcc


@<TRIPOS>ATOM
      1 C2         -7.3730   -1.2470   -5.3110 c1        1 UHD      0.179900
      2 N3         -6.0860   -1.7370   -4.9030 n1        1 UHD     -0.452600
      3 C4         -5.2400   -0.5250   -4.3630 cg        1 UHD     -0.013200
      4 C7         -6.0500    0.6800   -4.4620 c1        1 UHD     -0.258900
      5 C7A        -5.4580    2.0370   -4.0660 c1        1 UHD      0.614600
      6 O7         -6.1250    3.0470   -4.1790 o         1 UHD     -0.518500
      7 C6         -4.0420    2.1250   -3.5770 ce        1 UHD      0.002000
      8 O6         -3.4810    3.3770   -3.2650 oh        1 UHD     -0.479100
      9 C4A        -3.8080   -0.4430   -3.8250 c1        1 UHD      0.621600
     10 O4         -3.1330   -1.4500   -3.7430 o         1 UHD     -0.463500
     11 C5         -3.2120    0.8900   -3.4760 ce        1 UHD     -0.222300
     12 C8         -1.7430    0.9930   -3.1250 c3        1 UHD     -0.034200
     13 C9         -1.5690    0.8180   -1.6330 c3        1 UHD     -0.073400
     14 C10        -0.1860    0.2740   -1.3470 c3        1 UHD     -0.078400
     15 C11         0.1670    0.5300    0.1010 c3        1 UHD     -0.078400
     16 C12         1.3510   -0.3290    0.4910 c3        1 UHD     -0.079400
     17 C13         1.9360    0.1790    1.7920 c3        1 UHD     -0.079400
     18 C14         2.8610   -0.8690    2.3720 c3        1 UHD     -0.079400
     19 C15         3.7250   -0.2410    3.4440 c3        1 UHD     -0.079400
     20 C16         4.3260   -1.3280    4.3080 c3        1 UHD     -0.079400
     21 C17         5.3340   -0.7180    5.2590 c3        1 UHD     -0.080400
     22 C18         5.9290   -1.8040    6.1280 c3        1 UHD     -0.092100
     23 S1         -7.4060    0.2840   -5.0530 ss        1 UHD      0.214800
     24 H2         -8.1160   -1.7890   -5.6400 DU        1 UHD      0.204000
     25 HO6        -3.7450    3.9780   -3.8650 ho        1 UHD      0.443000
     26 H81        -1.2460    0.2950   -3.5950 hc        1 UHD      0.066700
     27 H82        -1.4050    1.8710   -3.3920 hc        1 UHD      0.066700
     28 H91        -1.6770    1.6830   -1.1880 hc        1 UHD      0.046700
     29 H92        -2.2410    0.1920   -1.2970 hc        1 UHD      0.046700
     30 H101       -0.1730   -0.6890   -1.5210 hc        1 UHD      0.041700
     31 H102        0.4650    0.7190   -1.9260 hc        1 UHD      0.041700
     32 H111       -0.5980    0.3070    0.6680 hc        1 UHD      0.040200
     33 H112        0.3970    1.4740    0.2190 hc        1 UHD      0.040200
     34 H121        1.0580   -1.2550    0.6050 hc        1 UHD      0.040200
     35 H122        2.0310   -0.2860   -0.2110 hc        1 UHD      0.040200
     36 H131        2.4390    1.0010    1.6240 hc        1 UHD      0.039200
     37 H132        1.2130    0.3620    2.4250 hc        1 UHD      0.039200
     38 H141        3.4320   -1.2290    1.6630 hc        1 UHD      0.039700
     39 H142        2.3310   -1.5920    2.7620 hc        1 UHD      0.039700
     40 H151        4.4420    0.2750    3.0250 hc        1 UHD      0.039200
     41 H152        3.1780    0.3500    3.9980 hc        1 UHD      0.039200
     42 H161        4.7730   -1.9880    3.7400 hc        1 UHD      0.039700
     43 H162        3.6180   -1.7660    4.8210 hc        1 UHD      0.039700
     44 H171        4.8880   -0.0550    5.8240 hc        1 UHD      0.038200
     45 H172        6.0450   -0.2840    4.7460 hc        1 UHD      0.038200
     46 H181        5.2120   -2.2630    6.6140 hc        1 UHD      0.032367
     47 H182        6.4070   -2.4480    5.5650 hc        1 UHD      0.032367
     48 H183        6.5540   -1.4040    6.7690 hc        1 UHD      0.032367
@<TRIPOS>BOND
     1    1    2 3   
     2    1   23 1   
     3    2    3 1   
     4    3    4 3   
     5    4   23 1   
     6    5    6 2   
     7    5    7 2   
     8    7    8 1   
     9    7   11 1   
    10    8   25 1   
    11    9   10 2   
    12    9   11 2   
    13   11   12 1   
    14   12   13 1   
    15   12   26 1   
    16   12   27 1   
    17   13   14 1   
    18   13   28 1   
    19   13   29 1   
    20   14   15 1   
    21   14   30 1   
    22   14   31 1   
    23   15   16 1   
    24   15   32 1   
    25   15   33 1   
    26   16   17 1   
    27   16   34 1   
    28   16   35 1   
    29   17   18 1   
    30   17   36 1   
    31   17   37 1   
    32   18   19 1   
    33   18   38 1   
    34   18   39 1   
    35   19   20 1   
    36   19   40 1   
    37   19   41 1   
    38   20   21 1   
    39   20   42 1   
    40   20   43 1   
    41   21   22 1   
    42   21   44 1   
    43   21   45 1   
    44   22   46 1   
    45   22   47 1   
    46   22   48 1   
@<TRIPOS>SUBSTRUCTURE
     1 UHD         1 TEMP              0 ****  ****    0 ROOT
