@<TRIPOS>MOLECULE
UHD
   48    49     1     0     0
SMALL
bcc


@<TRIPOS>ATOM
      1 C2         -6.0900   -2.0950    0.6180 cc        1 UHD      0.343300
      2 N3         -4.9060   -2.2870    0.0260 nd        1 UHD     -0.573000
      3 C4         -4.2790   -1.0630   -0.1160 cd        1 UHD      0.323800
      4 C7         -5.0180    0.0320    0.3810 cc        1 UHD     -0.300000
      5 C7A        -4.5070    1.3870    0.3170 c         1 UHD      0.596900
      6 O7         -5.1160    2.3900    0.7150 o         1 UHD     -0.524100
      7 C6         -3.1470    1.5240   -0.2750 cc        1 UHD      0.047900
      8 O6         -2.6180    2.7910   -0.3230 oh        1 UHD     -0.480100
      9 C4A        -2.9420   -0.8960   -0.7410 c         1 UHD      0.492800
     10 O4         -2.3160   -1.8450   -1.2190 o         1 UHD     -0.469100
     11 C5         -2.4180    0.4870   -0.7580 cd        1 UHD     -0.178400
     12 C8         -1.0630    0.6790   -1.3450 c3        1 UHD     -0.032200
     13 C9          0.0290    0.2680   -0.3740 c3        1 UHD     -0.074400
     14 C10         1.3980    0.4690   -0.9890 c3        1 UHD     -0.077400
     15 C11         2.4930    0.0600   -0.0280 c3        1 UHD     -0.078400
     16 C12         3.8630    0.2610   -0.6400 c3        1 UHD     -0.079400
     17 C13         4.9590   -0.1480    0.3210 c3        1 UHD     -0.079400
     18 C14         6.3290    0.0520   -0.2910 c3        1 UHD     -0.079400
     19 C15         7.4250   -0.3570    0.6700 c3        1 UHD     -0.079400
     20 C16         8.7950   -0.1570    0.0580 c3        1 UHD     -0.079400
     21 C17         9.8920   -0.5660    1.0180 c3        1 UHD     -0.080400
     22 C18        11.2580   -0.3680    0.4130 c3        1 UHD     -0.092100
     23 S1         -6.4720   -0.4960    1.0070 ss        1 UHD      0.080700
     24 H2         -6.7490   -2.9460    0.8230 h5        1 UHD      0.067100
     25 HO6        -3.2800    3.4110    0.0310 ho        1 UHD      0.444000
     26 H81        -0.9240    1.7550   -1.6350 hc        1 UHD      0.065700
     27 H82        -0.9820    0.0560   -2.2780 hc        1 UHD      0.065700
     28 H91        -0.1080   -0.8110   -0.0990 hc        1 UHD      0.047200
     29 H92        -0.0550    0.8720    0.5660 hc        1 UHD      0.047200
     30 H101        1.5290    1.5470   -1.2730 hc        1 UHD      0.041200
     31 H102        1.4790   -0.1340   -1.9320 hc        1 UHD      0.041200
     32 H111        2.3620   -1.0180    0.2540 hc        1 UHD      0.040700
     33 H112        2.4110    0.6620    0.9150 hc        1 UHD      0.040700
     34 H121        3.9940    1.3380   -0.9240 hc        1 UHD      0.039700
     35 H122        3.9460   -0.3420   -1.5830 hc        1 UHD      0.039700
     36 H131        4.8280   -1.2260    0.6040 hc        1 UHD      0.039200
     37 H132        4.8770    0.4530    1.2640 hc        1 UHD      0.039200
     38 H141        6.4600    1.1290   -0.5750 hc        1 UHD      0.039200
     39 H142        6.4120   -0.5500   -1.2340 hc        1 UHD      0.039200
     40 H151        7.2940   -1.4350    0.9530 hc        1 UHD      0.039200
     41 H152        7.3420    0.2450    1.6130 hc        1 UHD      0.039200
     42 H161        8.9270    0.9210   -0.2250 hc        1 UHD      0.039200
     43 H162        8.8780   -0.7590   -0.8850 hc        1 UHD      0.039200
     44 H171        9.7580   -1.6430    1.3020 hc        1 UHD      0.038200
     45 H172        9.8070    0.0360    1.9610 hc        1 UHD      0.038200
     46 H181       11.4200    0.7050    0.1470 hc        1 UHD      0.032367
     47 H182       12.0510   -0.6750    1.1370 hc        1 UHD      0.032367
     48 H183       11.3710   -0.9790   -0.5140 hc        1 UHD      0.032367
@<TRIPOS>BOND
     1    1    2 2   
     2    1   23 1   
     3    1   24 1   
     4    2    3 1   
     5    3    4 2   
     6    3    9 1   
     7    4    5 1   
     8    4   23 1   
     9    5    6 2   
    10    5    7 1   
    11    7    8 1   
    12    7   11 2   
    13    8   25 1   
    14    9   10 2   
    15    9   11 1   
    16   11   12 1   
    17   12   13 1   
    18   12   26 1   
    19   12   27 1   
    20   13   14 1   
    21   13   28 1   
    22   13   29 1   
    23   14   15 1   
    24   14   30 1   
    25   14   31 1   
    26   15   16 1   
    27   15   32 1   
    28   15   33 1   
    29   16   17 1   
    30   16   34 1   
    31   16   35 1   
    32   17   18 1   
    33   17   36 1   
    34   17   37 1   
    35   18   19 1   
    36   18   38 1   
    37   18   39 1   
    38   19   20 1   
    39   19   40 1   
    40   19   41 1   
    41   20   21 1   
    42   20   42 1   
    43   20   43 1   
    44   21   22 1   
    45   21   44 1   
    46   21   45 1   
    47   22   46 1   
    48   22   47 1   
    49   22   48 1   
@<TRIPOS>SUBSTRUCTURE
     1 UHD         1 TEMP              0 ****  ****    0 ROOT
