@<TRIPOS>MOLECULE
UHD
   48    49     1     0     0
SMALL
bcc


@<TRIPOS>ATOM
      1 C2          0.1130   -0.1780    0.1890 cc        1 UHD      0.343300
      2 N3          1.4250   -0.2290   -0.0660 nd        1 UHD     -0.573000
      3 C4          2.1140   -0.0910    1.1250 cd        1 UHD      0.323800
      4 C7          1.2900    0.0620    2.2600 cc        1 UHD     -0.300000
      5 C7A         1.8460    0.2150    3.5900 c         1 UHD      0.596900
      6 O7          1.1770    0.3750    4.6200 o         1 UHD     -0.524100
      7 C6          3.3330    0.1640    3.6640 cc        1 UHD      0.047900
      8 O6          3.8940    0.2750    4.9120 oh        1 UHD     -0.480100
      9 C4A         3.5960   -0.0960    1.2180 c         1 UHD      0.492800
     10 O4          4.3180   -0.1810    0.2220 o         1 UHD     -0.469100
     11 C5          4.1450    0.0180    2.5880 cd        1 UHD     -0.178400
     12 C8          5.6280   -0.0220    2.7150 c3        1 UHD     -0.032200
     13 C9          6.1600   -1.4400    2.6100 c3        1 UHD     -0.074400
     14 C10         7.6680   -1.4590    2.7420 c3        1 UHD     -0.077400
     15 C11         8.2070   -2.8690    2.6360 c3        1 UHD     -0.078400
     16 C12         9.7150   -2.8920    2.7670 c3        1 UHD     -0.079400
     17 C13        10.2550   -4.3020    2.6620 c3        1 UHD     -0.079400
     18 C14        11.7620   -4.3250    2.7930 c3        1 UHD     -0.079400
     19 C15        12.3020   -5.7350    2.6880 c3        1 UHD     -0.079400
     20 C16        13.8100   -5.7580    2.8200 c3        1 UHD     -0.079400
     21 C17        14.3510   -7.1680    2.7140 c3        1 UHD     -0.080400
     22 C18        15.8520   -7.1950    2.8450 c3        1 UHD     -0.092100
     23 S1         -0.3170    0.0320    1.8100 ss        1 UHD      0.080700
     24 H2         -0.6120   -0.2690   -0.6280 h5        1 UHD      0.067100
     25 HO6         3.1770    0.4050    5.5590 ho        1 UHD      0.444000
     26 H81         6.0780    0.6030    1.8960 hc        1 UHD      0.065700
     27 H82         5.9360    0.4230    3.6990 hc        1 UHD      0.065700
     28 H91         5.7030   -2.0750    3.4130 hc        1 UHD      0.047200
     29 H92         5.8600   -1.8750    1.6200 hc        1 UHD      0.047200
     30 H101        8.1240   -0.8210    1.9390 hc        1 UHD      0.041200
     31 H102        7.9660   -1.0150    3.7280 hc        1 UHD      0.041200
     32 H111        7.9090   -3.3120    1.6490 hc        1 UHD      0.040700
     33 H112        7.7500   -3.5080    3.4370 hc        1 UHD      0.040700
     34 H121       10.1720   -2.2530    1.9660 hc        1 UHD      0.039700
     35 H122       10.0130   -2.4480    3.7540 hc        1 UHD      0.039700
     36 H131        9.7970   -4.9410    3.4630 hc        1 UHD      0.039200
     37 H132        9.9560   -4.7460    1.6750 hc        1 UHD      0.039200
     38 H141       12.2190   -3.6860    1.9920 hc        1 UHD      0.039200
     39 H142       12.0610   -3.8810    3.7800 hc        1 UHD      0.039200
     40 H151       12.0040   -6.1790    1.7020 hc        1 UHD      0.039200
     41 H152       11.8450   -6.3730    3.4890 hc        1 UHD      0.039200
     42 H161       14.1080   -5.3140    3.8060 hc        1 UHD      0.039200
     43 H162       14.2670   -5.1190    2.0180 hc        1 UHD      0.039200
     44 H171       14.0500   -7.6100    1.7280 hc        1 UHD      0.038200
     45 H172       13.8910   -7.8050    3.5150 hc        1 UHD      0.038200
     46 H181       16.1700   -6.7800    3.8320 hc        1 UHD      0.032367
     47 H182       16.3290   -6.5850    2.0390 hc        1 UHD      0.032367
     48 H183       16.2300   -8.2430    2.7640 hc        1 UHD      0.032367
@<TRIPOS>BOND
     1    1    2 2   
     2    1   23 1   
     3    1   24 1   
     4    2    3 1   
     5    3    4 2   
     6    3    9 1   
     7    4    5 1   
     8    4   23 1   
     9    5    6 2   
    10    5    7 1   
    11    7    8 1   
    12    7   11 2   
    13    8   25 1   
    14    9   10 2   
    15    9   11 1   
    16   11   12 1   
    17   12   13 1   
    18   12   26 1   
    19   12   27 1   
    20   13   14 1   
    21   13   28 1   
    22   13   29 1   
    23   14   15 1   
    24   14   30 1   
    25   14   31 1   
    26   15   16 1   
    27   15   32 1   
    28   15   33 1   
    29   16   17 1   
    30   16   34 1   
    31   16   35 1   
    32   17   18 1   
    33   17   36 1   
    34   17   37 1   
    35   18   19 1   
    36   18   38 1   
    37   18   39 1   
    38   19   20 1   
    39   19   40 1   
    40   19   41 1   
    41   20   21 1   
    42   20   42 1   
    43   20   43 1   
    44   21   22 1   
    45   21   44 1   
    46   21   45 1   
    47   22   46 1   
    48   22   47 1   
    49   22   48 1   
@<TRIPOS>SUBSTRUCTURE
     1 UHD         1 TEMP              0 ****  ****    0 ROOT
