@<TRIPOS>MOLECULE
UHF
   57    57     1     0     0
SMALL
bcc


@<TRIPOS>ATOM
      1 C          -1.5570   -1.0320    0.9230 c         1 UHF      0.548100
      2 N           0.8430   -1.4790    1.1720 n         1 UHF     -0.556900
      3 O          -2.1110   -1.1130    2.0180 o         1 UHF     -0.502100
      4 CA         -0.3750   -1.9540    0.5550 c3        1 UHF      0.014700
      5 CB         -0.7090   -3.4090    0.9600 c3        1 UHF     -0.069700
      6 CAA        -2.7080    4.9370   -0.5900 c3        1 UHF     -0.093100
      7 OAH        -4.3840   -1.7780   -0.0060 oh        1 UHF     -0.429100
      8 CAI        -5.0760    0.3340   -0.7130 c         1 UHF      0.611900
      9 CAJ         4.5770    2.3050   -1.0540 ca        1 UHF     -0.083000
     10 CAK         3.5040    1.6220   -0.4870 ca        1 UHF     -0.226300
     11 CAL         6.0260    1.1980    0.5050 ca        1 UHF      0.418200
     12 CAM        -2.8270    3.7330    0.3080 c3        1 UHF     -0.082400
     13 CAO        -2.4050    1.2830    0.5490 c3        1 UHF     -0.079400
     14 CAP        -2.8220   -0.5510   -1.1940 c3        1 UHF      0.085000
     15 NAQ         5.0240    0.5160    1.0710 nb        1 UHF     -0.707000
     16 CAT         1.6270   -0.5150    0.5240 c         1 UHF      0.764100
     17 CAV         5.8700    2.1090   -0.5620 ca        1 UHF     -0.208600
     18 CAW         3.7560    0.7270    0.5880 ca        1 UHF      0.504200
     19 CAY        -1.8930    0.0150   -0.1140 c3        1 UHF     -0.196700
     20 CG1        -1.8390   -3.9150    0.0870 c3        1 UHF     -0.096100
     21 CG2         0.4910   -4.3220    0.8320 c3        1 UHF     -0.096100
     22 HN          0.9100   -1.6020    2.1550 hn        1 UHF      0.316500
     23 HA         -0.2290   -1.9230   -0.5680 h1        1 UHF      0.095700
     24 HB         -1.0570   -3.4020    2.0320 hc        1 UHF      0.069700
     25 HAA        -3.2860    4.7870   -1.5330 hc        1 UHF      0.033700
     26 HAAA       -3.1050    5.8450   -0.0740 hc        1 UHF      0.033700
     27 HAAB       -1.6400    5.1250   -0.8600 hc        1 UHF      0.033700
     28 HAB         7.9590    2.2010   -1.0520 hc        1 UHF      0.046700
     29 HABA        6.8640    3.0940   -2.1910 hc        1 UHF      0.046700
     30 HABB        7.2110    3.7730   -0.5470 hc        1 UHF      0.046700
     31 HOAH       -5.2790   -2.1390   -0.1680 ho        1 UHF      0.431000
     32 HAI        -4.7800    1.2240   -1.3130 h5        1 UHF      0.042200
     33 HAJ         4.4010    3.0000   -1.8900 ha        1 UHF      0.142000
     34 HAK         2.4840    1.7590   -0.8750 ha        1 UHF      0.174000
     35 HAL         7.0280    0.9980    0.9290 h4        1 UHF      0.024100
     36 HAM        -2.2600    3.9140    1.2590 hc        1 UHF      0.044200
     37 HAMA       -3.9010    3.5760    0.5900 hc        1 UHF      0.044200
     38 HAO        -1.8000    1.4720    1.4770 hc        1 UHF      0.058700
     39 HAOA       -3.4640    1.1470    0.8910 hc        1 UHF      0.058700
     40 HAP        -2.8120    0.1580   -2.0700 h1        1 UHF      0.071700
     41 HAPA       -2.3980   -1.5440   -1.5260 h1        1 UHF      0.071700
     42 HAY        -0.9230    0.2680   -0.6470 hc        1 UHF      0.104700
     43 HG1        -1.5270   -3.9490   -0.9850 hc        1 UHF      0.041700
     44 HG1A       -2.1300   -4.9460    0.4030 hc        1 UHF      0.041700
     45 HG1B       -2.7340   -3.2500    0.1810 hc        1 UHF      0.041700
     46 HG2         1.2490   -4.1060    1.6220 hc        1 UHF      0.041700
     47 HG2A        0.1700   -5.3870    0.9420 hc        1 UHF      0.041700
     48 HG2B        0.9740   -4.2000   -0.1670 hc        1 UHF      0.041700
     49 NBA        -4.2290   -0.7910   -0.8970 n         1 UHF     -0.302300
     50 OAF         1.3650   -0.1730   -0.6550 o         1 UHF     -0.640100
     51 CAN        -2.2930    2.4850   -0.3650 c3        1 UHF     -0.081400
     52 NAR         2.6920    0.0650    1.2560 n         1 UHF     -0.525400
     53 CAB         7.0340    2.8270   -1.1190 c3        1 UHF     -0.046800
     54 OAE        -6.1230    0.2620   -0.0580 o         1 UHF     -0.558100
     55 HAN        -2.8610    2.3010   -1.3150 hc        1 UHF      0.038200
     56 HANA       -1.2190    2.6430   -0.6510 hc        1 UHF      0.038200
     57 HNAR        2.9600   -0.3990    2.1020 hn        1 UHF      0.318500
@<TRIPOS>BOND
     1    1    3 2   
     2    1    4 1   
     3    1   19 1   
     4    2    4 1   
     5    2   16 1   
     6    2   22 1   
     7    4    5 1   
     8    4   23 1   
     9    5   20 1   
    10    5   21 1   
    11    5   24 1   
    12    6   12 1   
    13    6   25 1   
    14    6   26 1   
    15    6   27 1   
    16    7   31 1   
    17    7   49 1   
    18    8   32 1   
    19    8   49 1   
    20    8   54 2   
    21    9   10 ar  
    22    9   17 ar  
    23    9   33 1   
    24   10   18 ar  
    25   10   34 1   
    26   11   15 ar  
    27   11   17 ar  
    28   11   35 1   
    29   12   36 1   
    30   12   37 1   
    31   12   51 1   
    32   13   19 1   
    33   13   38 1   
    34   13   39 1   
    35   13   51 1   
    36   14   19 1   
    37   14   40 1   
    38   14   41 1   
    39   14   49 1   
    40   15   18 ar  
    41   16   50 2   
    42   16   52 1   
    43   17   53 1   
    44   18   52 1   
    45   19   42 1   
    46   20   43 1   
    47   20   44 1   
    48   20   45 1   
    49   21   46 1   
    50   21   47 1   
    51   21   48 1   
    52   28   53 1   
    53   29   53 1   
    54   30   53 1   
    55   51   55 1   
    56   51   56 1   
    57   52   57 1   
@<TRIPOS>SUBSTRUCTURE
     1 UHF         1 TEMP              0 ****  ****    0 ROOT
