@<TRIPOS>MOLECULE
UHF
   57    51     1     0     0
SMALL
bcc


@<TRIPOS>ATOM
      1 C           0.2420   -0.5900    0.2220 c2        1 UHF      0.244000
      2 N           1.1110    1.5480   -0.8110 n         1 UHF     -0.347000
      3 O          -0.6410   -0.9630    1.0170 o         1 UHF     -0.358000
      4 CA          0.8100    0.8170    0.3850 c3        1 UHF     -0.088000
      5 CB          1.6360   -0.8350    3.4130 c2        1 UHF     -0.569000
      6 CAA        -4.4430    0.7490   -2.6600 c1        1 UHF     -0.064000
      7 OAH        -0.9370   -4.5550   -0.8970 oh        1 UHF     -0.208000
      8 CAI        -2.6990   -5.0760    2.2870 c1        1 UHF      0.238000
      9 CAJ         5.3090    2.8990   -5.0550 c3        1 UHF     -0.214000
     10 CAK         4.0960    2.9780   -4.2640 c1        1 UHF     -0.071000
     11 CAL         5.7230    0.7020   -4.0490 c2        1 UHF     -0.106000
     12 CAM        -3.5430    1.8840   -2.6890 c3        1 UHF     -0.251000
     13 CAO        -1.2840    2.8850   -3.0850 c3        1 UHF     -0.217000
     14 CAP         0.3760   -2.6750   -1.1400 c2        1 UHF      0.022000
     15 NAQ         4.5760    0.7520   -3.2760 n2        1 UHF     -0.091000
     16 CAT         2.4130    1.4270   -1.3600 c2        1 UHF      0.374000
     17 CAV         6.1390    1.6810   -4.9070 c2        1 UHF     -0.137000
     18 CAW         3.8160    1.8430   -3.3680 c2        1 UHF      0.018000
     19 CAY         0.8240   -1.4390   -0.8010 c2        1 UHF     -0.348000
     20 CG1         1.6010   -2.1220    3.7410 c1        1 UHF      0.357000
     21 CG2         2.7660   -0.0320    3.7200 c1        1 UHF     -0.033000
     22 HN          0.3510    1.6410   -1.4520 hn        1 UHF      0.218000
     23 HA          1.7510    0.7130    1.0100 h1        1 UHF      0.134000
     24 HB          0.0620    1.4300    0.9690 h1        1 UHF      0.134000
     25 HAA        -5.3080    0.6750   -4.7340 ha        1 UHF      0.009333
     26 HAAA       -4.6580    0.6300   -4.9340 ha        1 UHF      0.009333
     27 HAAB       -3.9840   -0.2470   -2.7710 ha        1 UHF      0.039000
     28 HAB         7.1600    1.6750   -6.7850 hc        1 UHF      0.090333
     29 HABA        7.9010    0.6080   -5.5180 hc        1 UHF      0.090333
     30 HABB        8.0830    2.4090   -5.4090 hc        1 UHF      0.090333
     31 HOAH       -0.4730   -5.0260   -0.1710 ho        1 UHF      0.185000
     32 HAI        -1.1620   -2.9310    0.1870 hn        1 UHF      0.229000
     33 HAJ         5.0000    3.0320   -6.1380 hc        1 UHF      0.180500
     34 HAK         5.9200    3.8220   -4.8070 hc        1 UHF      0.180500
     35 HAL         6.2970   -0.2310   -3.9000 h4        1 UHF      0.167000
     36 HAM        -4.0040    2.6860   -3.3330 hc        1 UHF      0.139500
     37 HAMA       -3.5550    2.2920   -1.6340 hc        1 UHF      0.139500
     38 HAO        -1.2320    3.2870   -2.0430 hc        1 UHF      0.074333
     39 HAOA       -1.7260    3.6750   -3.7400 hc        1 UHF      0.074333
     40 HAP         1.7280   -1.0550   -1.3040 ha        1 UHF      0.167000
     41 HAPA        0.9240   -3.2760   -1.8960 h4        1 UHF      0.159000
     42 HAY        -0.2440    2.6790   -3.4400 hc        1 UHF      0.074333
     43 HG1        -0.1150   -2.9590    2.3390 ha        1 UHF      0.009333
     44 HG1A       -0.5140   -2.7350    2.8410 ha        1 UHF      0.009333
     45 HG1B        0.7460   -0.4140    2.8870 ha        1 UHF      0.177000
     46 HG2         3.9580    0.3010    1.6380 ha        1 UHF      0.009333
     47 HG2A        3.7750   -0.3530    1.6540 ha        1 UHF      0.009333
     48 HG2B        2.6560    1.0380    3.4740 ha        1 UHF      0.038000
     49 NBA        -0.8310   -3.2470   -0.7220 n3        1 UHF     -0.141000
     50 OAF         3.3340    0.9140   -0.6900 o         1 UHF     -0.349000
     51 CAN        -2.1160    1.6300   -3.1320 c3        1 UHF     -0.187000
     52 NAR         2.6050    1.9640   -2.6560 n         1 UHF     -0.303000
     53 CAB         7.3830    1.5830   -5.6920 c3        1 UHF     -0.181000
     54 OAE        -1.7530   -4.6880    1.7120 o         1 UHF     -0.236000
     55 HAN        -1.6550    0.8440   -2.4780 hc        1 UHF      0.080500
     56 HANA       -2.1230    1.2230   -4.1780 hc        1 UHF      0.080500
     57 HNAR        2.0760    2.7730   -2.9130 hn        1 UHF      0.252000
@<TRIPOS>BOND
     1    1    3 1   
     2    1    4 1   
     3    1   19 1   
     4    2    4 1   
     5    2   16 1   
     6    2   22 1   
     7    4   23 1   
     8    4   24 1   
     9    5   20 1   
    10    5   21 1   
    11    5   45 1   
    12    6   12 1   
    13    6   27 1   
    14    7   31 1   
    15    7   49 1   
    16    8   54 1   
    17    9   10 1   
    18    9   17 1   
    19    9   33 1   
    20    9   34 1   
    21   10   18 1   
    22   11   15 1   
    23   11   17 1   
    24   11   35 1   
    25   12   36 1   
    26   12   37 1   
    27   12   51 1   
    28   13   38 1   
    29   13   39 1   
    30   13   42 1   
    31   13   51 1   
    32   14   19 1   
    33   14   41 1   
    34   14   49 1   
    35   15   18 1   
    36   16   50 1   
    37   16   52 1   
    38   17   53 1   
    39   18   52 1   
    40   19   40 1   
    41   21   48 1   
    42   25   26 1   
    43   28   53 1   
    44   29   53 1   
    45   30   53 1   
    46   32   49 1   
    47   43   44 1   
    48   46   47 1   
    49   51   55 1   
    50   51   56 1   
    51   52   57 1   
@<TRIPOS>SUBSTRUCTURE
     1 UHF         1 TEMP              0 ****  ****    0 ROOT
