@<TRIPOS>MOLECULE
UHF
   59    52     1     0     0
SMALL
bcc


@<TRIPOS>ATOM
      1 C           0.4720    1.2130    0.8230 c2        1 UHF      0.308000
      2 N           2.4160    2.3450   -0.2690 ny        1 UHF      0.044000
      3 O           0.0360    0.2910    1.5900 o         1 UHF     -0.554000
      4 CA          1.8480    1.3550    0.5910 c2        1 UHF     -0.598000
      5 CB         -0.4840   -0.4480    5.3000 c2        1 UHF     -0.510000
      6 OAH         1.4910   -1.6450   -0.6530 oh        1 UHF     -0.232000
      7 CAI        -0.8670   -1.7530   -0.6890 c2        1 UHF      0.209000
      8 CAJ         5.2270    1.9620   -5.7710 c2        1 UHF     -0.075000
      9 CAK         4.7250    2.5420   -4.6060 c2        1 UHF     -0.148000
     10 CAL         4.6090   -0.1900   -4.8890 c2        1 UHF     -0.055000
     11 CAM        -3.8400   -2.1820   -3.4060 c1        1 UHF     -0.223500
     12 CAO        -1.5050    2.7040    0.7500 c2        1 UHF     -0.112000
     13 CAP         0.4590   -1.3740   -2.7940 c3        1 UHF     -0.133000
     14 NAQ         4.1180    0.3280   -3.7550 n2        1 UHF     -0.161000
     15 CAT         2.6690    1.7710   -1.6810 c2        1 UHF      0.338000
     16 CAV         5.1820    0.5730   -5.9340 c2        1 UHF     -0.070000
     17 CAW         4.1820    1.6850   -3.6150 c2        1 UHF      0.045000
     18 CAY        -0.4800    2.1120    0.1380 c2        1 UHF     -0.285000
     19 CG1         0.8250   -0.8420    5.0880 c1        1 UHF      0.547000
     20 CG2        -1.3750    0.1360    4.4510 c2        1 UHF      0.145000
     21 HN          3.2890    2.6810    0.1480 hn        1 UHF      0.245000
     22 HA          2.5790    0.6960    1.0770 hx        1 UHF      0.174000
     23 HB         -1.1170    0.3840    3.3980 ha        1 UHF      0.184500
     24 HAA        -3.6390   -2.7560   -2.5360 ha        1 UHF      0.224500
     25 HAAA        0.2170   -3.2050   -3.9690 hc        1 UHF      0.126333
     26 HAAB       -4.3660   -1.0070   -5.2620 ha        1 UHF      0.224500
     27 HAB         5.5420    0.5450   -8.0500 hc        1 UHF      0.109667
     28 HABA        6.8290   -0.2260   -7.0330 hc        1 UHF      0.109667
     29 HABB        5.2540   -1.0850   -7.3030 hc        1 UHF      0.109667
     30 HOAH        1.5470   -0.6540   -0.6430 ho        1 UHF      0.285000
     31 HAI        -0.7820   -0.8820    0.0120 hx        1 UHF      0.255000
     32 HAJ         5.6580    2.6020   -6.5600 ha        1 UHF      0.174000
     33 HAK         4.7570    3.6330   -4.4720 ha        1 UHF      0.162000
     34 HAL         4.5520   -1.2930   -4.9680 h4        1 UHF      0.178000
     35 HAM        -3.3460    4.6440   -1.1440 ha        1 UHF      0.002750
     36 HAMA       -3.8520    4.9010   -0.7740 ha        1 UHF      0.002750
     37 HAO        -1.7090    2.5670    1.8220 ha        1 UHF      0.133500
     38 HAOA       -1.3430   -2.3490   -3.5730 hc        1 UHF      0.126333
     39 HAP         1.5440   -1.2200   -3.0800 hx        1 UHF      0.159000
     40 HAPA       -0.0170   -0.3580   -2.6840 hx        1 UHF      0.159000
     41 HAY        -0.3030    2.2480   -0.9430 ha        1 UHF      0.134000
     42 HG1         1.2820   -0.3780    2.9830 DU        1 UHF      0.087000
     43 HG1A       -0.8130   -0.6700    6.3550 ha        1 UHF      0.247000
     44 HG1B        1.2450   -0.5260    3.6920 DU        1 UHF      0.087000
     45 HG2        -2.4020    0.3900    4.7780 ha        1 UHF      0.184500
     46 HG2A        2.3700   -1.4540    1.5020 ha        1 UHF      0.002750
     47 HG2B        2.8700   -1.8090    1.2120 ha        1 UHF      0.002750
     48 OAF         1.8410    0.9200   -2.0480 o         1 UHF     -0.333000
     49 CAN        -0.2610   -2.2040   -3.8290 c3        1 UHF     -0.262000
     50 NAR         3.7110    2.2860   -2.4000 ns        1 UHF     -0.272000
     51 OAE        -1.7940   -2.4990   -0.9190 o         1 UHF     -0.150000
     52 HAN        -2.2030    3.3730    0.2210 ha        1 UHF      0.133500
     53 HANA       -0.2060   -1.6550   -4.8050 hc        1 UHF      0.126333
     54 HNAR        4.3130    2.9850   -2.0180 hn        1 UHF      0.265000
     55 H2          1.7680    3.1340   -0.3770 hn        1 UHF      0.245000
     56 NBA         0.4500   -2.0250   -1.4260 nx        1 UHF      0.017000
     57 CAB         5.7220   -0.0820   -7.1410 c3        1 UHF     -0.196000
     58 CAA        -4.1130   -1.5560   -4.3880 c1        1 UHF     -0.223500
     59 HBA1        0.5710   -3.0530   -1.5590 hn        1 UHF      0.279000
@<TRIPOS>BOND
     1    1    3 1   
     2    1    4 1   
     3    1   18 1   
     4    2    4 1   
     5    2   15 1   
     6    2   21 1   
     7    2   55 1   
     8    4   22 1   
     9    5   19 1   
    10    5   20 1   
    11    5   43 1   
    12    6   30 1   
    13    6   56 1   
    14    7   31 1   
    15    7   51 1   
    16    7   56 1   
    17    8    9 1   
    18    8   16 1   
    19    8   32 1   
    20    9   17 1   
    21    9   33 1   
    22   10   14 1   
    23   10   16 1   
    24   10   34 1   
    25   11   24 1   
    26   11   58 1   
    27   12   18 1   
    28   12   37 1   
    29   12   52 1   
    30   13   39 1   
    31   13   40 1   
    32   13   49 1   
    33   13   56 1   
    34   14   17 1   
    35   15   48 1   
    36   15   50 1   
    37   16   57 1   
    38   17   50 1   
    39   18   41 1   
    40   20   23 1   
    41   20   45 1   
    42   25   49 1   
    43   26   58 1   
    44   27   57 1   
    45   28   57 1   
    46   29   57 1   
    47   35   36 1   
    48   38   49 1   
    49   46   47 1   
    50   49   53 1   
    51   50   54 1   
    52   56   59 1   
@<TRIPOS>SUBSTRUCTURE
     1 UHF         1 TEMP              0 ****  ****    0 ROOT
