@<TRIPOS>MOLECULE
UHF
   59    54     1     0     0
SMALL
bcc


@<TRIPOS>ATOM
      1 C          -6.4060   10.5230  -35.5110 c2        1 UHF      0.185000
      2 N          -7.4440   11.9540  -37.2390 n4        1 UHF     -0.030000
      3 O          -5.2250   10.0610  -35.0250 oh        1 UHF     -0.241000
      4 CA         -6.3080   11.3500  -36.5950 c2        1 UHF     -0.370000
      5 CB         49.4040  -61.4930  217.4220 c2        1 UHF     -0.295000
      6 OAH        -3.3120    9.0250  -33.5760 oh        1 UHF     -0.273000
      7 CAI        -4.1900    9.9870  -31.6130 c2        1 UHF      0.303000
      8 CAJ        -7.2260   12.9340  -41.4050 c1        1 UHF     -0.068000
      9 CAK        -7.3990   11.5850  -41.7960 c3        1 UHF     -0.048000
     10 CAL        -9.0640    8.5390  -41.2090 c1        1 UHF     -0.090000
     11 CAM        -6.9890    6.2920  -33.6390 c2        1 UHF     -0.135000
     12 CAO        -8.0920   11.0960  -33.7860 c3        1 UHF     -0.220000
     13 CAP        -2.0570    8.9180  -31.5870 c1        1 UHF     -0.071000
     14 NAQ        -8.4120    9.4820  -40.9840 n2        1 UHF      0.126000
     15 CAT        -8.0100   11.0890  -38.3830 c2        1 UHF      0.305000
     16 CAV        -7.2700   13.7600  -40.3050 c2        1 UHF     -0.103000
     17 CAW        -7.7120   10.5820  -40.7140 c2        1 UHF     -0.324000
     18 CAY        -7.6780   10.1080  -34.8510 c3        1 UHF     -0.206000
     19 CG1        48.5770  -61.3150  218.5120 c2        1 UHF      0.184000
     20 CG2        50.6250  -62.1290  217.5060 c2        1 UHF      0.184000
     21 HN         -7.1570   12.8690  -37.6350 hn        1 UHF      0.260500
     22 HA         -5.3320   11.6030  -37.0440 hx        1 UHF      0.196000
     23 HB         51.0220  -62.5370  218.4550 ha        1 UHF      0.180500
     24 HAA        -9.1100    6.0590  -33.7930 hc        1 UHF      0.088333
     25 HAAA       -8.5600    6.9460  -32.3090 hc        1 UHF      0.088333
     26 HAAB       -8.3300    5.1520  -32.4340 hc        1 UHF      0.088333
     27 HAB        -5.3940   13.3480  -39.3390 ha        1 UHF      0.122500
     28 HABA       -8.1470   14.4500  -40.3370 ha        1 UHF      0.190000
     29 HABB       -6.3560   14.7820  -38.6690 ha        1 UHF      0.122500
     30 HOAH       -3.0920    9.8110  -34.1150 ho        1 UHF      0.222000
     31 HAI        -3.9920   10.1590  -30.5290 h5        1 UHF      0.210000
     32 HAJ        -6.4450   11.2810  -42.3350 hc        1 UHF      0.173500
     33 HAK        -8.2090   11.5810  -42.5920 hc        1 UHF      0.173500
     34 HAL        -9.6760    7.6900  -41.4330 ha        1 UHF      0.323000
     35 HAM        -6.3720    8.0540  -32.5970 ha        1 UHF      0.114000
     36 HAMA       -6.7190    5.5220  -34.3840 ha        1 UHF      0.126000
     37 HAO        -7.2980   11.1800  -33.0020 hc        1 UHF      0.097667
     38 HAOA       -8.2710   12.1080  -34.2230 hc        1 UHF      0.097667
     39 HAP        -1.2660    8.3630  -32.1270 ha        1 UHF      0.090000
     40 HAPA       -7.5340    9.0920  -34.3780 hc        1 UHF      0.128500
     41 HAY        -8.4920    9.9920  -35.6170 hc        1 UHF      0.128500
     42 HG1        47.6010  -60.8000  218.4100 ha        1 UHF      0.180500
     43 HG1A       48.8400  -61.6710  219.5260 ha        1 UHF      0.180500
     44 HG1B       49.0710  -61.1070  216.4320 ha        1 UHF      0.206000
     45 HG2        51.2660  -62.2550  216.6110 ha        1 UHF      0.180500
     46 HG2A       -2.7360    9.8960  -28.6540 ha        1 UHF      0.001500
     47 HG2B       -2.3710    9.5960  -29.1400 ha        1 UHF      0.001500
     48 OAF        -9.1610   10.6910  -38.1760 o         1 UHF     -0.274000
     49 CAN        -6.1490    7.2840  -33.3490 c2        1 UHF     -0.278000
     50 NAR        -7.1560   10.7450  -39.4200 n         1 UHF     -0.174000
     51 OAE        -5.2080   10.2980  -32.2360 o         1 UHF     -0.340000
     52 HAN        -9.0360   10.7490  -33.2990 hc        1 UHF      0.097667
     53 HANA       -5.1570    7.3720  -33.8160 ha        1 UHF      0.114000
     54 HNAR       -6.2470   11.1670  -39.4300 hn        1 UHF      0.248000
     55 H2         -8.2070   12.0990  -36.5640 hn        1 UHF      0.260500
     56 NBA        -3.0990    9.3370  -32.2830 n         1 UHF     -0.131000
     57 CAB        -6.3280   13.9230  -39.3520 c2        1 UHF     -0.393000
     58 CAA        -8.3130    6.1120  -33.0110 c3        1 UHF     -0.201000
     59 HBA1       -5.3900    9.5380  -34.2090 ho        1 UHF      0.287000
@<TRIPOS>BOND
     1    1    3 1   
     2    1    4 1   
     3    1   18 1   
     4    2    4 1   
     5    2   15 1   
     6    2   21 1   
     7    2   55 1   
     8    3   59 1   
     9    4   22 1   
    10    5   19 1   
    11    5   20 1   
    12    5   44 1   
    13    6   30 1   
    14    6   56 1   
    15    7   31 1   
    16    7   51 1   
    17    7   56 1   
    18    8    9 1   
    19    8   16 1   
    20    9   17 1   
    21    9   32 1   
    22    9   33 1   
    23   10   14 1   
    24   10   34 1   
    25   11   36 1   
    26   11   49 1   
    27   11   58 1   
    28   12   18 1   
    29   12   37 1   
    30   12   38 1   
    31   12   52 1   
    32   13   39 1   
    33   13   56 1   
    34   14   17 1   
    35   15   48 1   
    36   15   50 1   
    37   16   28 1   
    38   16   57 1   
    39   17   50 1   
    40   18   40 1   
    41   18   41 1   
    42   19   42 1   
    43   19   43 1   
    44   20   23 1   
    45   20   45 1   
    46   24   58 1   
    47   25   58 1   
    48   26   58 1   
    49   27   57 1   
    50   29   57 1   
    51   35   49 1   
    52   46   47 1   
    53   49   53 1   
    54   50   54 1   
@<TRIPOS>SUBSTRUCTURE
     1 UHF         1 TEMP              0 ****  ****    0 ROOT
