@<TRIPOS>MOLECULE
UHF
   57    52     1     0     0
SMALL
bcc


@<TRIPOS>ATOM
      1 C          -1.6350    0.3480    1.7800 c1        1 UHF      0.234000
      2 N           0.3980    1.4640    1.0720 n         1 UHF     -0.370000
      3 O          -2.2790    1.2200    2.3670 o         1 UHF     -0.283000
      4 CA         -0.0840    0.3650    1.8290 c2        1 UHF     -0.014000
      5 CB          0.3810    0.4980    3.2750 c3        1 UHF     -0.121000
      6 CAA        -2.6120   -3.1860   -3.3720 c3        1 UHF     -0.211000
      7 CAB         6.3250    2.4960   -4.3640 c3        1 UHF     -0.170000
      8 OAE        -5.1570   -3.3020    3.3720 o         1 UHF     -0.309000
      9 OAF         2.5570    0.6270    0.7820 o         1 UHF     -0.359000
     10 OAH        -3.9050   -0.9160    3.7430 oh        1 UHF     -0.238000
     11 CAI        -4.7250   -2.7390    2.3850 c1        1 UHF      0.212000
     12 CAJ         3.9210    2.5230   -3.7510 c1        1 UHF     -0.146000
     13 CAK         2.9080    2.4290   -2.8210 c1        1 UHF     -0.146000
     14 CAL         5.5200    2.0430   -2.0480 c1        1 UHF     -0.039000
     15 CAM        -2.0670   -1.9590   -2.6240 c3        1 UHF     -0.161000
     16 CAN        -2.5990   -1.9560   -1.1880 c3        1 UHF     -0.154000
     17 CAO        -2.1370   -0.6440   -0.4620 c3        1 UHF     -0.164000
     18 CAP        -3.8390   -0.6850    1.3180 c3        1 UHF     -0.059000
     19 NAQ         4.5130    1.9500   -1.1260 n1        1 UHF     -0.140000
     20 NAR         1.8970    2.1780   -0.8350 n         1 UHF     -0.339000
     21 CAT         1.6600    1.3540    0.3480 c2        1 UHF      0.410000
     22 CAV         5.2240    2.3310   -3.3690 c1        1 UHF     -0.149000
     23 CAW         3.2040    2.1420   -1.5100 c1        1 UHF      0.134000
     24 CAY        -2.3720   -0.7800    1.0350 c3        1 UHF     -0.176000
     25 NBA        -4.1520   -1.4460    2.5010 n2        1 UHF     -0.189000
     26 CG1         1.9220    0.2220    3.3610 c3        1 UHF     -0.217000
     27 CG2        -0.3480   -0.4970    4.1290 c3        1 UHF     -0.217000
     28 HN         -0.1030    2.2250    1.0020 hn        1 UHF      0.228000
     29 HA          0.2560   -0.4490    1.4610 h4        1 UHF      0.143000
     30 HB          0.1930    1.4010    3.5940 hc        1 UHF      0.103000
     31 HAA        -3.5390   -3.0070   -3.6670 hc        1 UHF      0.072667
     32 HAAA       -2.6030   -3.9650   -2.7740 hc        1 UHF      0.072667
     33 HAAB       -2.0550   -3.3670   -4.1470 hc        1 UHF      0.072667
     34 HAB         6.0670    3.1830   -5.0290 hc        1 UHF      0.085000
     35 HABA        7.1340    2.7750   -3.9090 hc        1 UHF      0.085000
     36 HABB        6.4850    1.6430   -4.8190 hc        1 UHF      0.085000
     37 HOAH       -4.6620   -0.9430    4.2380 ho        1 UHF      0.226000
     38 HAI        -4.7430   -3.1890    1.5200 ha        1 UHF      0.131000
     39 HAJ         3.7060    2.7310   -4.7050 ha        1 UHF      0.139500
     40 HAK         1.9880    2.5640   -3.0910 ha        1 UHF      0.139500
     41 HAL         6.4660    1.9040   -1.7700 ha        1 UHF      0.163000
     42 HAM        -2.3550   -1.1460   -3.0790 hc        1 UHF      0.085500
     43 HAMA       -1.0980   -1.9940   -2.6090 hc        1 UHF      0.085500
     44 HAN        -2.2530   -2.7260   -0.7140 hc        1 UHF      0.075500
     45 HANA       -3.5770   -1.9950   -1.2030 hc        1 UHF      0.075500
     46 HAO        -2.6590    0.1260   -0.8090 hc        1 UHF      0.105500
     47 HAOA       -1.1830   -0.4950   -0.6310 hc        1 UHF      0.105500
     48 HAP        -4.0810    0.2470    1.4590 h1        1 UHF      0.123500
     49 HAPA       -4.3440   -1.0430    0.5520 h1        1 UHF      0.123500
     50 HNAR        1.2630    2.7240   -1.1270 hn        1 UHF      0.238000
     51 HAY        -2.0390   -1.6370    1.3370 hc        1 UHF      0.118000
     52 HG1         2.2900    0.6550    4.1740 hc        1 UHF      0.083500
     53 HG1A        2.3650    0.5890    2.5660 hc        1 UHF      0.083500
     54 HG1B        2.0810   -0.7480    3.4070 hc        1 UHF      0.083500
     55 HG2        -0.4380   -1.3380    3.6400 hc        1 UHF      0.083500
     56 HG2A       -1.2390   -0.1480    4.3510 hc        1 UHF      0.083500
     57 HG2B        0.1580   -0.6520    4.9550 hc        1 UHF      0.083500
@<TRIPOS>BOND
     1    1    3 1   
     2    1   24 1   
     3    2    4 1   
     4    2   21 1   
     5    2   28 1   
     6    4    5 1   
     7    4   29 1   
     8    5   26 1   
     9    5   27 1   
    10    5   30 1   
    11    6   15 1   
    12    6   31 1   
    13    6   32 1   
    14    6   33 1   
    15    7   22 1   
    16    7   34 1   
    17    7   35 1   
    18    7   36 1   
    19    8   11 1   
    20    9   21 1   
    21   10   25 1   
    22   10   37 1   
    23   11   38 1   
    24   12   13 1   
    25   12   39 1   
    26   13   40 1   
    27   14   22 1   
    28   14   41 1   
    29   15   16 1   
    30   15   42 1   
    31   15   43 1   
    32   16   17 1   
    33   16   44 1   
    34   16   45 1   
    35   17   24 1   
    36   17   46 1   
    37   17   47 1   
    38   18   24 1   
    39   18   25 1   
    40   18   48 1   
    41   18   49 1   
    42   19   23 1   
    43   20   21 1   
    44   20   23 1   
    45   20   50 1   
    46   24   51 1   
    47   26   52 1   
    48   26   53 1   
    49   26   54 1   
    50   27   55 1   
    51   27   56 1   
    52   27   57 1   
@<TRIPOS>SUBSTRUCTURE
     1 UHF         1 TEMP              0 ****  ****    0 ROOT
