@<TRIPOS>MOLECULE
UHX
   42    45     1     0     0
SMALL
bcc


@<TRIPOS>ATOM
      1 N1          0.0880   -0.2940    0.0850 n2        1 UHX     -0.313000
      2 C2          1.4760   -0.2130    0.1970 c2        1 UHX      0.190000
      3 N3          2.2070    0.0110    1.3460 n2        1 UHX     -0.268000
      4 C4          1.4390    0.0940    2.4710 c2        1 UHX      0.118000
      5 C5         -0.0090   -0.0150    2.4920 c2        1 UHX     -0.259000
      6 C6         -0.6470   -0.2250    1.2310 c2        1 UHX      0.237000
      7 CAA        -6.3070    1.2200    6.2870 c3        1 UHX     -0.077000
      8 NAB         2.2030   -0.4280   -0.9860 nh        1 UHX     -0.320000
      9 NAC        -2.0190   -0.4060    1.1730 nh        1 UHX     -0.348000
     10 CAE         2.7560    0.3570    7.6960 c2        1 UHX     -0.283000
     11 CAF         0.7190   -1.0000    8.0030 c2        1 UHX     -0.232000
     12 CAG        -3.8790   -1.0180    4.7410 ca        1 UHX     -0.185000
     13 CAH        -3.6520    1.3240    5.3800 ca        1 UHX     -0.185000
     14 CAI         2.2650    0.8590    6.4820 c1        1 UHX     -0.102000
     15 CAJ         0.1830   -0.4990    6.8710 c2        1 UHX     -0.060000
     16 CAK        -2.5720   -1.0110    4.2740 ca        1 UHX     -0.096000
     17 CAL        -2.3410    1.3120    4.9070 ca        1 UHX     -0.096000
     18 NAO         1.8720    0.2830    3.7840 na        1 UHX     -0.167000
     19 CAQ         2.0310   -0.5530    8.4450 c2        1 UHX      0.221000
     20 CAT        -4.4200    0.1570    5.2980 ca        1 UHX      0.079000
     21 CAU         0.8790    0.5590    6.0850 c3        1 UHX     -0.086000
     22 CAV        -1.7870    0.1520    4.3520 ca        1 UHX     -0.059000
     23 CAW         0.7420    0.3390    4.6180 c2        1 UHX     -0.012000
     24 CAX        -0.4250    0.1530    3.8620 c2        1 UHX     -0.073000
     25 HAA        -5.7470    1.5460    7.1970 h1        1 UHX      0.085333
     26 HAAA       -6.3350    2.0410    5.5300 h1        1 UHX      0.085333
     27 HAAB       -7.3430    0.8940    6.5570 h1        1 UHX      0.085333
     28 HNAB        3.1410   -0.0970   -0.9870 hn        1 UHX      0.215500
     29 HNAA        1.7020   -0.3040   -1.8350 hn        1 UHX      0.215500
     30 HNAC       -2.5370   -0.0880    1.9590 hn        1 UHX      0.224000
     31 HNAD       -2.4670   -0.3750    0.2880 hn        1 UHX      0.224000
     32 HAE         3.7590    0.6710    8.0260 ha        1 UHX      0.164000
     33 HAF         0.2060   -1.7590    8.6130 ha        1 UHX      0.157000
     34 HAG        -4.4990   -1.9240    4.6840 ha        1 UHX      0.147000
     35 HAH        -4.0670    2.2470    5.8080 ha        1 UHX      0.147000
     36 HAI         0.3330    1.5420    6.3210 hc        1 UHX      0.181000
     37 HAJ        -0.7990   -0.8330    6.4960 ha        1 UHX      0.159000
     38 HAK        -2.1430   -1.9250    3.8320 ha        1 UHX      0.146000
     39 HAL        -1.7350    2.2300    4.9650 ha        1 UHX      0.146000
     40 HNAO        2.7880    0.5230    4.0800 hn        1 UHX      0.284000
     41 FAD         2.5110   -1.0800    9.5850 f         1 UHX     -0.083000
     42 OAP        -5.7250    0.0450    5.7340 os        1 UHX     -0.208000
@<TRIPOS>BOND
     1    1    2 1   
     2    1    6 1   
     3    2    3 1   
     4    2    8 1   
     5    3    4 1   
     6    4    5 1   
     7    4   18 1   
     8    5    6 1   
     9    5   24 1   
    10    6    9 1   
    11    7   25 1   
    12    7   26 1   
    13    7   27 1   
    14    7   42 1   
    15    8   28 1   
    16    8   29 1   
    17    9   30 1   
    18    9   31 1   
    19   10   14 1   
    20   10   19 1   
    21   10   32 1   
    22   11   15 1   
    23   11   19 1   
    24   11   33 1   
    25   12   16 1   
    26   12   20 1   
    27   12   34 1   
    28   13   17 1   
    29   13   20 1   
    30   13   35 1   
    31   14   21 1   
    32   15   21 1   
    33   15   37 1   
    34   16   22 1   
    35   16   38 1   
    36   17   22 1   
    37   17   39 1   
    38   18   23 1   
    39   18   40 1   
    40   19   41 1   
    41   20   42 1   
    42   21   23 1   
    43   21   36 1   
    44   22   24 1   
    45   23   24 1   
@<TRIPOS>SUBSTRUCTURE
     1 UHX         1 TEMP              0 ****  ****    0 ROOT
