@<TRIPOS>MOLECULE
UHX
   42    45     1     0     0
SMALL
bcc


@<TRIPOS>ATOM
      1 N1          0.2430   -0.2850    0.2990 nb        1 UHX     -0.840000
      2 C2          1.6150   -0.3430    0.5460 ca        1 UHX      0.914900
      3 N3          2.2460   -0.2330    1.7700 nb        1 UHX     -0.799000
      4 C4          1.3800   -0.1180    2.8180 ca        1 UHX      0.517800
      5 C5         -0.0660   -0.0940    2.6980 ca        1 UHX     -0.406400
      6 C6         -0.5930   -0.1880    1.3720 ca        1 UHX      0.763200
      7 CAA        -6.5560    1.3520    6.1340 c3        1 UHX      0.112700
      8 NAB         2.4320   -0.5840   -0.5680 nv        1 UHX     -0.924500
      9 NAC        -1.9610   -0.2230    1.1740 nv        1 UHX     -0.952500
     10 CAE         2.6070    0.8340    7.2730 c1        1 UHX     -0.111800
     11 CAF         1.9420   -1.3710    7.6780 ce        1 UHX     -0.166000
     12 CAG        -4.1930   -0.8990    4.5100 ca        1 UHX     -0.183500
     13 CAH        -3.8410    1.3350    5.4200 ca        1 UHX     -0.183500
     14 CAI         1.4230    1.3110    6.9350 c2        1 UHX     -0.145300
     15 CAJ         0.7840   -1.0720    7.0510 c2        1 UHX     -0.119200
     16 CAK        -2.8560   -0.9540    4.1430 ca        1 UHX     -0.093500
     17 CAL        -2.5010    1.2620    5.0460 ca        1 UHX     -0.093500
     18 NAO         1.6980    0.0030    4.1710 na        1 UHX     -0.271100
     19 CAQ         3.0560   -0.4110    7.5010 ce        1 UHX      0.135400
     20 CAT        -4.6860    0.2520    5.1530 ca        1 UHX      0.126100
     21 CAU         0.4920    0.2550    6.3760 c3        1 UHX      0.036900
     22 CAV        -1.9930    0.1250    4.4050 ca        1 UHX     -0.071800
     23 CAW         0.5000    0.1150    4.9000 cc        1 UHX     -0.080300
     24 CAX        -0.5980    0.0540    4.0290 cd        1 UHX     -0.023400
     25 HAA        -6.0410    1.5180    7.1110 h1        1 UHX      0.046033
     26 HAAA       -6.4660    2.2570    5.4850 h1        1 UHX      0.046033
     27 HAAB       -7.6320    1.0870    6.2940 h1        1 UHX      0.046033
     28 HNAB        2.0310   -0.3940   -1.4580 hn        1 UHX      0.422800
     29 HNAA        3.3940   -0.3530   -0.4670 hn        1 UHX      0.422800
     30 HNAC       -2.5260    0.0980    1.9240 hn        1 UHX      0.431800
     31 HNAD       -2.3160   -0.1210    0.2530 hn        1 UHX      0.431800
     32 HAE         1.0380    2.3140    7.1350 ha        1 UHX      0.159000
     33 HAF         2.1320   -2.3170    8.1990 ha        1 UHX      0.157000
     34 HAG        -4.8730   -1.7400    4.3110 ha        1 UHX      0.146500
     35 HAH        -4.2180    2.2390    5.9180 ha        1 UHX      0.146500
     36 HAI        -0.5530    0.5690    6.6820 hc        1 UHX      0.105700
     37 HAJ        -0.0320   -1.8070    6.9830 ha        1 UHX      0.150000
     38 HAK        -2.4620   -1.8520    3.6410 ha        1 UHX      0.145000
     39 HAL        -1.8350    2.1150    5.2500 ha        1 UHX      0.145000
     40 HNAO        2.6070    0.0530    4.5560 hn        1 UHX      0.318700
     41 FAD         4.3200   -0.8480    7.4640 f         1 UHX     -0.134500
     42 OAP        -6.0280    0.2070    5.4750 os        1 UHX     -0.324900
@<TRIPOS>BOND
     1    1    2 ar  
     2    1    6 ar  
     3    2    3 ar  
     4    2    8 1   
     5    3    4 ar  
     6    4    5 ar  
     7    4   18 1   
     8    5    6 ar  
     9    5   24 1   
    10    6    9 1   
    11    7   25 1   
    12    7   26 1   
    13    7   27 1   
    14    7   42 1   
    15    8   28 1   
    16    8   29 1   
    17    9   30 1   
    18    9   31 1   
    19   10   14 2   
    20   10   19 2   
    21   11   15 2   
    22   11   19 1   
    23   11   33 1   
    24   12   16 ar  
    25   12   20 ar  
    26   12   34 1   
    27   13   17 ar  
    28   13   20 ar  
    29   13   35 1   
    30   14   21 1   
    31   14   32 1   
    32   15   21 1   
    33   15   37 1   
    34   16   22 ar  
    35   16   38 1   
    36   17   22 ar  
    37   17   39 1   
    38   18   23 1   
    39   18   40 1   
    40   19   41 1   
    41   20   42 1   
    42   21   23 1   
    43   21   36 1   
    44   22   24 1   
    45   23   24 2   
@<TRIPOS>SUBSTRUCTURE
     1 UHX         1 TEMP              0 ****  ****    0 ROOT
