@<TRIPOS>MOLECULE
UI1
   56    59     1     0     0
SMALL
bcc


@<TRIPOS>ATOM
      1 N1          0.5110    0.9920   -0.4210 n4        1 UI1     -0.838600
      2 C2          1.5860    0.0040   -0.1100 c3        1 UI1      0.144100
      3 C3          1.9510   -0.0770    1.3430 ca        1 UI1     -0.110300
      4 C4          1.4400   -1.1130    2.1340 ca        1 UI1     -0.069500
      5 C5          1.8960   -1.3030    3.4400 ca        1 UI1     -0.083500
      6 C6          2.8800   -0.4420    3.9590 ca        1 UI1     -0.018400
      7 N7          3.4530   -0.7060    5.2900 n4        1 UI1     -0.545200
      8 C8          2.7880    0.0280    6.4450 c         1 UI1      0.552700
      9 O9          1.9480    0.8640    6.1580 o         1 UI1     -0.361100
     10 C10         3.2090   -0.3450    7.8130 ca        1 UI1     -0.176600
     11 C11         2.3380    0.0890    8.8560 ca        1 UI1     -0.020000
     12 C12         2.6310   -0.1910   10.1800 ca        1 UI1      0.003600
     13 N13         1.6620    0.2130   11.2060 n4        1 UI1     -0.618100
     14 C14         1.8460    1.6400   11.6490 ca        1 UI1      0.675900
     15 N15         2.4640    1.8220   12.8580 nb        1 UI1     -0.677500
     16 C16         2.5280    3.1060   13.2770 ca        1 UI1      0.467200
     17 C17         2.0140    4.1770   12.5160 ca        1 UI1     -0.260600
     18 C18         1.4340    3.8650   11.2680 ca        1 UI1      0.467200
     19 N19         1.3440    2.5980   10.8070 nb        1 UI1     -0.677500
     20 C20         3.8390   -0.8870   10.5480 ca        1 UI1      0.016000
     21 C21         4.2170   -1.1830   11.8860 ca        1 UI1     -0.104000
     22 C22         5.3720   -1.9000   12.1490 ca        1 UI1     -0.155900
     23 C23         6.2110   -2.3300   11.0940 ca        1 UI1     -0.095000
     24 C24         5.8780   -2.0320    9.7920 ca        1 UI1     -0.057000
     25 C25         4.6900   -1.3110    9.4890 ca        1 UI1     -0.036000
     26 C26         4.3620   -1.0310    8.1310 ca        1 UI1      0.003000
     27 C27         5.6960   -2.3090   13.5450 ce        1 UI1      0.549800
     28 N28         5.0770   -3.0980   14.3330 n2        1 UI1     -0.647100
     29 N29         6.9680   -1.7110   14.0720 n4        1 UI1     -0.816600
     30 C30         3.3660    0.6290    3.1870 ca        1 UI1     -0.083500
     31 C31         2.8990    0.8000    1.8830 ca        1 UI1     -0.069500
     32 HN11        0.7880    1.9380   -0.1360 hn        1 UI1      0.475800
     33 HN12       -0.3620    0.7470    0.0590 hn        1 UI1      0.475800
     34 H21A        1.2350   -1.0090   -0.4780 hx        1 UI1      0.140700
     35 H22         2.5010    0.2940   -0.7140 hx        1 UI1      0.140700
     36 H4          0.6880   -1.8160    1.7290 ha        1 UI1      0.186500
     37 H5          1.4830   -2.1410    4.0290 ha        1 UI1      0.179000
     38 HN7         3.3950   -1.7180    5.4710 hn        1 UI1      0.474800
     39 H11         1.4290    0.6620    8.5720 ha        1 UI1      0.208000
     40 H13         1.7380   -0.4060   12.0280 hn        1 UI1      0.489300
     41 H16         3.0020    3.2670   14.2690 h4        1 UI1      0.090100
     42 H17         2.0570    5.2160   12.8850 ha        1 UI1      0.224000
     43 H18         1.0110    4.6490   10.6030 h4        1 UI1      0.090100
     44 H21         3.6070   -0.8330   12.7360 ha        1 UI1      0.167000
     45 H23         7.1180   -2.9250   11.3050 ha        1 UI1      0.184000
     46 H24         6.5350   -2.3640    8.9660 ha        1 UI1      0.187000
     47 H26         5.0780   -1.3790    7.3640 ha        1 UI1      0.162000
     48 H28         4.2340   -3.5550   14.0530 hn        1 UI1      0.502400
     49 H291        7.1960   -2.0820   15.0130 hn        1 UI1      0.486133
     50 H292        6.8650   -0.6920   14.1360 hn        1 UI1      0.486133
     51 H30         4.1230    1.3330    3.5770 ha        1 UI1      0.179000
     52 H31         3.3160    1.6240    1.2760 ha        1 UI1      0.186500
     53 H131        0.3360    0.9930   -1.4380 hn        1 UI1      0.475800
     54 H72         4.4470   -0.4330    5.2660 hn        1 UI1      0.474800
     55 H132        0.7040    0.1250   10.8220 hn        1 UI1      0.489300
     56 H293        7.7380   -1.9400   13.4320 hn        1 UI1      0.486133
@<TRIPOS>BOND
     1    1    2 1   
     2    1   32 1   
     3    1   33 1   
     4    1   53 1   
     5    2    3 1   
     6    2   34 1   
     7    2   35 1   
     8    3    4 ar  
     9    3   31 ar  
    10    4    5 ar  
    11    4   36 1   
    12    5    6 ar  
    13    5   37 1   
    14    6    7 1   
    15    6   30 ar  
    16    7    8 1   
    17    7   38 1   
    18    7   54 1   
    19    8    9 2   
    20    8   10 1   
    21   10   11 ar  
    22   10   26 ar  
    23   11   12 ar  
    24   11   39 1   
    25   12   13 1   
    26   12   20 ar  
    27   13   14 1   
    28   13   40 1   
    29   13   55 1   
    30   14   15 ar  
    31   14   19 ar  
    32   15   16 ar  
    33   16   17 ar  
    34   16   41 1   
    35   17   18 ar  
    36   17   42 1   
    37   18   19 ar  
    38   18   43 1   
    39   20   21 ar  
    40   20   25 ar  
    41   21   22 ar  
    42   21   44 1   
    43   22   23 ar  
    44   22   27 1   
    45   23   24 ar  
    46   23   45 1   
    47   24   25 ar  
    48   24   46 1   
    49   25   26 ar  
    50   26   47 1   
    51   27   28 2   
    52   27   29 1   
    53   28   48 1   
    54   29   49 1   
    55   29   50 1   
    56   29   56 1   
    57   30   31 ar  
    58   30   51 1   
    59   31   52 1   
@<TRIPOS>SUBSTRUCTURE
     1 UI1         1 TEMP              0 ****  ****    0 ROOT
