@<TRIPOS>MOLECULE
UI1
   52    55     1     0     0
SMALL
bcc


@<TRIPOS>ATOM
      1 N1         29.0890   11.4080   28.0680 n3        1 UI1     -0.917800
      2 C2         28.2020   10.8190   29.0470 c3        1 UI1      0.208100
      3 C3         27.2850   11.8060   29.7050 ca        1 UI1     -0.122300
      4 C4         26.5410   12.7100   28.9400 ca        1 UI1     -0.092000
      5 C5         25.6710   13.6050   29.5470 ca        1 UI1     -0.172500
      6 C6         25.5150   13.6140   30.9560 ca        1 UI1      0.069600
      7 N7         24.6070   14.5250   31.5190 n         1 UI1     -0.469100
      8 C8         24.4350   14.8210   32.8650 c         1 UI1      0.678700
      9 O9         25.0840   14.2770   33.7750 o         1 UI1     -0.571100
     10 C10        23.4020   15.8640   33.1630 ca        1 UI1     -0.122600
     11 C11        23.7550   16.8890   34.0710 ca        1 UI1     -0.071000
     12 C12        22.8440   17.8850   34.4010 ca        1 UI1      0.141600
     13 N13        23.2400   18.9610   35.2260 nh        1 UI1     -0.716300
     14 C14        23.6010   18.7670   36.5770 ca        1 UI1      0.860900
     15 N15        23.6180   19.9070   37.3790 nb        1 UI1     -0.734500
     16 C16        24.0490   19.7380   38.6370 ca        1 UI1      0.461700
     17 C17        24.4530   18.4950   39.1570 ca        1 UI1     -0.411600
     18 C18        24.3800   17.3990   38.2790 ca        1 UI1      0.461700
     19 N19        23.9630   17.4980   37.0070 nb        1 UI1     -0.734500
     20 C20        21.5180   17.8550   33.8300 ca        1 UI1     -0.044000
     21 C21        20.5180   18.8160   34.1470 ca        1 UI1     -0.110000
     22 C22        19.2650   18.7450   33.5790 ca        1 UI1     -0.181900
     23 C23        18.9460   17.7140   32.6610 ca        1 UI1     -0.100000
     24 C24        19.8910   16.7730   32.3420 ca        1 UI1     -0.116000
     25 C25        21.1900   16.8160   32.9200 ca        1 UI1     -0.029000
     26 C26        22.1510   15.8230   32.5940 ca        1 UI1     -0.103000
     27 C27        18.2330   19.7790   33.9200 ce        1 UI1      0.635800
     28 N28        18.4210   21.0610   33.8090 n2        1 UI1     -0.829100
     29 N29        16.9880   19.2440   34.3130 nh        1 UI1     -0.892800
     30 C30        26.2660   12.6970   31.7210 ca        1 UI1     -0.172500
     31 C31        27.1380   11.8130   31.0930 ca        1 UI1     -0.092000
     32 HN11       29.8150   10.7620   27.8290 hn        1 UI1      0.351300
     33 HN12       29.4990   12.2530   28.4110 hn        1 UI1      0.351300
     34 H21A       27.5700   10.0570   28.5020 h1        1 UI1      0.033200
     35 H22        28.7670   10.2600   29.8530 h1        1 UI1      0.033200
     36 H4         26.6480   12.7140   27.8430 ha        1 UI1      0.141500
     37 H5         25.1020   14.3060   28.9180 ha        1 UI1      0.150500
     38 HN7        24.0880   15.0720   30.8670 hn        1 UI1      0.319500
     39 H11        24.7650   16.8630   34.5150 ha        1 UI1      0.176000
     40 H13        22.7940   19.8340   35.0290 hn        1 UI1      0.443800
     41 H16        24.0640   20.6530   39.2590 h4        1 UI1      0.031100
     42 H17        24.8010   18.3860   40.1890 ha        1 UI1      0.157000
     43 H18        24.6680   16.3810   38.6020 h4        1 UI1      0.031100
     44 H21        20.7290   19.6200   34.8680 ha        1 UI1      0.140000
     45 H23        17.9400   17.6830   32.2120 ha        1 UI1      0.156000
     46 H24        19.6590   15.9630   31.6330 ha        1 UI1      0.141000
     47 H26        21.8610   15.0210   31.8980 ha        1 UI1      0.143000
     48 H28        19.3050   21.3140   33.4240 hn        1 UI1      0.395400
     49 H291       16.3400   19.9020   34.6910 hn        1 UI1      0.400800
     50 H292       17.0710   18.4120   34.8540 hn        1 UI1      0.400800
     51 H30        26.1760   12.6740   32.8190 ha        1 UI1      0.150500
     52 H31        27.7160   11.1080   31.7110 ha        1 UI1      0.141500
@<TRIPOS>BOND
     1    1    2 1   
     2    1   32 1   
     3    1   33 1   
     4    2    3 1   
     5    2   34 1   
     6    2   35 1   
     7    3    4 ar  
     8    3   31 ar  
     9    4    5 ar  
    10    4   36 1   
    11    5    6 ar  
    12    5   37 1   
    13    6    7 1   
    14    6   30 ar  
    15    7    8 1   
    16    7   38 1   
    17    8    9 2   
    18    8   10 1   
    19   10   11 ar  
    20   10   26 ar  
    21   11   12 ar  
    22   11   39 1   
    23   12   13 1   
    24   12   20 ar  
    25   13   14 1   
    26   13   40 1   
    27   14   15 ar  
    28   14   19 ar  
    29   15   16 ar  
    30   16   17 ar  
    31   16   41 1   
    32   17   18 ar  
    33   17   42 1   
    34   18   19 ar  
    35   18   43 1   
    36   20   21 ar  
    37   20   25 ar  
    38   21   22 ar  
    39   21   44 1   
    40   22   23 ar  
    41   22   27 1   
    42   23   24 ar  
    43   23   45 1   
    44   24   25 ar  
    45   24   46 1   
    46   25   26 ar  
    47   26   47 1   
    48   27   28 2   
    49   27   29 1   
    50   28   48 1   
    51   29   49 1   
    52   29   50 1   
    53   30   31 ar  
    54   30   51 1   
    55   31   52 1   
@<TRIPOS>SUBSTRUCTURE
     1 UI1         1 TEMP              0 ****  ****    0 ROOT
