@<TRIPOS>MOLECULE
UI1
   54    57     1     0     0
SMALL
bcc


@<TRIPOS>ATOM
      1 N1          0.2380    0.5600   -0.1900 n4        1 UI1     -0.846600
      2 C2          1.6630    0.1530    0.0680 c3        1 UI1      0.183100
      3 C3          1.9160   -0.0330    1.5180 ca        1 UI1     -0.239300
      4 C4          1.8690   -1.3100    2.0900 ca        1 UI1     -0.059500
      5 C5          2.1630   -1.4950    3.4320 ca        1 UI1     -0.171500
      6 C6          2.5190   -0.3910    4.2550 ca        1 UI1      0.132600
      7 N7          2.8310   -0.6300    5.5940 n         1 UI1     -0.470100
      8 C8          3.0140    0.3290    6.5950 c         1 UI1      0.680700
      9 O9          2.8640    1.5430    6.3930 o         1 UI1     -0.540100
     10 C10         3.3870   -0.1960    7.9450 ca        1 UI1     -0.102600
     11 C11         2.7310    0.3810    9.0590 ca        1 UI1     -0.095000
     12 C12         3.0420   -0.0180   10.3530 ca        1 UI1      0.152600
     13 N13         2.4010    0.5210   11.5000 nh        1 UI1     -0.720300
     14 C14         2.1880    1.9330   11.5580 ca        1 UI1      0.813900
     15 N15         1.0660    2.3650   12.2480 nb        1 UI1     -0.722000
     16 C16         0.9410    3.6930   12.4040 ca        1 UI1      0.456200
     17 C17         1.8720    4.6170   11.8920 ca        1 UI1     -0.371600
     18 C18         2.9660    4.0820   11.1910 ca        1 UI1      0.456200
     19 N19         3.1500    2.7610   11.0070 nb        1 UI1     -0.722000
     20 C20         4.0670   -1.0110   10.5550 ca        1 UI1     -0.023000
     21 C21         4.4720   -1.4250   11.8530 ca        1 UI1     -0.048000
     22 C22         5.4840   -2.3490   12.0070 ca        1 UI1     -0.255900
     23 C23         6.1250   -2.9260   10.8790 ca        1 UI1     -0.111000
     24 C24         5.7420   -2.5430    9.6180 ca        1 UI1     -0.087000
     25 C25         4.7170   -1.5740    9.4250 ca        1 UI1     -0.014000
     26 C26         4.3570   -1.1570    8.1160 ca        1 UI1     -0.098000
     27 C27         5.9040   -2.7890   13.3540 ce        1 UI1      0.587800
     28 N28         5.8230   -3.9170   13.9440 n2        1 UI1     -0.702100
     29 N29         6.5540   -1.6690   14.1290 n4        1 UI1     -0.824600
     30 C30         2.5620    0.8960    3.6650 ca        1 UI1     -0.171500
     31 C31         2.2670    1.0610    2.3190 ca        1 UI1     -0.059500
     32 HN11        0.0300    1.4300    0.3120 hn        1 UI1      0.457800
     33 HN12       -0.4000   -0.1660    0.1490 hn        1 UI1      0.457800
     34 H21A        1.8470   -0.8020   -0.5040 hx        1 UI1      0.113200
     35 H22         2.3230    0.9660   -0.3560 hx        1 UI1      0.113200
     36 H4          1.6120   -2.1860    1.4720 ha        1 UI1      0.144000
     37 H5          2.1220   -2.5140    3.8500 ha        1 UI1      0.174500
     38 HN7         2.8690   -1.5880    5.8700 hn        1 UI1      0.331500
     39 H11         1.9860    1.1750    8.8720 ha        1 UI1      0.178000
     40 H13         1.6040   -0.0190   11.7880 hn        1 UI1      0.440800
     41 H16         0.0430    4.0250   12.9610 h4        1 UI1      0.045100
     42 H17         1.7460    5.6970   12.0300 ha        1 UI1      0.175000
     43 H18         3.7410    4.7350   10.7450 h4        1 UI1      0.045100
     44 H21         3.9620   -1.0010   12.7350 ha        1 UI1      0.157000
     45 H23         6.9200   -3.6740   11.0230 ha        1 UI1      0.156000
     46 H24         6.2310   -2.9800    8.7310 ha        1 UI1      0.163000
     47 H26         4.8900   -1.6010    7.2590 ha        1 UI1      0.154000
     48 H28         5.3940   -4.6820   13.4650 hn        1 UI1      0.492400
     49 H291        6.7460   -1.9340   15.1040 hn        1 UI1      0.473133
     50 H292        5.9250   -0.8580   14.1090 hn        1 UI1      0.473133
     51 H30         2.8370    1.7830    4.2640 ha        1 UI1      0.174500
     52 H31         2.3330    2.0710    1.8810 ha        1 UI1      0.144000
     53 H131        0.0840    0.7040   -1.1920 hn        1 UI1      0.457800
     54 H293        7.4340   -1.4240   13.6640 hn        1 UI1      0.473133
@<TRIPOS>BOND
     1    1    2 1   
     2    1   32 1   
     3    1   33 1   
     4    1   53 1   
     5    2    3 1   
     6    2   34 1   
     7    2   35 1   
     8    3    4 ar  
     9    3   31 ar  
    10    4    5 ar  
    11    4   36 1   
    12    5    6 ar  
    13    5   37 1   
    14    6    7 1   
    15    6   30 ar  
    16    7    8 1   
    17    7   38 1   
    18    8    9 2   
    19    8   10 1   
    20   10   11 ar  
    21   10   26 ar  
    22   11   12 ar  
    23   11   39 1   
    24   12   13 1   
    25   12   20 ar  
    26   13   14 1   
    27   13   40 1   
    28   14   15 ar  
    29   14   19 ar  
    30   15   16 ar  
    31   16   17 ar  
    32   16   41 1   
    33   17   18 ar  
    34   17   42 1   
    35   18   19 ar  
    36   18   43 1   
    37   20   21 ar  
    38   20   25 ar  
    39   21   22 ar  
    40   21   44 1   
    41   22   23 ar  
    42   22   27 1   
    43   23   24 ar  
    44   23   45 1   
    45   24   25 ar  
    46   24   46 1   
    47   25   26 ar  
    48   26   47 1   
    49   27   28 2   
    50   27   29 1   
    51   28   48 1   
    52   29   49 1   
    53   29   50 1   
    54   29   54 1   
    55   30   31 ar  
    56   30   51 1   
    57   31   52 1   
@<TRIPOS>SUBSTRUCTURE
     1 UI1         1 TEMP              0 ****  ****    0 ROOT
