@<TRIPOS>MOLECULE
UI1
   54    57     1     0     0
SMALL
bcc


@<TRIPOS>ATOM
      1 N1          0.2270    0.5360   -0.1900 nz        1 UI1     -0.846600
      2 C2          1.6620    0.1650    0.0670 c3        1 UI1      0.183100
      3 C3          1.9180   -0.0240    1.5160 ca        1 UI1     -0.239300
      4 C4          1.9020   -1.3060    2.0790 ca        1 UI1     -0.059500
      5 C5          2.1980   -1.4930    3.4200 ca        1 UI1     -0.171500
      6 C6          2.5260   -0.3860    4.2510 ca        1 UI1      0.132600
      7 N7          2.8420   -0.6270    5.5890 ns        1 UI1     -0.470100
      8 C8          3.0020    0.3290    6.5960 c         1 UI1      0.680700
      9 O9          2.8240    1.5410    6.4030 o         1 UI1     -0.540100
     10 C10         3.3850   -0.1960    7.9440 ca        1 UI1     -0.102600
     11 C11         2.7170    0.3610    9.0610 ca        1 UI1     -0.095000
     12 C12         3.0340   -0.0390   10.3520 ca        1 UI1      0.152600
     13 N13         2.3820    0.4790   11.5020 nu        1 UI1     -0.720300
     14 C14         2.1440    1.8870   11.5700 ca        1 UI1      0.813900
     15 N15         1.0120    2.2940   12.2600 nb        1 UI1     -0.722500
     16 C16         0.8640    3.6200   12.4240 ca        1 UI1      0.456200
     17 C17         1.7810    4.5620   11.9220 ca        1 UI1     -0.371600
     18 C18         2.8860    4.0520   11.2210 ca        1 UI1      0.456200
     19 N19         3.0940    2.7360   11.0280 nb        1 UI1     -0.722500
     20 C20         4.0810   -1.0120   10.5490 ca        1 UI1     -0.023000
     21 C21         4.4940   -1.4240   11.8450 ca        1 UI1     -0.048000
     22 C22         5.5250   -2.3280   11.9950 ca        1 UI1     -0.255900
     23 C23         6.1790   -2.8830   10.8630 ca        1 UI1     -0.111000
     24 C24         5.7890   -2.5020    9.6050 ca        1 UI1     -0.086000
     25 C25         4.7440   -1.5530    9.4170 ca        1 UI1     -0.014000
     26 C26         4.3750   -1.1370    8.1100 ca        1 UI1     -0.098000
     27 C27         5.9540   -2.7660   13.3400 ce        1 UI1      0.587800
     28 N28         5.8960   -3.8990   13.9230 n2        1 UI1     -0.702100
     29 N29         6.5780   -1.6370   14.1210 nz        1 UI1     -0.824600
     30 C30         2.5380    0.9060    3.6700 ca        1 UI1     -0.171500
     31 C31         2.2410    1.0730    2.3250 ca        1 UI1     -0.059500
     32 HN11       -0.0050    1.3970    0.3170 hn        1 UI1      0.457800
     33 HN12        0.0710    0.6820   -1.1920 hn        1 UI1      0.457800
     34 H21A        1.8720   -0.7810   -0.5120 hx        1 UI1      0.113200
     35 H22         2.3000    0.9990   -0.3500 hx        1 UI1      0.113200
     36 H4          1.6670   -2.1840    1.4540 ha        1 UI1      0.144000
     37 H5          2.1830   -2.5150    3.8320 ha        1 UI1      0.174500
     38 HN7         2.9030   -1.5850    5.8590 hn        1 UI1      0.331500
     39 H11         1.9550    1.1410    8.8780 ha        1 UI1      0.178000
     40 H13         1.5930   -0.0760   11.7820 hn        1 UI1      0.440800
     41 H16        -0.0410    3.9320   12.9810 h4        1 UI1      0.045100
     42 H17         1.6360    5.6390   12.0680 ha        1 UI1      0.175000
     43 H18         3.6510    4.7210   10.7830 h4        1 UI1      0.045100
     44 H21         3.9740   -1.0170   12.7290 ha        1 UI1      0.157000
     45 H23         6.9900   -3.6150   11.0030 ha        1 UI1      0.156000
     46 H24         6.2880   -2.9230    8.7160 ha        1 UI1      0.163000
     47 H26         4.9190   -1.5630    7.2510 ha        1 UI1      0.154000
     48 H28         5.4840   -4.6700   13.4380 hn        1 UI1      0.492400
     49 H291        7.4540   -1.3710   13.6590 hn        1 UI1      0.473133
     50 H292        5.9330   -0.8400   14.1050 hn        1 UI1      0.473133
     51 H30         2.7900    1.7950    4.2760 ha        1 UI1      0.174500
     52 H31         2.2820    2.0860    1.8940 ha        1 UI1      0.144000
     53 H131       -0.3920   -0.2090    0.1430 hn        1 UI1      0.457800
     54 H293        6.7750   -1.9030   15.0950 hn        1 UI1      0.473133
@<TRIPOS>BOND
     1    1    2 1   
     2    1   32 1   
     3    1   33 1   
     4    1   53 1   
     5    2    3 1   
     6    2   34 1   
     7    2   35 1   
     8    3    4 ar  
     9    3   31 ar  
    10    4    5 ar  
    11    4   36 1   
    12    5    6 ar  
    13    5   37 1   
    14    6    7 1   
    15    6   30 ar  
    16    7    8 1   
    17    7   38 1   
    18    8    9 2   
    19    8   10 1   
    20   10   11 ar  
    21   10   26 ar  
    22   11   12 ar  
    23   11   39 1   
    24   12   13 1   
    25   12   20 ar  
    26   13   14 1   
    27   13   40 1   
    28   14   15 ar  
    29   14   19 ar  
    30   15   16 ar  
    31   16   17 ar  
    32   16   41 1   
    33   17   18 ar  
    34   17   42 1   
    35   18   19 ar  
    36   18   43 1   
    37   20   21 ar  
    38   20   25 ar  
    39   21   22 ar  
    40   21   44 1   
    41   22   23 ar  
    42   22   27 1   
    43   23   24 ar  
    44   23   45 1   
    45   24   25 ar  
    46   24   46 1   
    47   25   26 ar  
    48   26   47 1   
    49   27   28 2   
    50   27   29 1   
    51   28   48 1   
    52   29   49 1   
    53   29   50 1   
    54   29   54 1   
    55   30   31 ar  
    56   30   51 1   
    57   31   52 1   
@<TRIPOS>SUBSTRUCTURE
     1 UI1         1 TEMP              0 ****  ****    0 ROOT
