@<TRIPOS>MOLECULE
UI2
   34    36     1     0     0
SMALL
bcc


@<TRIPOS>ATOM
      1 C1          0.0700   -0.2920   -0.1520 ca        1 UI2     -0.074000
      2 C2          1.4310   -0.1020   -0.1150 ca        1 UI2     -0.129000
      3 C3          2.0950    0.0400    1.1290 ca        1 UI2     -0.005000
      4 C4          1.3560   -0.0200    2.3410 ca        1 UI2     -0.043000
      5 C5         -0.0660   -0.2470    2.2810 ca        1 UI2      0.144600
      6 C6         -0.6800   -0.3690    1.0400 ca        1 UI2     -0.117000
      7 C10         3.5020    0.2650    1.1790 ca        1 UI2     -0.082000
      8 C11         4.1480    0.4380    2.3740 ca        1 UI2     -0.140000
      9 C12         3.4030    0.3940    3.5830 ca        1 UI2     -0.283900
     10 C13         2.0410    0.1710    3.5700 ca        1 UI2     -0.021000
     11 N17        -0.7790   -0.3370    3.5060 nh        1 UI2     -0.720300
     12 C18        -2.0170    0.3560    3.6380 ca        1 UI2      0.828900
     13 N19        -2.9240   -0.1660    4.5510 nb        1 UI2     -0.726000
     14 C20        -4.0350    0.5600    4.7630 ca        1 UI2      0.457700
     15 C21        -4.2980    1.7740    4.1030 ca        1 UI2     -0.383600
     16 C22        -3.3290    2.2100    3.1820 ca        1 UI2      0.457700
     17 N23        -2.1960    1.5320    2.9270 nb        1 UI2     -0.726000
     18 C28         4.0870    0.6480    4.8650 ce        1 UI2      0.598800
     19 N29         3.9600    1.5730    5.7350 n2        1 UI2     -0.719100
     20 N30         5.1180   -0.4150    5.1600 n4        1 UI2     -0.826600
     21 H1         -0.4550   -0.3920   -1.1170 ha        1 UI2      0.159000
     22 H2          2.0200   -0.0490   -1.0450 ha        1 UI2      0.154000
     23 H6         -1.7700   -0.5190    0.9650 ha        1 UI2      0.161000
     24 H10         4.0600    0.3100    0.2280 ha        1 UI2      0.160000
     25 H11         5.2270    0.6470    2.3980 ha        1 UI2      0.131000
     26 H13         1.4720    0.1560    4.5160 ha        1 UI2      0.162000
     27 H17        -0.7940   -1.2670    3.8820 hn        1 UI2      0.435800
     28 H20        -4.7470    0.1340    5.4950 h4        1 UI2      0.040100
     29 H21        -5.2120    2.3470    4.2930 ha        1 UI2      0.169000
     30 H22        -3.4580    3.1480    2.6100 h4        1 UI2      0.040100
     31 H29         3.2930    2.2970    5.5650 hn        1 UI2      0.491400
     32 H301        5.7260   -0.5030    4.3390 hn        1 UI2      0.468133
     33 H302        4.6270   -1.3020    5.3110 hn        1 UI2      0.468133
     34 H303        5.6820   -0.1910    5.9890 hn        1 UI2      0.468133
@<TRIPOS>BOND
     1    1    2 ar  
     2    1    6 ar  
     3    1   21 1   
     4    2    3 ar  
     5    2   22 1   
     6    3    4 ar  
     7    3    7 ar  
     8    4    5 ar  
     9    4   10 ar  
    10    5    6 ar  
    11    5   11 1   
    12    6   23 1   
    13    7    8 ar  
    14    7   24 1   
    15    8    9 ar  
    16    8   25 1   
    17    9   10 ar  
    18    9   18 1   
    19   10   26 1   
    20   11   12 1   
    21   11   27 1   
    22   12   13 ar  
    23   12   17 ar  
    24   13   14 ar  
    25   14   15 ar  
    26   14   28 1   
    27   15   16 ar  
    28   15   29 1   
    29   16   17 ar  
    30   16   30 1   
    31   18   19 2   
    32   18   20 1   
    33   19   31 1   
    34   20   32 1   
    35   20   33 1   
    36   20   34 1   
@<TRIPOS>SUBSTRUCTURE
     1 UI2         1 TEMP              0 ****  ****    0 ROOT
