@<TRIPOS>MOLECULE
UI2
   33    28     1     0     0
SMALL
bcc


@<TRIPOS>ATOM
      1 C1         -0.8730   -0.5480   -3.0750 c1        1 UI2     -0.124500
      2 C2          0.4990   -0.7610   -3.0520 c1        1 UI2     -0.126000
      3 C3          1.1930   -0.7560   -1.8270 c1        1 UI2     -0.022000
      4 C4          0.5110   -0.5390   -0.6530 c1        1 UI2     -0.052000
      5 C5         -0.8800   -0.3230   -0.6770 c1        1 UI2      0.052000
      6 C6         -1.5630   -0.3290   -1.8860 c1        1 UI2     -0.124500
      7 C10         2.5790   -1.0020   -1.8010 c2        1 UI2     -0.112000
      8 C11         3.2570   -1.0250   -0.5890 c1        1 UI2     -0.110000
      9 C12         2.5670   -0.8060    0.6000 c1        1 UI2     -0.095000
     10 C13         1.2000   -0.5630    0.5750 c2        1 UI2     -0.108000
     11 N17        -1.1310    1.0000   -0.2310 n3        1 UI2     -0.233000
     12 C18        -2.3600    1.3130    0.4040 c2        1 UI2      0.145000
     13 N19        -2.8180    0.5310    1.4220 n2        1 UI2     -0.204000
     14 C20        -3.9540    0.8540    2.0570 c1        1 UI2     -0.004000
     15 C21        -4.6520    1.9660    1.6840 c1        1 UI2     -0.124500
     16 C22        -4.1920    2.7480    0.6650 c1        1 UI2     -0.124500
     17 N23        -3.0550    2.4240    0.0310 n1        1 UI2     -0.222000
     18 C28         3.4960   -1.2850    1.6940 c2        1 UI2      0.116000
     19 N29         3.5500   -2.5560    1.9960 n1        1 UI2     -0.302000
     20 N30         4.3080   -0.3550    2.3930 n3        1 UI2     -0.333000
     21 H1         -1.3540   -0.5520   -3.9250 ha        1 UI2      0.153750
     22 H2          0.9830   -0.9150   -3.8860 ha        1 UI2      0.137000
     23 H6         -2.5280   -0.1790   -1.9030 ha        1 UI2      0.153750
     24 H10         3.0630   -1.1560   -2.6340 ha        1 UI2      0.139000
     25 H11         4.2180   -1.1960   -0.5710 ha        1 UI2      0.146000
     26 H13         0.7170   -0.4090    1.4080 ha        1 UI2      0.130000
     27 H17        -0.4950    1.6450   -0.3350 hn        1 UI2      0.234000
     28 H20        -4.2820    0.2930    2.7860 ha        1 UI2      0.165000
     29 H21        -5.4790    2.2010    2.1460 ha        1 UI2      0.153750
     30 H22        -4.6900    3.5440    0.3970 ha        1 UI2      0.153750
     31 H29         3.0260   -3.1550    1.5460 DU        1 UI2      0.151000
     32 H301        4.9080   -0.6500    3.0180 hn        1 UI2      0.196000
     33 H302        4.2280    0.5400    2.2240 hn        1 UI2      0.196000
@<TRIPOS>BOND
     1    1    6 1   
     2    1   21 1   
     3    2    3 1   
     4    2   22 1   
     5    3    7 1   
     6    4    5 1   
     7    4   10 1   
     8    5   11 1   
     9    6   23 1   
    10    7    8 1   
    11    7   24 1   
    12    8   25 1   
    13    9   10 1   
    14    9   18 1   
    15   10   26 1   
    16   11   12 1   
    17   11   27 1   
    18   12   13 1   
    19   12   17 1   
    20   13   14 1   
    21   14   28 1   
    22   15   16 1   
    23   15   29 1   
    24   16   30 1   
    25   18   19 1   
    26   18   20 1   
    27   20   32 1   
    28   20   33 1   
@<TRIPOS>SUBSTRUCTURE
     1 UI2         1 TEMP              0 ****  ****    0 ROOT
