@<TRIPOS>MOLECULE
UI2
   35    37     1     0     0
SMALL
bcc


@<TRIPOS>ATOM
      1 C1         -0.1200   -0.8530   -0.1730 ca        1 UI2     -0.105000
      2 C2          1.1840   -0.4230   -0.1620 ca        1 UI2     -0.048000
      3 C3          1.8350   -0.1190    1.0670 ca        1 UI2     -0.017000
      4 C4          1.1470   -0.2610    2.3040 ca        1 UI2     -0.014000
      5 C5         -0.2090   -0.7350    2.2500 ca        1 UI2     -0.053400
      6 C6         -0.8290   -1.0100    1.0380 ca        1 UI2     -0.031000
      7 C10         3.1800    0.3430    1.0600 ca        1 UI2     -0.054000
      8 C11         3.8260    0.6560    2.2310 ca        1 UI2     -0.128000
      9 C12         3.1400    0.5180    3.4630 ca        1 UI2     -0.204900
     10 C13         1.8310    0.0770    3.5030 ca        1 UI2     -0.093000
     11 N17        -0.9760   -0.9550    3.4820 n4        1 UI2     -0.608100
     12 C18        -1.8430    0.2260    3.8150 ca        1 UI2      0.694900
     13 N19        -3.0460    0.2890    3.1600 nb        1 UI2     -0.674000
     14 C20        -3.8230    1.3440    3.4840 ca        1 UI2      0.463200
     15 C21        -3.4240    2.3150    4.4260 ca        1 UI2     -0.282600
     16 C22        -2.1600    2.1500    5.0270 ca        1 UI2      0.463200
     17 N23        -1.3450    1.1130    4.7340 nb        1 UI2     -0.674000
     18 C28         3.8170    0.9250    4.7180 ce        1 UI2      0.571800
     19 N29         3.5100    1.8140    5.5820 n2        1 UI2     -0.684100
     20 N30         5.0800    0.1500    4.9760 n4        1 UI2     -0.819600
     21 H1         -0.6350   -1.0840   -1.1240 ha        1 UI2      0.193000
     22 H2          1.7450   -0.3010   -1.1060 ha        1 UI2      0.184000
     23 H6         -1.8810   -1.3520    0.9870 ha        1 UI2      0.185000
     24 H10         3.6960    0.4550    0.0880 ha        1 UI2      0.184000
     25 H11         4.8560    1.0470    2.2030 ha        1 UI2      0.157000
     26 H13         1.3220    0.0180    4.4790 ha        1 UI2      0.143000
     27 H17        -0.3410   -1.1410    4.2690 hn        1 UI2      0.478800
     28 H20        -4.8020    1.3960    2.9610 h4        1 UI2      0.079100
     29 H21        -4.0750    3.1660    4.6820 ha        1 UI2      0.208000
     30 H22        -1.7730    2.8660    5.7800 h4        1 UI2      0.079100
     31 H29         2.6890    2.3680    5.4440 hn        1 UI2      0.491400
     32 H301        5.6890    0.2350    4.1540 hn        1 UI2      0.478467
     33 H302        5.5800    0.5010    5.8080 hn        1 UI2      0.478467
     34 H172       -1.5900   -1.7760    3.3500 hn        1 UI2      0.478800
     35 H303        4.8390   -0.8370    5.1190 hn        1 UI2      0.478467
@<TRIPOS>BOND
     1    1    2 ar  
     2    1    6 ar  
     3    1   21 1   
     4    2    3 ar  
     5    2   22 1   
     6    3    4 ar  
     7    3    7 ar  
     8    4    5 ar  
     9    4   10 ar  
    10    5    6 ar  
    11    5   11 1   
    12    6   23 1   
    13    7    8 ar  
    14    7   24 1   
    15    8    9 ar  
    16    8   25 1   
    17    9   10 ar  
    18    9   18 1   
    19   10   26 1   
    20   11   12 1   
    21   11   27 1   
    22   11   34 1   
    23   12   13 ar  
    24   12   17 ar  
    25   13   14 ar  
    26   14   15 ar  
    27   14   28 1   
    28   15   16 ar  
    29   15   29 1   
    30   16   17 ar  
    31   16   30 1   
    32   18   19 2   
    33   18   20 1   
    34   19   31 1   
    35   20   32 1   
    36   20   33 1   
    37   20   35 1   
@<TRIPOS>SUBSTRUCTURE
     1 UI2         1 TEMP              0 ****  ****    0 ROOT
