@<TRIPOS>MOLECULE
UI2
   34    36     1     0     0
SMALL
bcc


@<TRIPOS>ATOM
      1 C1          0.1570   -0.9380   -0.4290 ca        1 UI2     -0.077000
      2 C2          1.4320   -0.4400   -0.3030 ca        1 UI2     -0.127000
      3 C3          1.9350   -0.0900    0.9760 ca        1 UI2     -0.005000
      4 C4          1.1220   -0.2530    2.1300 ca        1 UI2     -0.028000
      5 C5         -0.2180   -0.7540    1.9730 ca        1 UI2      0.139600
      6 C6         -0.6710   -1.0910    0.7010 ca        1 UI2     -0.142000
      7 C10         3.2570    0.4250    1.1170 ca        1 UI2     -0.087000
      8 C11         3.7610    0.7460    2.3490 ca        1 UI2     -0.136000
      9 C12         2.9540    0.5610    3.5030 ca        1 UI2     -0.290900
     10 C13         1.6660    0.0760    3.4010 ca        1 UI2      0.004000
     11 N17        -1.0330   -0.9680    3.1200 nu        1 UI2     -0.702300
     12 C18        -1.7600    0.1500    3.6390 ca        1 UI2      0.827900
     13 N19        -3.0150   -0.1200    4.1710 nb        1 UI2     -0.731500
     14 C20        -3.6600    0.9130    4.7330 ca        1 UI2      0.456200
     15 C21        -3.1280    2.2160    4.7800 ca        1 UI2     -0.380600
     16 C22        -1.8580    2.3930    4.2100 ca        1 UI2      0.456200
     17 N23        -1.1540    1.3950    3.6440 nb        1 UI2     -0.731500
     18 C28         3.4840    0.9380    4.8260 ce        1 UI2      0.600800
     19 N29         3.1290    1.8290    5.6690 n2        1 UI2     -0.720100
     20 N30         4.6620    0.0760    5.2130 nz        1 UI2     -0.826600
     21 H1         -0.2400   -1.2150   -1.4200 ha        1 UI2      0.159000
     22 H2          2.0770   -0.3060   -1.1860 ha        1 UI2      0.154000
     23 H6         -1.6910   -1.4850    0.5520 ha        1 UI2      0.157000
     24 H10         3.8640    0.5670    0.2070 ha        1 UI2      0.159000
     25 H11         4.7700    1.1750    2.4450 ha        1 UI2      0.131000
     26 H13         1.0500   -0.0620    4.3060 ha        1 UI2      0.165000
     27 H17        -1.6130   -1.7850    3.0210 hn        1 UI2      0.434800
     28 H20        -4.6570    0.6800    5.1550 h4        1 UI2      0.038100
     29 H21        -3.6820    3.0480    5.2300 ha        1 UI2      0.170000
     30 H22        -1.3700    3.3860    4.1920 h4        1 UI2      0.038100
     31 H29         2.3560    2.4180    5.4330 hn        1 UI2      0.490400
     32 H301        5.1170    0.4000    6.0750 hn        1 UI2      0.468133
     33 H302        5.3340    0.0940    4.4390 hn        1 UI2      0.468133
     34 H303        4.3250   -0.8830    5.3440 hn        1 UI2      0.468133
@<TRIPOS>BOND
     1    1    2 ar  
     2    1    6 ar  
     3    1   21 1   
     4    2    3 ar  
     5    2   22 1   
     6    3    4 ar  
     7    3    7 ar  
     8    4    5 ar  
     9    4   10 ar  
    10    5    6 ar  
    11    5   11 1   
    12    6   23 1   
    13    7    8 ar  
    14    7   24 1   
    15    8    9 ar  
    16    8   25 1   
    17    9   10 ar  
    18    9   18 1   
    19   10   26 1   
    20   11   12 1   
    21   11   27 1   
    22   12   13 ar  
    23   12   17 ar  
    24   13   14 ar  
    25   14   15 ar  
    26   14   28 1   
    27   15   16 ar  
    28   15   29 1   
    29   16   17 ar  
    30   16   30 1   
    31   18   19 2   
    32   18   20 1   
    33   19   31 1   
    34   20   32 1   
    35   20   33 1   
    36   20   34 1   
@<TRIPOS>SUBSTRUCTURE
     1 UI2         1 TEMP              0 ****  ****    0 ROOT
