@<TRIPOS>MOLECULE
UI2
   33    35     1     0     0
SMALL
bcc


@<TRIPOS>ATOM
      1 C1         -0.3730   -3.4100    0.3540 ca        1 UI2     -0.111000
      2 C2          0.9350   -3.2870   -0.0380 ca        1 UI2     -0.129000
      3 C3          1.5450   -2.0060   -0.1020 ca        1 UI2     -0.020000
      4 C4          0.7990   -0.8460    0.2350 ca        1 UI2     -0.056000
      5 C5         -0.5690   -1.0040    0.6690 ca        1 UI2      0.137600
      6 C6         -1.1290   -2.2750    0.7170 ca        1 UI2     -0.103000
      7 C10         2.9010   -1.8730   -0.5110 ca        1 UI2     -0.120000
      8 C11         3.4950   -0.6390   -0.5950 ca        1 UI2     -0.102000
      9 C12         2.7480    0.5230   -0.2790 ca        1 UI2     -0.189900
     10 C13         1.4340    0.4220    0.1220 ca        1 UI2     -0.107000
     11 N17        -1.3060    0.1160    1.1200 nh        1 UI2     -0.714300
     12 C18        -2.4720    0.5510    0.4570 ca        1 UI2      0.864900
     13 N19        -2.8840    1.8550    0.7300 nb        1 UI2     -0.738500
     14 C20        -4.0400    2.2410    0.1710 ca        1 UI2      0.461700
     15 C21        -4.8120    1.4110   -0.6620 ca        1 UI2     -0.414600
     16 C22        -4.3070    0.1200   -0.8940 ca        1 UI2      0.461700
     17 N23        -3.1610   -0.3340   -0.3630 nb        1 UI2     -0.738500
     18 C28         3.3850    1.8730   -0.4100 ce        1 UI2      0.636800
     19 N29         2.8840    2.8530   -1.1030 n2        1 UI2     -0.833100
     20 N30         4.6360    1.9880    0.2340 nh        1 UI2     -0.892800
     21 H1         -0.8560   -4.3990    0.3990 ha        1 UI2      0.138000
     22 H2          1.5300   -4.1700   -0.3130 ha        1 UI2      0.137000
     23 H6         -2.1730   -2.4200    1.0380 ha        1 UI2      0.156000
     24 H10         3.4630   -2.7850   -0.7640 ha        1 UI2      0.139000
     25 H11         4.5440   -0.5360   -0.9140 ha        1 UI2      0.152000
     26 H13         0.8750    1.3450    0.3420 ha        1 UI2      0.136000
     27 H17        -0.7590    0.8450    1.5310 hn        1 UI2      0.442800
     28 H20        -4.3560    3.2760    0.4020 h4        1 UI2      0.028100
     29 H21        -5.7510    1.7530   -1.1070 ha        1 UI2      0.156000
     30 H22        -4.8420   -0.5980   -1.5430 h4        1 UI2      0.028100
     31 H29         2.0490    2.6210   -1.5960 hn        1 UI2      0.396400
     32 H301        4.9990    2.9140    0.3000 hn        1 UI2      0.398800
     33 H302        4.6840    1.4800    1.0890 hn        1 UI2      0.398800
@<TRIPOS>BOND
     1    1    2 ar  
     2    1    6 ar  
     3    1   21 1   
     4    2    3 ar  
     5    2   22 1   
     6    3    4 ar  
     7    3    7 ar  
     8    4    5 ar  
     9    4   10 ar  
    10    5    6 ar  
    11    5   11 1   
    12    6   23 1   
    13    7    8 ar  
    14    7   24 1   
    15    8    9 ar  
    16    8   25 1   
    17    9   10 ar  
    18    9   18 1   
    19   10   26 1   
    20   11   12 1   
    21   11   27 1   
    22   12   13 ar  
    23   12   17 ar  
    24   13   14 ar  
    25   14   15 ar  
    26   14   28 1   
    27   15   16 ar  
    28   15   29 1   
    29   16   17 ar  
    30   16   30 1   
    31   18   19 2   
    32   18   20 1   
    33   19   31 1   
    34   20   32 1   
    35   20   33 1   
@<TRIPOS>SUBSTRUCTURE
     1 UI2         1 TEMP              0 ****  ****    0 ROOT
