@<TRIPOS>MOLECULE
UI3
   41    43     1     0     0
SMALL
bcc


@<TRIPOS>ATOM
      1 C1          0.4020    0.3990   -0.5680 ca        1 UI3     -0.162000
      2 C2          1.7290    0.4230   -0.2280 ca        1 UI3     -0.072000
      3 C3          2.1370    0.3010    1.1300 ca        1 UI3     -0.045000
      4 C4          1.1440    0.1680    2.1320 ca        1 UI3      0.003000
      5 C5         -0.2400    0.0830    1.7720 ca        1 UI3     -0.073000
      6 C6         -0.5980    0.2230    0.4330 ca        1 UI3      0.184100
      7 C9          3.5060    0.3060    1.5080 ca        1 UI3     -0.069000
      8 C10         3.8810    0.2010    2.8270 ca        1 UI3     -0.130000
      9 C11         2.8860    0.1190    3.8370 ca        1 UI3     -0.222900
     10 C12         1.5510    0.1220    3.4930 ca        1 UI3     -0.094000
     11 C16         3.3120    0.0800    5.2540 ce        1 UI3      0.588800
     12 N17         4.2890    0.6680    5.8370 n2        1 UI3     -0.725100
     13 N18         2.4500   -0.7920    6.1220 n4        1 UI3     -0.813600
     14 O19        -1.9410    0.1700    0.1550 os        1 UI3     -0.309900
     15 C20        -2.3240    0.2400   -1.2190 c3        1 UI3      0.105700
     16 C24        -1.1700   -0.1800    2.8420 cc        1 UI3     -0.148300
     17 C25        -1.1300   -1.2900    3.6840 cd        1 UI3     -0.129300
     18 N26        -1.9420   -0.9980    4.8100 na        1 UI3     -0.098100
     19 N27        -2.5400    0.2090    4.6510 nd        1 UI3     -0.494800
     20 C28        -2.1300    0.7270    3.4830 cc        1 UI3      0.376200
     21 S34        -1.5900   -1.7080    6.2940 s6        1 UI3      1.487000
     22 O35        -0.2520   -1.2970    6.5890 o         1 UI3     -0.679300
     23 O36        -1.7330   -3.0900    6.2130 o         1 UI3     -0.679300
     24 C37        -2.6640   -1.0170    7.3600 c3        1 UI3     -0.383300
     25 H1          0.1020    0.5070   -1.6230 ha        1 UI3      0.162000
     26 H2          2.5030    0.5390   -1.0040 ha        1 UI3      0.157000
     27 H9          4.2720    0.3920    0.7190 ha        1 UI3      0.160000
     28 H10         4.9470    0.1800    3.1000 ha        1 UI3      0.147000
     29 H12         0.7670    0.1180    4.2690 ha        1 UI3      0.138000
     30 H17         4.8670    1.2680    5.2850 hn        1 UI3      0.476400
     31 H181        2.9320   -1.0740    6.9820 hn        1 UI3      0.478800
     32 H182        1.5860   -0.2850    6.3810 hn        1 UI3      0.478800
     33 H201       -1.8790   -0.6060   -1.7970 h1        1 UI3      0.060367
     34 H202       -3.4390    0.1440   -1.1720 h1        1 UI3      0.060367
     35 H203       -2.0300    1.2250   -1.6570 h1        1 UI3      0.060367
     36 H25        -0.6430   -2.2610    3.5670 h4        1 UI3      0.199000
     37 H28        -2.4900    1.6830    3.0930 h4        1 UI3      0.071100
     38 H371       -2.6430   -1.5360    8.3570 h1        1 UI3      0.153367
     39 H372       -3.7390   -1.0630    7.0320 h1        1 UI3      0.153367
     40 H373       -2.4750    0.0680    7.5750 h1        1 UI3      0.153367
     41 H183        2.1730   -1.6250    5.5940 hn        1 UI3      0.478800
@<TRIPOS>BOND
     1    1    2 ar  
     2    1    6 ar  
     3    1   25 1   
     4    2    3 ar  
     5    2   26 1   
     6    3    4 ar  
     7    3    7 ar  
     8    4    5 ar  
     9    4   10 ar  
    10    5    6 ar  
    11    5   16 1   
    12    6   14 1   
    13    7    8 ar  
    14    7   27 1   
    15    8    9 ar  
    16    8   28 1   
    17    9   10 ar  
    18    9   11 1   
    19   10   29 1   
    20   11   12 2   
    21   11   13 1   
    22   12   30 1   
    23   13   31 1   
    24   13   32 1   
    25   13   41 1   
    26   14   15 1   
    27   15   33 1   
    28   15   34 1   
    29   15   35 1   
    30   16   17 2   
    31   16   20 1   
    32   17   18 1   
    33   17   36 1   
    34   18   19 1   
    35   18   21 1   
    36   19   20 2   
    37   20   37 1   
    38   21   22 2   
    39   21   23 2   
    40   21   24 1   
    41   24   38 1   
    42   24   39 1   
    43   24   40 1   
@<TRIPOS>SUBSTRUCTURE
     1 UI3         1 TEMP              0 ****  ****    0 ROOT
