@<TRIPOS>MOLECULE
UI3
   40    42     1     0     0
SMALL
bcc


@<TRIPOS>ATOM
      1 C1         -1.8540    3.3890    0.3450 ca        1 UI3     -0.177000
      2 C2         -3.0750    2.7760    0.2310 ca        1 UI3     -0.086000
      3 C3         -3.1670    1.3710    0.0510 ca        1 UI3     -0.056000
      4 C4         -1.9820    0.5940   -0.0250 ca        1 UI3     -0.003000
      5 C5         -0.7070    1.2380    0.0390 ca        1 UI3     -0.024000
      6 C6         -0.6670    2.6170    0.2580 ca        1 UI3      0.127100
      7 C9         -4.4340    0.7330   -0.0480 ca        1 UI3     -0.115000
      8 C10        -4.5280   -0.6280   -0.1890 ca        1 UI3     -0.117000
      9 C11        -3.3470   -1.4130   -0.2260 ca        1 UI3     -0.132900
     10 C12        -2.1070   -0.8200   -0.1470 ca        1 UI3     -0.085000
     11 C16        -3.4590   -2.9010   -0.3640 ce        1 UI3      0.648800
     12 N17        -2.8030   -3.4810   -1.3230 n2        1 UI3     -0.825100
     13 N18        -4.3500   -3.5020    0.5530 nh        1 UI3     -0.955800
     14 O19         0.5890    3.1780    0.4120 os        1 UI3     -0.330900
     15 C20         0.6730    4.5900    0.2560 c3        1 UI3      0.113700
     16 C24         0.5160    0.4930   -0.1190 cc        1 UI3     -0.191300
     17 C25         1.6980    0.6180    0.6140 cd        1 UI3     -0.060300
     18 N26         2.6350   -0.2850    0.0650 na        1 UI3     -0.105100
     19 N27         2.0890   -0.9510   -0.9810 nd        1 UI3     -0.508800
     20 C28         0.8270   -0.5210   -1.1320 cc        1 UI3      0.355200
     21 S34         4.2020   -0.5800    0.6090 s6        1 UI3      1.476000
     22 O35         4.3260   -1.8890    1.0750 o         1 UI3     -0.634300
     23 O36         4.5250    0.4420    1.5160 o         1 UI3     -0.634300
     24 C37         5.1160   -0.3920   -0.7950 c3        1 UI3     -0.371300
     25 H1         -1.7910    4.4760    0.5030 ha        1 UI3      0.141000
     26 H2         -4.0030    3.3660    0.2850 ha        1 UI3      0.138000
     27 H9         -5.3410    1.3570   -0.0110 ha        1 UI3      0.135000
     28 H10        -5.5090   -1.1200   -0.2810 ha        1 UI3      0.147000
     29 H12        -1.1960   -1.4390   -0.1690 ha        1 UI3      0.157000
     30 H17        -2.8940   -4.4720   -1.3920 hn        1 UI3      0.384400
     31 H181       -4.2230   -4.4720    0.7250 hn        1 UI3      0.398800
     32 H182       -4.5470   -2.9660    1.3660 hn        1 UI3      0.398800
     33 H201        1.7760    4.7830    0.2300 h1        1 UI3      0.046367
     34 H202        0.1930    4.9210   -0.6960 h1        1 UI3      0.046367
     35 H203        0.2090    5.1050    1.1320 h1        1 UI3      0.046367
     36 H25         1.9550    1.2770    1.4490 h4        1 UI3      0.207000
     37 H28         0.1640   -0.8940   -1.9170 h4        1 UI3      0.061100
     38 H371        5.0270    0.6210   -1.2630 h1        1 UI3      0.128700
     39 H372        6.2060   -0.5380   -0.5780 h1        1 UI3      0.128700
     40 H373        4.8610   -1.1290   -1.5990 h1        1 UI3      0.128700
@<TRIPOS>BOND
     1    1    2 ar  
     2    1    6 ar  
     3    1   25 1   
     4    2    3 ar  
     5    2   26 1   
     6    3    4 ar  
     7    3    7 ar  
     8    4    5 ar  
     9    4   10 ar  
    10    5    6 ar  
    11    5   16 1   
    12    6   14 1   
    13    7    8 ar  
    14    7   27 1   
    15    8    9 ar  
    16    8   28 1   
    17    9   10 ar  
    18    9   11 1   
    19   10   29 1   
    20   11   12 2   
    21   11   13 1   
    22   12   30 1   
    23   13   31 1   
    24   13   32 1   
    25   14   15 1   
    26   15   33 1   
    27   15   34 1   
    28   15   35 1   
    29   16   17 2   
    30   16   20 1   
    31   17   18 1   
    32   17   36 1   
    33   18   19 1   
    34   18   21 1   
    35   19   20 2   
    36   20   37 1   
    37   21   22 2   
    38   21   23 2   
    39   21   24 1   
    40   24   38 1   
    41   24   39 1   
    42   24   40 1   
@<TRIPOS>SUBSTRUCTURE
     1 UI3         1 TEMP              0 ****  ****    0 ROOT
