@<TRIPOS>MOLECULE
UI3
   41    43     1     0     0
SMALL
bcc


@<TRIPOS>ATOM
      1 C1          0.3940    0.4300   -0.5640 ca        1 UI3     -0.162000
      2 C2          1.7220    0.4330   -0.2290 ca        1 UI3     -0.072000
      3 C3          2.1340    0.2950    1.1260 ca        1 UI3     -0.045000
      4 C4          1.1440    0.1660    2.1310 ca        1 UI3      0.003000
      5 C5         -0.2420    0.1020    1.7760 ca        1 UI3     -0.073000
      6 C6         -0.6050    0.2570    0.4410 ca        1 UI3      0.184100
      7 C9          3.5050    0.2790    1.4980 ca        1 UI3     -0.069000
      8 C10         3.8840    0.1580    2.8150 ca        1 UI3     -0.130000
      9 C11         2.8930    0.0810    3.8280 ca        1 UI3     -0.222900
     10 C12         1.5560    0.1030    3.4900 ca        1 UI3     -0.094000
     11 C16         3.3230    0.0240    5.2430 ce        1 UI3      0.588800
     12 N17         4.3110    0.5950    5.8270 n2        1 UI3     -0.725100
     13 N18         2.4550   -0.8430    6.1070 nz        1 UI3     -0.813600
     14 O19        -1.9490    0.2240    0.1680 os        1 UI3     -0.309900
     15 C20        -2.3370    0.3110   -1.2040 c3        1 UI3      0.105700
     16 C24        -1.1710   -0.1580    2.8490 cc        1 UI3     -0.148300
     17 C25        -1.1420   -1.2750    3.6810 cd        1 UI3     -0.129300
     18 N26        -1.9460   -0.9820    4.8130 na        1 UI3     -0.098100
     19 N27        -2.5290    0.2330    4.6670 nd        1 UI3     -0.494800
     20 C28        -2.1160    0.7560    3.5010 cc        1 UI3      0.376200
     21 S34        -1.5960   -1.7080    6.2900 s6        1 UI3      1.487000
     22 O35        -0.2520   -1.3180    6.5820 o         1 UI3     -0.679300
     23 O36        -1.7580   -3.0880    6.1970 o         1 UI3     -0.679300
     24 C37        -2.6570   -1.0130    7.3660 c3        1 UI3     -0.383300
     25 H1          0.0910    0.5500   -1.6160 ha        1 UI3      0.162000
     26 H2          2.4950    0.5460   -1.0080 ha        1 UI3      0.157000
     27 H9          4.2690    0.3620    0.7070 ha        1 UI3      0.160000
     28 H10         4.9510    0.1220    3.0830 ha        1 UI3      0.147000
     29 H12         0.7760    0.1040    4.2690 ha        1 UI3      0.138000
     30 H17         4.8940    1.1920    5.2770 hn        1 UI3      0.476400
     31 H181        2.9370   -1.1390    6.9630 hn        1 UI3      0.478800
     32 H182        1.5980   -0.3280    6.3740 hn        1 UI3      0.478800
     33 H201       -1.9050   -0.5360   -1.7900 h1        1 UI3      0.060367
     34 H202       -3.4530    0.2290   -1.1530 h1        1 UI3      0.060367
     35 H203       -2.0320    1.2950   -1.6350 h1        1 UI3      0.060367
     36 H25        -0.6680   -2.2520    3.5540 h4        1 UI3      0.199000
     37 H28        -2.4670    1.7200    3.1200 h4        1 UI3      0.071100
     38 H371       -2.6380   -1.5410    8.3590 h1        1 UI3      0.153367
     39 H372       -3.7340   -1.0420    7.0420 h1        1 UI3      0.153367
     40 H373       -2.4530    0.0670    7.5900 h1        1 UI3      0.153367
     41 H183        2.1640   -1.6690    5.5740 hn        1 UI3      0.478800
@<TRIPOS>BOND
     1    1    2 ar  
     2    1    6 ar  
     3    1   25 1   
     4    2    3 ar  
     5    2   26 1   
     6    3    4 ar  
     7    3    7 ar  
     8    4    5 ar  
     9    4   10 ar  
    10    5    6 ar  
    11    5   16 1   
    12    6   14 1   
    13    7    8 ar  
    14    7   27 1   
    15    8    9 ar  
    16    8   28 1   
    17    9   10 ar  
    18    9   11 1   
    19   10   29 1   
    20   11   12 2   
    21   11   13 1   
    22   12   30 1   
    23   13   31 1   
    24   13   32 1   
    25   13   41 1   
    26   14   15 1   
    27   15   33 1   
    28   15   34 1   
    29   15   35 1   
    30   16   17 2   
    31   16   20 1   
    32   17   18 1   
    33   17   36 1   
    34   18   19 1   
    35   18   21 1   
    36   19   20 2   
    37   20   37 1   
    38   21   22 2   
    39   21   23 2   
    40   21   24 1   
    41   24   38 1   
    42   24   39 1   
    43   24   40 1   
@<TRIPOS>SUBSTRUCTURE
     1 UI3         1 TEMP              0 ****  ****    0 ROOT
