@<TRIPOS>MOLECULE
UI3
   41    43     1     0     0
SMALL
bcc


@<TRIPOS>ATOM
      1 C1          0.4110    0.3690   -0.5730 ca        1 UI3     -0.162000
      2 C2          1.7360    0.4100   -0.2270 ca        1 UI3     -0.072000
      3 C3          2.1400    0.3050    1.1330 ca        1 UI3     -0.045000
      4 C4          1.1440    0.1690    2.1320 ca        1 UI3      0.003000
      5 C5         -0.2370    0.0650    1.7670 ca        1 UI3     -0.073000
      6 C6         -0.5920    0.1890    0.4260 ca        1 UI3      0.184100
      7 C9          3.5080    0.3280    1.5170 ca        1 UI3     -0.069000
      8 C10         3.8780    0.2380    2.8380 ca        1 UI3     -0.130000
      9 C11         2.8800    0.1530    3.8450 ca        1 UI3     -0.222900
     10 C12         1.5460    0.1380    3.4950 ca        1 UI3     -0.094000
     11 C16         3.3000    0.1300    5.2630 ce        1 UI3      0.588800
     12 N17         4.2690    0.7340    5.8460 n2        1 UI3     -0.725100
     13 N18         2.4450   -0.7440    6.1350 n4        1 UI3     -0.813600
     14 O19        -1.9320    0.1190    0.1430 os        1 UI3     -0.309900
     15 C20        -2.3100    0.1740   -1.2330 c3        1 UI3      0.105700
     16 C24        -1.1680   -0.2000    2.8360 cc        1 UI3     -0.148300
     17 C25        -1.1190   -1.3020    3.6870 cd        1 UI3     -0.129300
     18 N26        -1.9400   -1.0100    4.8080 na        1 UI3     -0.098100
     19 N27        -2.5510    0.1880    4.6360 nd        1 UI3     -0.494800
     20 C28        -2.1410    0.7010    3.4650 cc        1 UI3      0.376200
     21 S34        -1.5850   -1.7030    6.2990 s6        1 UI3      1.487000
     22 O35        -0.2530   -1.2750    6.5960 o         1 UI3     -0.679300
     23 O36        -1.7130   -3.0880    6.2290 o         1 UI3     -0.679300
     24 C37        -2.6720   -1.0170    7.3550 c3        1 UI3     -0.383300
     25 H1          0.1140    0.4640   -1.6290 ha        1 UI3      0.162000
     26 H2          2.5120    0.5290   -1.0010 ha        1 UI3      0.157000
     27 H9          4.2760    0.4150    0.7300 ha        1 UI3      0.160000
     28 H10         4.9430    0.2310    3.1160 ha        1 UI3      0.147000
     29 H12         0.7600    0.1320    4.2680 ha        1 UI3      0.138000
     30 H17         4.8420    1.3360    5.2910 hn        1 UI3      0.476400
     31 H181        2.9260   -1.0140    7.0000 hn        1 UI3      0.478800
     32 H182        2.1790   -1.5850    5.6130 hn        1 UI3      0.478800
     33 H201       -2.0260    1.1580   -1.6780 h1        1 UI3      0.060367
     34 H202       -1.8530   -0.6720   -1.8020 h1        1 UI3      0.060367
     35 H203       -3.4250    0.0660   -1.1900 h1        1 UI3      0.060367
     36 H25        -0.6200   -2.2690    3.5810 h4        1 UI3      0.199000
     37 H28        -2.5110    1.6500    3.0660 h4        1 UI3      0.071100
     38 H371       -2.6490   -1.5270    8.3560 h1        1 UI3      0.153367
     39 H372       -2.4960    0.0720    7.5620 h1        1 UI3      0.153367
     40 H373       -3.7450   -1.0770    7.0230 h1        1 UI3      0.153367
     41 H183        1.5740   -0.2440    6.3860 hn        1 UI3      0.478800
@<TRIPOS>BOND
     1    1    2 ar  
     2    1    6 ar  
     3    1   25 1   
     4    2    3 ar  
     5    2   26 1   
     6    3    4 ar  
     7    3    7 ar  
     8    4    5 ar  
     9    4   10 ar  
    10    5    6 ar  
    11    5   16 1   
    12    6   14 1   
    13    7    8 ar  
    14    7   27 1   
    15    8    9 ar  
    16    8   28 1   
    17    9   10 ar  
    18    9   11 1   
    19   10   29 1   
    20   11   12 2   
    21   11   13 1   
    22   12   30 1   
    23   13   31 1   
    24   13   32 1   
    25   13   41 1   
    26   14   15 1   
    27   15   33 1   
    28   15   34 1   
    29   15   35 1   
    30   16   17 2   
    31   16   20 1   
    32   17   18 1   
    33   17   36 1   
    34   18   19 1   
    35   18   21 1   
    36   19   20 2   
    37   20   37 1   
    38   21   22 2   
    39   21   23 2   
    40   21   24 1   
    41   24   38 1   
    42   24   39 1   
    43   24   40 1   
@<TRIPOS>SUBSTRUCTURE
     1 UI3         1 TEMP              0 ****  ****    0 ROOT
