@<TRIPOS>MOLECULE
UIB
   65    64     1     0     0
SMALL
bcc


@<TRIPOS>ATOM
      1 N1         -0.8310    1.2370    6.9470 n3        1 UIB     -0.398000
      2 C3         -1.4040    0.7510    5.7340 c2        1 UIB      0.127000
      3 N2         -2.6270    0.1860    5.7450 n1        1 UIB     -0.292000
      4 C4         -0.6230    0.8800    4.4030 c2        1 UIB     -0.053000
      5 C5          0.4310   -0.0030    4.1140 c2        1 UIB     -0.110000
      6 C6          1.1490    0.1340    2.9240 c1        1 UIB     -0.120000
      7 C7          0.8170    1.1580    2.0160 c1        1 UIB     -0.063000
      8 C10         1.7340    1.4500    0.8280 c3        1 UIB      0.043000
      9 C22         1.8300    0.3260    0.0040 c3        1 UIB     -0.131000
     10 C16         1.9520    0.8510   -1.3620 c3        1 UIB     -0.114000
     11 C15         1.6250    2.4090   -1.2640 c3        1 UIB      0.045000
     12 C13         2.9250    3.2470   -1.4380 c3        1 UIB     -0.221000
     13 C14         0.5840    2.8050   -2.3440 c3        1 UIB     -0.221000
     14 N11         1.1230    2.5830   -0.0520 n3        1 UIB     -0.259000
     15 C12         1.5240    3.8560    0.4560 c3        1 UIB     -0.113000
     16 C17         0.9330    0.1750   -2.2050 c3        1 UIB      0.039000
     17 N19        -0.0960   -0.3900   -1.2770 n         1 UIB     -0.340000
     18 C23        -1.5330   -0.4840   -1.5320 c3        1 UIB      0.035000
     19 C24        -2.0150   -1.9590   -1.2710 c2        1 UIB     -0.111000
     20 C32        -2.5300   -2.3140   -0.0280 c2        1 UIB     -0.112000
     21 C31        -2.9720   -3.6070    0.1960 c1        1 UIB     -0.114000
     22 C30        -2.8990   -4.5610   -0.8270 c1        1 UIB      0.007000
     23 C26        -2.3930   -4.2130   -2.0470 c1        1 UIB      0.007000
     24 C25        -1.9430   -2.8910   -2.2750 c1        1 UIB     -0.110000
     25 O27        -2.5310   -5.3370   -2.9200 os        1 UIB     -0.219000
     26 C28        -3.0630   -6.3940   -2.1810 c3        1 UIB      0.099000
     27 O29        -3.3080   -5.9300   -0.8900 os        1 UIB     -0.219000
     28 C20         0.5700   -0.5180    0.0550 c2        1 UIB      0.321000
     29 O21         0.2620   -1.3310    0.9580 o         1 UIB     -0.345000
     30 C18         1.5570   -0.9080   -2.9880 c3        1 UIB     -0.182000
     31 C41         1.6940   -0.4730   -4.4260 c3        1 UIB     -0.211000
     32 C8         -0.2210    2.0230    2.3060 c1        1 UIB     -0.105000
     33 C9         -0.9480    1.8820    3.5130 c1        1 UIB     -0.096000
     34 HN11       -0.2490    1.9610    6.9290 hn        1 UIB      0.191500
     35 HN12       -1.0320    0.8310    7.7430 hn        1 UIB      0.191500
     36 HN2        -3.0960    0.1120    6.5410 DU        1 UIB      0.136000
     37 H5          0.6660   -0.7280    4.7580 ha        1 UIB      0.142000
     38 H6          1.8850   -0.4820    2.7230 ha        1 UIB      0.131000
     39 H10         2.6270    1.7140    1.1480 h1        1 UIB      0.074000
     40 H22         2.6500   -0.2310    0.2500 hc        1 UIB      0.126000
     41 H16         2.8560    0.7020   -1.7170 hc        1 UIB      0.109000
     42 H131        3.5370    3.0450   -0.7250 hc        1 UIB      0.081333
     43 H132        3.3420    3.0250   -2.3010 hc        1 UIB      0.081333
     44 H133        2.6990    4.2280   -1.4160 hc        1 UIB      0.081333
     45 H141        0.4250    3.7830   -2.3060 hc        1 UIB      0.081333
     46 H142        0.9310    2.5570   -3.2500 hc        1 UIB      0.081333
     47 H143       -0.2220    2.3500   -2.1830 hc        1 UIB      0.081333
     48 H121        0.8870    4.1460    1.1620 h1        1 UIB      0.074333
     49 H122        1.5250    4.5010   -0.2600 h1        1 UIB      0.074333
     50 H123        2.4190    3.7880    0.8340 h1        1 UIB      0.074333
     51 H17         0.5110    0.8330   -2.8150 h1        1 UIB      0.104000
     52 H231       -1.7200   -0.2350   -2.4820 h1        1 UIB      0.105500
     53 H232       -2.0090    0.1230   -0.9380 h1        1 UIB      0.105500
     54 H32        -2.6220   -1.6420    0.6700 ha        1 UIB      0.170000
     55 H31        -3.3300   -3.8520    1.0630 ha        1 UIB      0.157000
     56 H25        -1.5840   -2.6410   -3.1510 ha        1 UIB      0.151000
     57 H281       -2.4050   -7.1270   -2.1440 h2        1 UIB      0.110000
     58 H282       -3.9180   -6.6800   -2.5900 h2        1 UIB      0.110000
     59 H181        2.4130   -1.1020   -2.6330 hc        1 UIB      0.093500
     60 H182        0.9990   -1.7040   -2.9440 hc        1 UIB      0.093500
     61 H411        0.8090   -0.5290   -4.8730 hc        1 UIB      0.075333
     62 H412        2.3430   -1.0710   -4.8960 hc        1 UIB      0.075333
     63 H413        2.0210    0.4620   -4.4600 hc        1 UIB      0.075333
     64 H8         -0.4510    2.7290    1.6810 ha        1 UIB      0.149000
     65 H9         -1.6780    2.4920    3.7140 ha        1 UIB      0.146000
@<TRIPOS>BOND
     1    1    2 1   
     2    1   34 1   
     3    1   35 1   
     4    2    3 1   
     5    2    4 1   
     6    4    5 1   
     7    4   33 1   
     8    5    6 1   
     9    5   37 1   
    10    6   38 1   
    11    7    8 1   
    12    7   32 1   
    13    8    9 1   
    14    8   14 1   
    15    8   39 1   
    16    9   10 1   
    17    9   28 1   
    18    9   40 1   
    19   10   11 1   
    20   10   16 1   
    21   10   41 1   
    22   11   12 1   
    23   11   13 1   
    24   11   14 1   
    25   12   42 1   
    26   12   43 1   
    27   12   44 1   
    28   13   45 1   
    29   13   46 1   
    30   13   47 1   
    31   14   15 1   
    32   15   48 1   
    33   15   49 1   
    34   15   50 1   
    35   16   17 1   
    36   16   30 1   
    37   16   51 1   
    38   17   18 1   
    39   17   28 1   
    40   18   19 1   
    41   18   52 1   
    42   18   53 1   
    43   19   20 1   
    44   19   24 1   
    45   20   21 1   
    46   20   54 1   
    47   21   55 1   
    48   22   23 1   
    49   22   27 1   
    50   23   25 1   
    51   24   56 1   
    52   25   26 1   
    53   26   27 1   
    54   26   57 1   
    55   26   58 1   
    56   28   29 1   
    57   30   31 1   
    58   30   59 1   
    59   30   60 1   
    60   31   61 1   
    61   31   62 1   
    62   31   63 1   
    63   32   64 1   
    64   33   65 1   
@<TRIPOS>SUBSTRUCTURE
     1 UIB         1 TEMP              0 ****  ****    0 ROOT
