@<TRIPOS>MOLECULE
UIB
   65    69     1     0     0
SMALL
bcc


@<TRIPOS>ATOM
      1 N1         -1.9340    0.9630   -4.9840 nh        1 UIB     -0.958800
      2 C3         -0.8020    0.1480   -5.2050 ce        1 UIB      0.654800
      3 N2         -0.4540   -0.4260   -6.3180 n2        1 UIB     -0.832100
      4 C4          0.0180   -0.1120   -3.9790 ca        1 UIB     -0.137900
      5 C5          1.4090    0.0270   -4.0340 ca        1 UIB     -0.102000
      6 C6          2.1760   -0.2040   -2.8940 ca        1 UIB     -0.118000
      7 C7          1.5660   -0.5770   -1.6890 ca        1 UIB     -0.068300
      8 C10         2.4410   -0.8300   -0.4930 c3        1 UIB      0.242800
      9 C22         2.6800    0.4040    0.4100 c3        1 UIB     -0.140700
     10 C16         2.6410   -0.1290    1.8630 c3        1 UIB     -0.075700
     11 C15         2.4750   -1.6710    1.7450 c3        1 UIB      0.197200
     12 C13         3.8660   -2.2920    1.9840 c3        1 UIB     -0.102600
     13 C14         1.5440   -2.2620    2.8080 c3        1 UIB     -0.102600
     14 N11         1.9400   -1.9060    0.3830 n3        1 UIB     -0.725600
     15 C12         2.1500   -3.2280   -0.1470 c3        1 UIB      0.157100
     16 C17         1.4890    0.6450    2.5700 c3        1 UIB      0.101700
     17 N19         1.0520    1.6750    1.6290 n         1 UIB     -0.461800
     18 C23        -0.1910    2.3730    1.7990 c3        1 UIB      0.140300
     19 C24        -1.4460    1.5550    1.6440 ca        1 UIB     -0.119300
     20 C32        -2.2650    1.3130    2.7460 ca        1 UIB     -0.124000
     21 C31        -3.4730    0.6000    2.6390 ca        1 UIB     -0.118000
     22 C30        -3.8020    0.1440    1.3790 ca        1 UIB      0.060100
     23 C26        -2.9680    0.3840    0.2550 ca        1 UIB      0.049100
     24 C25        -1.7860    1.0860    0.3560 ca        1 UIB     -0.100000
     25 O27        -3.5440   -0.1910   -0.8750 os        1 UIB     -0.335900
     26 C28        -4.7790   -0.8080   -0.4460 c3        1 UIB      0.321200
     27 O29        -4.9180   -0.5820    0.9770 os        1 UIB     -0.334900
     28 C20         1.6300    1.5050    0.3620 c         1 UIB      0.705500
     29 O21         1.3720    2.2330   -0.6080 o         1 UIB     -0.616500
     30 C18         2.0140    1.1820    3.9100 c3        1 UIB     -0.085400
     31 C41         0.9370    1.6780    4.8390 c3        1 UIB     -0.096100
     32 C8          0.1770   -0.7290   -1.6460 ca        1 UIB     -0.118000
     33 C9         -0.5960   -0.4950   -2.7830 ca        1 UIB     -0.102000
     34 HN11       -2.2980    1.4470   -5.7710 hn        1 UIB      0.399800
     35 HN12       -1.9200    1.4960   -4.1450 hn        1 UIB      0.399800
     36 HN2        -1.0200   -0.2260   -7.1150 hn        1 UIB      0.379400
     37 H5          1.8990    0.3110   -4.9780 ha        1 UIB      0.149000
     38 H6          3.2690   -0.0860   -2.9450 ha        1 UIB      0.140500
     39 H10         3.4660   -1.1210   -0.8960 h1        1 UIB      0.033700
     40 H22         3.6700    0.8620    0.1560 hc        1 UIB      0.087700
     41 H16         3.6050    0.1000    2.3840 hc        1 UIB      0.068700
     42 H131        3.8240   -3.4030    1.8850 hc        1 UIB      0.042200
     43 H132        4.6080   -1.8960    1.2490 hc        1 UIB      0.042200
     44 H133        4.2120   -2.0440    3.0150 hc        1 UIB      0.042200
     45 H141        1.6790   -3.3700    2.8600 hc        1 UIB      0.042200
     46 H142        1.8000   -1.8230    3.8020 hc        1 UIB      0.042200
     47 H143        0.4700   -2.0590    2.5810 hc        1 UIB      0.042200
     48 H121        1.5700   -3.3130   -1.1040 h1        1 UIB      0.037700
     49 H122        3.2290   -3.4660   -0.3620 h1        1 UIB      0.037700
     50 H123        1.7570   -3.9770    0.5890 h1        1 UIB      0.037700
     51 H17         0.6130   -0.0330    2.7840 h1        1 UIB      0.065700
     52 H231       -0.1850    2.8450    2.8230 h1        1 UIB      0.071700
     53 H232       -0.2150    3.2010    1.0280 h1        1 UIB      0.071700
     54 H32        -1.9680    1.6920    3.7370 ha        1 UIB      0.137000
     55 H31        -4.1130    0.4180    3.5100 ha        1 UIB      0.155000
     56 H25        -1.1310    1.2700   -0.5090 ha        1 UIB      0.176000
     57 H281       -4.7110   -1.9080   -0.6270 h2        1 UIB      0.073200
     58 H282       -5.6300   -0.3070   -0.9700 h2        1 UIB      0.073200
     59 H181        2.7660    1.9950    3.7330 hc        1 UIB      0.049200
     60 H182        2.5530    0.3290    4.4070 hc        1 UIB      0.049200
     61 H411        1.2900    1.6170    5.8980 hc        1 UIB      0.036033
     62 H412        0.6810    2.7450    4.6290 hc        1 UIB      0.036033
     63 H413        0.0070    1.0650    4.7440 hc        1 UIB      0.036033
     64 H8         -0.3220   -1.0330   -0.7120 ha        1 UIB      0.140500
     65 H9         -1.6900   -0.6170   -2.7250 ha        1 UIB      0.149000
@<TRIPOS>BOND
     1    1    2 1   
     2    1   34 1   
     3    1   35 1   
     4    2    3 2   
     5    2    4 1   
     6    3   36 1   
     7    4    5 ar  
     8    4   33 ar  
     9    5    6 ar  
    10    5   37 1   
    11    6    7 ar  
    12    6   38 1   
    13    7    8 1   
    14    7   32 ar  
    15    8    9 1   
    16    8   14 1   
    17    8   39 1   
    18    9   10 1   
    19    9   28 1   
    20    9   40 1   
    21   10   11 1   
    22   10   16 1   
    23   10   41 1   
    24   11   12 1   
    25   11   13 1   
    26   11   14 1   
    27   12   42 1   
    28   12   43 1   
    29   12   44 1   
    30   13   45 1   
    31   13   46 1   
    32   13   47 1   
    33   14   15 1   
    34   15   48 1   
    35   15   49 1   
    36   15   50 1   
    37   16   17 1   
    38   16   30 1   
    39   16   51 1   
    40   17   18 1   
    41   17   28 1   
    42   18   19 1   
    43   18   52 1   
    44   18   53 1   
    45   19   20 ar  
    46   19   24 ar  
    47   20   21 ar  
    48   20   54 1   
    49   21   22 ar  
    50   21   55 1   
    51   22   23 ar  
    52   22   27 1   
    53   23   24 ar  
    54   23   25 1   
    55   24   56 1   
    56   25   26 1   
    57   26   27 1   
    58   26   57 1   
    59   26   58 1   
    60   28   29 2   
    61   30   31 1   
    62   30   59 1   
    63   30   60 1   
    64   31   61 1   
    65   31   62 1   
    66   31   63 1   
    67   32   33 ar  
    68   32   64 1   
    69   33   65 1   
@<TRIPOS>SUBSTRUCTURE
     1 UIB         1 TEMP              0 ****  ****    0 ROOT
