@<TRIPOS>MOLECULE
UIB
   66    70     1     0     0
SMALL
bcc


@<TRIPOS>ATOM
      1 N1         -0.5100   -0.6190   -1.4150 n4        1 UIB     -0.890600
      2 C3          0.3920    0.5760   -1.0960 ce        1 UIB      0.633800
      3 N2          0.2340    1.3850   -0.1350 n2        1 UIB     -0.680100
      4 C4          1.4880    0.6130   -2.0890 ca        1 UIB     -0.217900
      5 C5          2.8040    0.3900   -1.6710 ca        1 UIB     -0.088000
      6 C6          3.8130    0.2930   -2.6270 ca        1 UIB     -0.098000
      7 C7          3.5140    0.4080   -3.9920 ca        1 UIB     -0.018300
      8 C10         4.6150    0.1520   -4.9860 c3        1 UIB      0.230800
      9 C22         4.7450   -1.3510   -5.3420 c3        1 UIB     -0.142700
     10 C16         4.8650   -1.4080   -6.8830 c3        1 UIB     -0.077700
     11 C15         5.0080    0.0680   -7.3510 c3        1 UIB      0.199200
     12 C13         6.5070    0.3140   -7.6090 c3        1 UIB     -0.104600
     13 C14         4.2780    0.3500   -8.6670 c3        1 UIB     -0.104600
     14 N11         4.4480    0.8900   -6.2480 n3        1 UIB     -0.733600
     15 C12         4.9230    2.2490   -6.1920 c3        1 UIB      0.153100
     16 C17         3.6000   -2.1690   -7.3800 c3        1 UIB      0.110700
     17 N19         2.9670   -2.7100   -6.1750 n         1 UIB     -0.473800
     18 C23         1.9300   -3.6980   -6.1960 c3        1 UIB      0.151300
     19 C24         0.5240   -3.1680   -6.0710 ca        1 UIB     -0.102300
     20 C32        -0.3410   -3.2100   -7.1640 ca        1 UIB     -0.102000
     21 C31        -1.6840   -2.8010   -7.0720 ca        1 UIB     -0.101000
     22 C30        -2.0980   -2.3460   -5.8360 ca        1 UIB      0.075100
     23 C26        -1.2180   -2.2880   -4.7270 ca        1 UIB      0.014100
     24 C25         0.0960   -2.6960   -4.8110 ca        1 UIB     -0.098000
     25 O27        -1.9170   -1.7870   -3.6200 os        1 UIB     -0.427900
     26 C28        -3.2880   -1.5820   -4.0520 c3        1 UIB      0.328200
     27 O29        -3.3580   -1.8960   -5.4550 os        1 UIB     -0.311900
     28 C20         3.5510   -2.2390   -5.0070 c         1 UIB      0.711500
     29 O21         3.1620   -2.5480   -3.8650 o         1 UIB     -0.662500
     30 C18         3.9850   -3.2050   -8.4460 c3        1 UIB     -0.098400
     31 C41         2.9510   -3.3060   -9.5390 c3        1 UIB     -0.099100
     32 C8          2.2070    0.7230   -4.3900 ca        1 UIB     -0.098000
     33 C9          1.1930    0.8250   -3.4420 ca        1 UIB     -0.088000
     34 HN11       -1.2770   -0.7400   -0.7540 hn        1 UIB      0.461800
     35 HN12       -0.8970   -0.4950   -2.3640 hn        1 UIB      0.461800
     36 HN2        -0.5030    1.3120    0.5310 hn        1 UIB      0.452400
     37 H5          3.0430    0.2820   -0.6020 ha        1 UIB      0.144500
     38 H6          4.8470    0.0970   -2.3020 ha        1 UIB      0.167000
     39 H10         5.5900    0.4550   -4.4850 h1        1 UIB      0.052700
     40 H22         5.6450   -1.7790   -4.8320 hc        1 UIB      0.098700
     41 H16         5.7800   -1.9840   -7.1780 hc        1 UIB      0.081700
     42 H131        7.1080    0.1050   -6.6920 hc        1 UIB      0.048033
     43 H132        6.6860    1.3700   -7.9230 hc        1 UIB      0.048033
     44 H133        6.8560   -0.3580   -8.4300 hc        1 UIB      0.048033
     45 H141        4.4700   -0.4920   -9.3760 hc        1 UIB      0.048033
     46 H142        4.6610    1.2970   -9.1210 hc        1 UIB      0.048033
     47 H143        3.1770    0.4620   -8.5230 hc        1 UIB      0.048033
     48 H121        4.7780    2.7210   -7.1990 h1        1 UIB      0.043367
     49 H122        4.3060    2.8040   -5.4360 h1        1 UIB      0.043367
     50 H123        6.0060    2.3410   -5.9030 h1        1 UIB      0.043367
     51 H17         2.8640   -1.4450   -7.8370 h1        1 UIB      0.071700
     52 H231        2.1040   -4.4020   -5.3270 h1        1 UIB      0.073700
     53 H232        2.0160   -4.2920   -7.1520 h1        1 UIB      0.073700
     54 H32         0.0230   -3.5850   -8.1350 ha        1 UIB      0.152000
     55 H31        -2.3630   -2.8460   -7.9340 ha        1 UIB      0.172000
     56 H25         0.7960   -2.6720   -3.9620 ha        1 UIB      0.166000
     57 H281       -3.9470   -2.2890   -3.4890 h2        1 UIB      0.076700
     58 H282       -3.5420   -0.5020   -3.9160 h2        1 UIB      0.076700
     59 H181        4.1570   -4.2120   -7.9840 hc        1 UIB      0.058700
     60 H182        4.9580   -2.8910   -8.9120 hc        1 UIB      0.058700
     61 H411        3.2590   -4.0790  -10.2840 hc        1 UIB      0.040700
     62 H412        2.8460   -2.3280  -10.0700 hc        1 UIB      0.040700
     63 H413        1.9510   -3.5900   -9.1310 hc        1 UIB      0.040700
     64 H8          1.9700    0.8760   -5.4560 ha        1 UIB      0.167000
     65 H9          0.1720    1.0780   -3.7640 ha        1 UIB      0.144500
     66 H13         0.0630   -1.4700   -1.4260 hn        1 UIB      0.461800
@<TRIPOS>BOND
     1    1    2 1   
     2    1   34 1   
     3    1   35 1   
     4    1   66 1   
     5    2    3 2   
     6    2    4 1   
     7    3   36 1   
     8    4    5 ar  
     9    4   33 ar  
    10    5    6 ar  
    11    5   37 1   
    12    6    7 ar  
    13    6   38 1   
    14    7    8 1   
    15    7   32 ar  
    16    8    9 1   
    17    8   14 1   
    18    8   39 1   
    19    9   10 1   
    20    9   28 1   
    21    9   40 1   
    22   10   11 1   
    23   10   16 1   
    24   10   41 1   
    25   11   12 1   
    26   11   13 1   
    27   11   14 1   
    28   12   42 1   
    29   12   43 1   
    30   12   44 1   
    31   13   45 1   
    32   13   46 1   
    33   13   47 1   
    34   14   15 1   
    35   15   48 1   
    36   15   49 1   
    37   15   50 1   
    38   16   17 1   
    39   16   30 1   
    40   16   51 1   
    41   17   18 1   
    42   17   28 1   
    43   18   19 1   
    44   18   52 1   
    45   18   53 1   
    46   19   20 ar  
    47   19   24 ar  
    48   20   21 ar  
    49   20   54 1   
    50   21   22 ar  
    51   21   55 1   
    52   22   23 ar  
    53   22   27 1   
    54   23   24 ar  
    55   23   25 1   
    56   24   56 1   
    57   25   26 1   
    58   26   27 1   
    59   26   57 1   
    60   26   58 1   
    61   28   29 2   
    62   30   31 1   
    63   30   59 1   
    64   30   60 1   
    65   31   61 1   
    66   31   62 1   
    67   31   63 1   
    68   32   33 ar  
    69   32   64 1   
    70   33   65 1   
@<TRIPOS>SUBSTRUCTURE
     1 UIB         1 TEMP              0 ****  ****    0 ROOT
