@<TRIPOS>MOLECULE
UIB
   66    70     1     0     0
SMALL
bcc


@<TRIPOS>ATOM
      1 N1         -0.5220   -0.5970   -1.4250 nz        1 UIB     -0.890600
      2 C3          0.3920    0.5880   -1.1020 ce        1 UIB      0.633800
      3 N2          0.2400    1.3980   -0.1420 n2        1 UIB     -0.680100
      4 C4          1.4920    0.6120   -2.0910 ca        1 UIB     -0.217900
      5 C5          2.8040    0.3740   -1.6680 ca        1 UIB     -0.088000
      6 C6          3.8160    0.2670   -2.6200 ca        1 UIB     -0.098000
      7 C7          3.5230    0.3850   -3.9860 ca        1 UIB     -0.018300
      8 C10         4.6260    0.1170   -4.9760 c3        1 UIB      0.230800
      9 C22         4.7390   -1.3870   -5.3320 c3        1 UIB     -0.142700
     10 C16         4.8650   -1.4450   -6.8730 c3        1 UIB     -0.077700
     11 C15         5.0270    0.0290   -7.3390 c3        1 UIB      0.199200
     12 C13         6.5290    0.2580   -7.5910 c3        1 UIB     -0.104600
     13 C14         4.3050    0.3200   -8.6580 c3        1 UIB     -0.104600
     14 N11         4.4720    0.8580   -6.2380 n3        1 UIB     -0.733600
     15 C12         4.9620    2.2110   -6.1790 c3        1 UIB      0.153100
     16 C17         3.5930   -2.1920   -7.3740 c3        1 UIB      0.110700
     17 N19         2.9500   -2.7250   -6.1720 n         1 UIB     -0.473800
     18 C23         1.9010   -3.7020   -6.1990 c3        1 UIB      0.151300
     19 C24         0.5010   -3.1560   -6.0780 ca        1 UIB     -0.102300
     20 C32        -0.3610   -3.1870   -7.1750 ca        1 UIB     -0.102000
     21 C31        -1.6990   -2.7620   -7.0880 ca        1 UIB     -0.101000
     22 C30        -2.1130   -2.3040   -5.8530 ca        1 UIB      0.075100
     23 C26        -1.2360   -2.2560   -4.7400 ca        1 UIB      0.014100
     24 C25         0.0730   -2.6790   -4.8190 ca        1 UIB     -0.098000
     25 O27        -1.9340   -1.7480   -3.6360 os        1 UIB     -0.427900
     26 C28        -3.3010   -1.5270   -4.0730 c3        1 UIB      0.328200
     27 O29        -3.3690   -1.8390   -5.4770 os        1 UIB     -0.311900
     28 C20         3.5340   -2.2610   -5.0020 c         1 UIB      0.711500
     29 O21         3.1370   -2.5670   -3.8620 o         1 UIB     -0.662500
     30 C18         3.9700   -3.2310   -8.4400 c3        1 UIB     -0.098400
     31 C41         2.9400   -3.3200   -9.5370 c3        1 UIB     -0.099100
     32 C8          2.2210    0.7150   -4.3890 ca        1 UIB     -0.098000
     33 C9          1.2050    0.8280   -3.4450 ca        1 UIB     -0.088000
     34 HN11        0.0410   -1.4540   -1.4330 hn        1 UIB      0.461800
     35 HN12       -1.2930   -0.7090   -0.7680 hn        1 UIB      0.461800
     36 HN2        -0.5010    1.3340    0.5210 hn        1 UIB      0.452400
     37 H5          3.0380    0.2640   -0.5980 ha        1 UIB      0.144500
     38 H6          4.8460    0.0580   -2.2910 ha        1 UIB      0.167000
     39 H10         5.6020    0.4080   -4.4710 h1        1 UIB      0.052700
     40 H22         5.6320   -1.8260   -4.8190 hc        1 UIB      0.098700
     41 H16         5.7740   -2.0310   -7.1640 hc        1 UIB      0.081700
     42 H131        7.1240    0.0420   -6.6720 hc        1 UIB      0.048033
     43 H132        6.7220    1.3120   -7.9040 hc        1 UIB      0.048033
     44 H133        6.8730   -0.4170   -8.4110 hc        1 UIB      0.048033
     45 H141        4.4900   -0.5230   -9.3670 hc        1 UIB      0.048033
     46 H142        4.7010    1.2630   -9.1100 hc        1 UIB      0.048033
     47 H143        3.2050    0.4450   -8.5180 hc        1 UIB      0.048033
     48 H121        4.3480    2.7730   -5.4260 h1        1 UIB      0.043367
     49 H122        4.8260    2.6850   -7.1870 h1        1 UIB      0.043367
     50 H123        6.0450    2.2900   -5.8860 h1        1 UIB      0.043367
     51 H17         2.8670   -1.4580   -7.8340 h1        1 UIB      0.071700
     52 H231        2.0640   -4.4080   -5.3280 h1        1 UIB      0.073700
     53 H232        1.9830   -4.2960   -7.1540 h1        1 UIB      0.073700
     54 H32         0.0030   -3.5650   -8.1450 ha        1 UIB      0.152000
     55 H31        -2.3750   -2.7990   -7.9530 ha        1 UIB      0.172000
     56 H25         0.7700   -2.6640   -3.9680 ha        1 UIB      0.166000
     57 H281       -3.9700   -2.2270   -3.5130 h2        1 UIB      0.076700
     58 H282       -3.5430   -0.4440   -3.9370 h2        1 UIB      0.076700
     59 H181        4.1290   -4.2400   -7.9770 hc        1 UIB      0.058700
     60 H182        4.9490   -2.9290   -8.9020 hc        1 UIB      0.058700
     61 H411        2.8470   -2.3410  -10.0680 hc        1 UIB      0.040700
     62 H412        1.9350   -3.5920   -9.1330 hc        1 UIB      0.040700
     63 H413        3.2410   -4.0960  -10.2810 hc        1 UIB      0.040700
     64 H8          1.9910    0.8710   -5.4560 ha        1 UIB      0.167000
     65 H9          0.1880    1.0930   -3.7710 ha        1 UIB      0.144500
     66 H13        -0.9030   -0.4690   -2.3750 hn        1 UIB      0.461800
@<TRIPOS>BOND
     1    1    2 1   
     2    1   34 1   
     3    1   35 1   
     4    1   66 1   
     5    2    3 2   
     6    2    4 1   
     7    3   36 1   
     8    4    5 ar  
     9    4   33 ar  
    10    5    6 ar  
    11    5   37 1   
    12    6    7 ar  
    13    6   38 1   
    14    7    8 1   
    15    7   32 ar  
    16    8    9 1   
    17    8   14 1   
    18    8   39 1   
    19    9   10 1   
    20    9   28 1   
    21    9   40 1   
    22   10   11 1   
    23   10   16 1   
    24   10   41 1   
    25   11   12 1   
    26   11   13 1   
    27   11   14 1   
    28   12   42 1   
    29   12   43 1   
    30   12   44 1   
    31   13   45 1   
    32   13   46 1   
    33   13   47 1   
    34   14   15 1   
    35   15   48 1   
    36   15   49 1   
    37   15   50 1   
    38   16   17 1   
    39   16   30 1   
    40   16   51 1   
    41   17   18 1   
    42   17   28 1   
    43   18   19 1   
    44   18   52 1   
    45   18   53 1   
    46   19   20 ar  
    47   19   24 ar  
    48   20   21 ar  
    49   20   54 1   
    50   21   22 ar  
    51   21   55 1   
    52   22   23 ar  
    53   22   27 1   
    54   23   24 ar  
    55   23   25 1   
    56   24   56 1   
    57   25   26 1   
    58   26   27 1   
    59   26   57 1   
    60   26   58 1   
    61   28   29 2   
    62   30   31 1   
    63   30   59 1   
    64   30   60 1   
    65   31   61 1   
    66   31   62 1   
    67   31   63 1   
    68   32   33 ar  
    69   32   64 1   
    70   33   65 1   
@<TRIPOS>SUBSTRUCTURE
     1 UIB         1 TEMP              0 ****  ****    0 ROOT
