@<TRIPOS>MOLECULE
UIB
   66    70     1     0     0
SMALL
bcc


@<TRIPOS>ATOM
      1 N1         -0.5010   -0.5840   -1.4110 n4        1 UIB     -0.890600
      2 C3          0.4070    0.6100   -1.1040 ce        1 UIB      0.633800
      3 N2          0.2550    1.4270   -0.1490 n2        1 UIB     -0.680100
      4 C4          1.5020    0.6340   -2.0990 ca        1 UIB     -0.217900
      5 C5          2.8170    0.4080   -1.6820 ca        1 UIB     -0.088000
      6 C6          3.8240    0.2990   -2.6390 ca        1 UIB     -0.098000
      7 C7          3.5230    0.4050   -4.0040 ca        1 UIB     -0.018300
      8 C10         4.6210    0.1360   -4.9980 c3        1 UIB      0.230800
      9 C22         4.7430   -1.3700   -5.3440 c3        1 UIB     -0.142700
     10 C16         4.8600   -1.4380   -6.8850 c3        1 UIB     -0.077700
     11 C15         5.0090    0.0330   -7.3630 c3        1 UIB      0.199200
     12 C13         6.5090    0.2700   -7.6260 c3        1 UIB     -0.104600
     13 C14         4.2780    0.3100   -8.6800 c3        1 UIB     -0.104600
     14 N11         4.4550    0.8670   -6.2660 n3        1 UIB     -0.733600
     15 C12         4.9370    2.2240   -6.2190 c3        1 UIB      0.153100
     16 C17         3.5900   -2.1970   -7.3730 c3        1 UIB      0.110700
     17 N19         2.9570   -2.7250   -6.1630 n         1 UIB     -0.473800
     18 C23         1.9140   -3.7090   -6.1760 c3        1 UIB      0.151300
     19 C24         0.5110   -3.1720   -6.0510 ca        1 UIB     -0.102300
     20 C32        -0.3560   -3.2170   -7.1420 ca        1 UIB     -0.102000
     21 C31        -1.6970   -2.8000   -7.0500 ca        1 UIB     -0.101000
     22 C30        -2.1060   -2.3360   -5.8160 ca        1 UIB      0.075100
     23 C26        -1.2240   -2.2740   -4.7090 ca        1 UIB      0.014100
     24 C25         0.0880   -2.6880   -4.7930 ca        1 UIB     -0.098000
     25 O27        -1.9180   -1.7620   -3.6050 os        1 UIB     -0.427900
     26 C28        -3.2890   -1.5540   -4.0350 c3        1 UIB      0.328200
     27 O29        -3.3640   -1.8770   -5.4360 os        1 UIB     -0.311900
     28 C20         3.5450   -2.2490   -5.0000 c         1 UIB      0.711500
     29 O21         3.1570   -2.5480   -3.8550 o         1 UIB     -0.662500
     30 C18         3.9670   -3.2420   -8.4330 c3        1 UIB     -0.098400
     31 C41         2.9310   -3.3450   -9.5230 c3        1 UIB     -0.099100
     32 C8          2.2170    0.7230   -4.4020 ca        1 UIB     -0.098000
     33 C9          1.2050    0.8370   -3.4530 ca        1 UIB     -0.088000
     34 HN11        0.0690   -1.4370   -1.4170 hn        1 UIB      0.461800
     35 HN12       -1.2670   -0.6960   -0.7490 hn        1 UIB      0.461800
     36 HN2        -0.4810    1.3630    0.5190 hn        1 UIB      0.452400
     37 H5          3.0580    0.3070   -0.6130 ha        1 UIB      0.144500
     38 H6          4.8580    0.1000   -2.3140 ha        1 UIB      0.167000
     39 H10         5.5980    0.4380   -4.5010 h1        1 UIB      0.052700
     40 H22         5.6410   -1.7980   -4.8320 hc        1 UIB      0.098700
     41 H16         5.7710   -2.0210   -7.1770 hc        1 UIB      0.081700
     42 H131        6.8520   -0.4100   -8.4430 hc        1 UIB      0.048033
     43 H132        7.1100    0.0650   -6.7090 hc        1 UIB      0.048033
     44 H133        6.6930    1.3230   -7.9480 hc        1 UIB      0.048033
     45 H141        4.6650    1.2510   -9.1410 hc        1 UIB      0.048033
     46 H142        3.1780    0.4280   -8.5340 hc        1 UIB      0.048033
     47 H143        4.4640   -0.5380   -9.3830 hc        1 UIB      0.048033
     48 H121        4.3250    2.7870   -5.4660 h1        1 UIB      0.043367
     49 H122        6.0220    2.3120   -5.9330 h1        1 UIB      0.043367
     50 H123        4.7930    2.6890   -7.2300 h1        1 UIB      0.043367
     51 H17         2.8560   -1.4720   -7.8340 h1        1 UIB      0.071700
     52 H231        1.9950   -4.3100   -7.1280 h1        1 UIB      0.073700
     53 H232        2.0870   -4.4080   -5.3010 h1        1 UIB      0.073700
     54 H32         0.0040   -3.6000   -8.1110 ha        1 UIB      0.152000
     55 H31        -2.3780   -2.8480   -7.9110 ha        1 UIB      0.172000
     56 H25         0.7900   -2.6620   -3.9460 ha        1 UIB      0.166000
     57 H281       -3.5380   -0.4720   -3.9050 h2        1 UIB      0.076700
     58 H282       -3.9500   -2.2540   -3.4650 h2        1 UIB      0.076700
     59 H181        4.1360   -4.2470   -7.9640 hc        1 UIB      0.058700
     60 H182        4.9410   -2.9360   -8.9030 hc        1 UIB      0.058700
     61 H411        1.9300   -3.6210   -9.1110 hc        1 UIB      0.040700
     62 H412        2.8290   -2.3710  -10.0610 hc        1 UIB      0.040700
     63 H413        3.2330   -4.1250  -10.2630 hc        1 UIB      0.040700
     64 H8          1.9790    0.8700   -5.4690 ha        1 UIB      0.167000
     65 H9          0.1850    1.0930   -3.7760 ha        1 UIB      0.144500
     66 H13        -0.8880   -0.4660   -2.3610 hn        1 UIB      0.461800
@<TRIPOS>BOND
     1    1    2 1   
     2    1   34 1   
     3    1   35 1   
     4    1   66 1   
     5    2    3 2   
     6    2    4 1   
     7    3   36 1   
     8    4    5 ar  
     9    4   33 ar  
    10    5    6 ar  
    11    5   37 1   
    12    6    7 ar  
    13    6   38 1   
    14    7    8 1   
    15    7   32 ar  
    16    8    9 1   
    17    8   14 1   
    18    8   39 1   
    19    9   10 1   
    20    9   28 1   
    21    9   40 1   
    22   10   11 1   
    23   10   16 1   
    24   10   41 1   
    25   11   12 1   
    26   11   13 1   
    27   11   14 1   
    28   12   42 1   
    29   12   43 1   
    30   12   44 1   
    31   13   45 1   
    32   13   46 1   
    33   13   47 1   
    34   14   15 1   
    35   15   48 1   
    36   15   49 1   
    37   15   50 1   
    38   16   17 1   
    39   16   30 1   
    40   16   51 1   
    41   17   18 1   
    42   17   28 1   
    43   18   19 1   
    44   18   52 1   
    45   18   53 1   
    46   19   20 ar  
    47   19   24 ar  
    48   20   21 ar  
    49   20   54 1   
    50   21   22 ar  
    51   21   55 1   
    52   22   23 ar  
    53   22   27 1   
    54   23   24 ar  
    55   23   25 1   
    56   24   56 1   
    57   25   26 1   
    58   26   27 1   
    59   26   57 1   
    60   26   58 1   
    61   28   29 2   
    62   30   31 1   
    63   30   59 1   
    64   30   60 1   
    65   31   61 1   
    66   31   62 1   
    67   31   63 1   
    68   32   33 ar  
    69   32   64 1   
    70   33   65 1   
@<TRIPOS>SUBSTRUCTURE
     1 UIB         1 TEMP              0 ****  ****    0 ROOT
