@<TRIPOS>MOLECULE
UIC
   81    83     1     0     0
SMALL
bcc


@<TRIPOS>ATOM
      1 C11        -1.2520   -1.0590    0.8850 c3        1 UIC      0.173100
      2 C12         0.1450   -0.7890    1.4460 c3        1 UIC     -0.083400
      3 O1          0.4970   -3.0770   -0.9740 os        1 UIC     -0.435600
      4 C14         1.8140   -2.5260   -1.1220 c3        1 UIC      0.125400
      5 C15         1.0160   -1.9990    1.1170 c3        1 UIC     -0.093700
      6 C16        -1.3270   -2.5300    0.5020 c3        1 UIC     -0.122400
      7 C2          2.1450   -1.7160    0.1300 c3        1 UIC     -0.106400
      8 C1          0.1120   -3.0320    0.4050 c3        1 UIC      0.137100
      9 O13        -1.3110   -0.2030   -0.3240 os        1 UIC     -0.399900
     10 C21        -2.4500   -0.2180   -1.0240 c         1 UIC      0.632100
     11 C22        -3.5470    0.9520   -2.9520 c3        1 UIC      0.103500
     12 C23        -3.2860    2.1440   -3.8840 c3        1 UIC     -0.052100
     13 C24        -2.4770    3.2050   -3.2280 ca        1 UIC     -0.174300
     14 C25        -3.0840    4.1190   -2.3580 ca        1 UIC     -0.131000
     15 C26        -2.3320    5.1390   -1.7780 ca        1 UIC     -0.110000
     16 C27        -0.9700    5.2550   -2.0640 ca        1 UIC     -0.089000
     17 C28        -0.3620    4.3490   -2.9350 ca        1 UIC     -0.110000
     18 C29        -1.1110    3.3280   -3.5160 ca        1 UIC     -0.131000
     19 O21        -3.5310   -0.6830   -0.6830 o         1 UIC     -0.453000
     20 N21        -2.2540    0.4670   -2.3440 n4        1 UIC     -0.645800
     21 C31        -4.2550   -0.2260   -3.6790 c3        1 UIC      0.110100
     22 C32        -5.5690    0.2570   -4.3120 c3        1 UIC      0.106800
     23 C33        -6.7970   -1.8460   -3.8570 c3        1 UIC      0.109800
     24 C34        -7.4760   -1.3890   -2.5610 c3        1 UIC     -0.084700
     25 C35        -8.7420   -0.6090   -2.8390 c3        1 UIC     -0.103100
     26 C36        -7.7770   -2.6110   -1.7170 c3        1 UIC     -0.103100
     27 O31        -3.3830   -0.8270   -4.6090 oh        1 UIC     -0.603800
     28 O32        -4.6510   -0.9220   -6.9530 o         1 UIC     -0.445900
     29 O33        -5.3280   -3.0650   -6.1420 o         1 UIC     -0.445900
     30 N31        -6.4430   -0.8030   -4.8210 n3        1 UIC     -0.903200
     31 S31        -5.5890   -1.8980   -6.7810 s4        1 UIC      1.690300
     32 C41        -6.8940   -1.7950   -7.6120 ca        1 UIC     -0.637500
     33 C42        -7.1600   -0.6810   -8.4590 ca        1 UIC      0.029500
     34 C43        -8.2930   -0.6190   -9.2430 ca        1 UIC     -0.148000
     35 C44        -9.2270   -1.6720   -9.2260 ca        1 UIC      0.095700
     36 C45        -8.9930   -2.7850   -8.3950 ca        1 UIC     -0.148000
     37 C46        -7.8590   -2.8420   -7.6110 ca        1 UIC      0.029500
     38 C3        -10.4540   -1.6400  -10.0750 c3        1 UIC      0.142700
     39 O2        -10.5350   -0.3740  -10.7050 oh        1 UIC     -0.600800
     40 H11        -2.0880   -0.7230    1.5490 h1        1 UIC      0.093700
     41 H121        0.0600   -0.6510    2.5550 hc        1 UIC      0.085700
     42 H122        0.5680    0.1560    1.0180 hc        1 UIC      0.085700
     43 H141        1.7820   -1.8970   -2.0480 h1        1 UIC      0.056200
     44 H142        2.5250   -3.3790   -1.2680 h1        1 UIC      0.056200
     45 H15         1.4310   -2.4290    2.0650 hc        1 UIC      0.092700
     46 H161       -1.8730   -3.0920    1.3040 hc        1 UIC      0.083700
     47 H162       -1.8710   -2.6850   -0.4630 hc        1 UIC      0.083700
     48 H21         2.2250   -0.6280   -0.1090 hc        1 UIC      0.067200
     49 H22A        3.1290   -2.0390    0.5540 hc        1 UIC      0.067200
     50 H1          0.2210   -4.0660    0.8230 h1        1 UIC      0.087700
     51 H22        -4.2060    1.2900   -2.0960 hx        1 UIC      0.125700
     52 H231       -4.2900    2.5640   -4.1710 hc        1 UIC      0.082200
     53 H232       -2.7820    1.7930   -4.8240 hc        1 UIC      0.082200
     54 H25        -4.1610    4.0460   -2.1450 ha        1 UIC      0.135000
     55 H26        -2.8160    5.8620   -1.1010 ha        1 UIC      0.162000
     56 H27        -0.3790    6.0690   -1.6130 ha        1 UIC      0.166000
     57 H28         0.7090    4.4510   -3.1750 ha        1 UIC      0.162000
     58 H29        -0.6320    2.6450   -4.2350 ha        1 UIC      0.135000
     59 HN21       -1.8140   -0.2100   -2.9880 hn        1 UIC      0.488300
     60 H31        -4.4580   -1.0400   -2.9150 h1        1 UIC      0.124700
     61 H321       -5.3200    0.9170   -5.1950 h1        1 UIC      0.081700
     62 H322       -6.1130    0.8800   -3.5430 h1        1 UIC      0.081700
     63 H331       -7.4950   -2.5550   -4.3920 h1        1 UIC      0.080200
     64 H332       -5.8620   -2.4250   -3.6040 h1        1 UIC      0.080200
     65 H34        -6.7610   -0.7310   -1.9910 hc        1 UIC      0.047700
     66 H351       -9.2910   -0.4200   -1.8830 hc        1 UIC      0.051700
     67 H352       -8.5140    0.3810   -3.3050 hc        1 UIC      0.051700
     68 H353       -9.4200   -1.1800   -3.5190 hc        1 UIC      0.051700
     69 H361       -8.2120   -2.2970   -0.7360 hc        1 UIC      0.051700
     70 H362       -6.8460   -3.1950   -1.5200 hc        1 UIC      0.051700
     71 H363       -8.5140   -3.2750   -2.2300 hc        1 UIC      0.051700
     72 HO31       -3.2980   -0.2500   -5.3860 ho        1 UIC      0.441000
     73 H42        -6.4250    0.1460   -8.4960 ha        1 UIC      0.169500
     74 H43        -8.4800    0.2540   -9.8980 ha        1 UIC      0.196000
     75 H45        -9.7200   -3.6160   -8.3780 ha        1 UIC      0.196000
     76 H46        -7.6820   -3.7280   -6.9700 ha        1 UIC      0.169500
     77 H31A      -11.3640   -1.8100   -9.4300 h1        1 UIC      0.080200
     78 H32       -10.3910   -2.4630  -10.8420 h1        1 UIC      0.080200
     79 HO2       -11.2850   -0.4100  -11.3150 ho        1 UIC      0.443000
     80 H212       -1.6110    1.2690   -2.2160 hn        1 UIC      0.488300
     81 H311       -7.2990   -0.3500   -5.1200 hn        1 UIC      0.400800
@<TRIPOS>BOND
     1    1    2 1   
     2    1    6 1   
     3    1    9 1   
     4    1   40 1   
     5    2    5 1   
     6    2   41 1   
     7    2   42 1   
     8    3    4 1   
     9    3    8 1   
    10    4    7 1   
    11    4   43 1   
    12    4   44 1   
    13    5    7 1   
    14    5    8 1   
    15    5   45 1   
    16    6    8 1   
    17    6   46 1   
    18    6   47 1   
    19    7   48 1   
    20    7   49 1   
    21    8   50 1   
    22    9   10 1   
    23   10   19 2   
    24   10   20 1   
    25   11   12 1   
    26   11   20 1   
    27   11   21 1   
    28   11   51 1   
    29   12   13 1   
    30   12   52 1   
    31   12   53 1   
    32   13   14 ar  
    33   13   18 ar  
    34   14   15 ar  
    35   14   54 1   
    36   15   16 ar  
    37   15   55 1   
    38   16   17 ar  
    39   16   56 1   
    40   17   18 ar  
    41   17   57 1   
    42   18   58 1   
    43   20   59 1   
    44   20   80 1   
    45   21   22 1   
    46   21   27 1   
    47   21   60 1   
    48   22   30 1   
    49   22   61 1   
    50   22   62 1   
    51   23   24 1   
    52   23   30 1   
    53   23   63 1   
    54   23   64 1   
    55   24   25 1   
    56   24   26 1   
    57   24   65 1   
    58   25   66 1   
    59   25   67 1   
    60   25   68 1   
    61   26   69 1   
    62   26   70 1   
    63   26   71 1   
    64   27   72 1   
    65   28   31 1   
    66   29   31 1   
    67   30   81 1   
    68   31   32 1   
    69   32   33 ar  
    70   32   37 ar  
    71   33   34 ar  
    72   33   73 1   
    73   34   35 ar  
    74   34   74 1   
    75   35   36 ar  
    76   35   38 1   
    77   36   37 ar  
    78   36   75 1   
    79   37   76 1   
    80   38   39 1   
    81   38   77 1   
    82   38   78 1   
    83   39   79 1   
@<TRIPOS>SUBSTRUCTURE
     1 UIC         1 TEMP              0 ****  ****    0 ROOT
