@<TRIPOS>MOLECULE
UIC
   79    82     1     0     0
SMALL
bcc


@<TRIPOS>ATOM
      1 C11         5.2550   -0.3530    1.2490 c3        1 UIC      0.159100
      2 C12         6.6580   -0.0010    0.7410 c3        1 UIC     -0.083400
      3 O1          6.8900   -3.4930    0.8940 os        1 UIC     -0.419600
      4 C14         7.6450   -3.2050   -0.2870 c3        1 UIC      0.126400
      5 C15         7.5690   -1.1790    1.0600 c3        1 UIC     -0.088700
      6 C16         5.2350   -1.8440    1.5870 c3        1 UIC     -0.121400
      7 C2          8.2390   -1.8050   -0.1600 c3        1 UIC     -0.102400
      8 C1          6.6900   -2.3000    1.6590 c3        1 UIC      0.142100
      9 O13         4.3520   -0.0860    0.1590 os        1 UIC     -0.442900
     10 C21         3.0920    0.3660    0.4950 c         1 UIC      0.733100
     11 C22         0.9320    0.9520   -0.4830 c3        1 UIC      0.075700
     12 C23         0.4350    2.0340   -1.4600 c3        1 UIC     -0.044100
     13 C24         0.9270    3.3910   -1.1060 ca        1 UIC     -0.074300
     14 C25         0.4930    4.0160    0.0700 ca        1 UIC     -0.122500
     15 C26         0.9380    5.2960    0.3930 ca        1 UIC     -0.127000
     16 C27         1.8190    5.9660   -0.4570 ca        1 UIC     -0.129000
     17 C28         2.2530    5.3500   -1.6300 ca        1 UIC     -0.127000
     18 C29         1.8100    4.0680   -1.9540 ca        1 UIC     -0.122500
     19 O21         2.7610    0.4260    1.6920 o         1 UIC     -0.594000
     20 N21         2.3620    0.7580   -0.6110 n         1 UIC     -0.512900
     21 C31         0.1390   -0.3700   -0.7080 c3        1 UIC      0.091100
     22 C32        -1.2250   -0.2710    0.0110 c3        1 UIC      0.193800
     23 C33        -1.8920   -2.6110    0.3190 c3        1 UIC      0.218800
     24 C34        -2.1140   -2.7130    1.8380 c3        1 UIC     -0.083700
     25 C35        -3.5840   -2.6800    2.1900 c3        1 UIC     -0.094600
     26 C36        -1.4850   -4.0020    2.3300 c3        1 UIC     -0.094600
     27 O31         0.0480   -0.6830   -2.0790 oh        1 UIC     -0.601800
     28 O32        -2.7870   -0.2270   -2.4050 o         1 UIC     -0.657300
     29 O33        -3.8260   -2.3340   -1.8520 o         1 UIC     -0.657300
     30 N31        -2.1520   -1.3280   -0.2800 n3        1 UIC     -0.799500
     31 S31        -3.3090   -1.0980   -1.4130 sy        1 UIC      1.506200
     32 C41        -4.5220   -0.2610   -0.5920 ca        1 UIC     -0.380500
     33 C42        -4.5240    1.1400   -0.5520 ca        1 UIC     -0.016500
     34 C43        -5.5430    1.8370    0.0860 ca        1 UIC     -0.145500
     35 C44        -6.5930    1.1380    0.6980 ca        1 UIC     -0.021300
     36 C45        -6.6070   -0.2590    0.6580 ca        1 UIC     -0.145500
     37 C46        -5.5790   -0.9460    0.0180 ca        1 UIC     -0.016500
     38 C3         -7.6770    1.9200    1.3650 c3        1 UIC      0.164700
     39 O2         -8.5550    1.0320    2.0390 oh        1 UIC     -0.597800
     40 H11         4.9710    0.2700    2.1390 h1        1 UIC      0.083700
     41 H121        6.6210    0.2040   -0.3600 hc        1 UIC      0.061700
     42 H122        7.0210    0.9290    1.2440 hc        1 UIC      0.061700
     43 H141        6.9510   -3.2830   -1.1630 h1        1 UIC      0.047200
     44 H142        8.4290   -4.0010   -0.3540 h1        1 UIC      0.047200
     45 H15         8.3470   -0.8640    1.8010 hc        1 UIC      0.062700
     46 H161        4.7130   -2.0190    2.5590 hc        1 UIC      0.071200
     47 H162        4.6900   -2.4180    0.7940 hc        1 UIC      0.071200
     48 H21         8.0540   -1.2120   -1.0890 hc        1 UIC      0.054200
     49 H22A        9.3460   -1.8620   -0.0100 hc        1 UIC      0.054200
     50 H1          6.9870   -2.5630    2.7080 h1        1 UIC      0.066700
     51 H22         0.7330    1.2990    0.5760 h1        1 UIC      0.090700
     52 H231        0.7410    1.7680   -2.5080 hc        1 UIC      0.061700
     53 H232       -0.6890    2.0320   -1.4370 hc        1 UIC      0.061700
     54 H25        -0.1990    3.4910    0.7440 ha        1 UIC      0.129000
     55 H26         0.5960    5.7780    1.3200 ha        1 UIC      0.131000
     56 H27         2.1700    6.9760   -0.2020 ha        1 UIC      0.131000
     57 H28         2.9490    5.8740   -2.3020 ha        1 UIC      0.131000
     58 H29         2.1590    3.5870   -2.8800 ha        1 UIC      0.129000
     59 HN21        2.6960    0.4700   -1.5040 hn        1 UIC      0.325500
     60 H31         0.7160   -1.2390   -0.2710 h1        1 UIC      0.083700
     61 H321       -1.7170    0.7070   -0.2710 h1        1 UIC      0.057700
     62 H322       -1.0140   -0.2420    1.1190 h1        1 UIC      0.057700
     63 H331       -0.8170   -2.8910    0.1070 h1        1 UIC      0.063700
     64 H332       -2.5500   -3.3790   -0.1870 h1        1 UIC      0.063700
     65 H34        -1.6020   -1.8520    2.3510 hc        1 UIC      0.053700
     66 H351       -4.1300   -3.5140    1.6860 hc        1 UIC      0.037867
     67 H352       -3.7170   -2.7890    3.2940 hc        1 UIC      0.037867
     68 H353       -4.0450   -1.7120    1.8750 hc        1 UIC      0.037867
     69 H361       -1.9370   -4.8830    1.8140 hc        1 UIC      0.037867
     70 H362       -0.3850   -4.0020    2.1360 hc        1 UIC      0.037867
     71 H363       -1.6500   -4.1120    3.4290 hc        1 UIC      0.037867
     72 HO31       -0.6250   -0.1120   -2.4820 ho        1 UIC      0.431000
     73 H42        -3.7130    1.6950   -1.0550 ha        1 UIC      0.152500
     74 H43        -5.5300    2.9370    0.1060 ha        1 UIC      0.152500
     75 H45        -7.4350   -0.8090    1.1350 ha        1 UIC      0.152500
     76 H46        -5.6020   -2.0500   -0.0230 ha        1 UIC      0.152500
     77 H31A       -7.2260    2.6400    2.1040 h1        1 UIC      0.041700
     78 H32        -8.2460    2.5050    0.5890 h1        1 UIC      0.041700
     79 HO2        -9.2530    1.5780    2.4190 ho        1 UIC      0.409000
@<TRIPOS>BOND
     1    1    2 1   
     2    1    6 1   
     3    1    9 1   
     4    1   40 1   
     5    2    5 1   
     6    2   41 1   
     7    2   42 1   
     8    3    4 1   
     9    3    8 1   
    10    4    7 1   
    11    4   43 1   
    12    4   44 1   
    13    5    7 1   
    14    5    8 1   
    15    5   45 1   
    16    6    8 1   
    17    6   46 1   
    18    6   47 1   
    19    7   48 1   
    20    7   49 1   
    21    8   50 1   
    22    9   10 1   
    23   10   19 2   
    24   10   20 1   
    25   11   12 1   
    26   11   20 1   
    27   11   21 1   
    28   11   51 1   
    29   12   13 1   
    30   12   52 1   
    31   12   53 1   
    32   13   14 ar  
    33   13   18 ar  
    34   14   15 ar  
    35   14   54 1   
    36   15   16 ar  
    37   15   55 1   
    38   16   17 ar  
    39   16   56 1   
    40   17   18 ar  
    41   17   57 1   
    42   18   58 1   
    43   20   59 1   
    44   21   22 1   
    45   21   27 1   
    46   21   60 1   
    47   22   30 1   
    48   22   61 1   
    49   22   62 1   
    50   23   24 1   
    51   23   30 1   
    52   23   63 1   
    53   23   64 1   
    54   24   25 1   
    55   24   26 1   
    56   24   65 1   
    57   25   66 1   
    58   25   67 1   
    59   25   68 1   
    60   26   69 1   
    61   26   70 1   
    62   26   71 1   
    63   27   72 1   
    64   28   31 2   
    65   29   31 2   
    66   30   31 1   
    67   31   32 1   
    68   32   33 ar  
    69   32   37 ar  
    70   33   34 ar  
    71   33   73 1   
    72   34   35 ar  
    73   34   74 1   
    74   35   36 ar  
    75   35   38 1   
    76   36   37 ar  
    77   36   75 1   
    78   37   76 1   
    79   38   39 1   
    80   38   77 1   
    81   38   78 1   
    82   39   79 1   
@<TRIPOS>SUBSTRUCTURE
     1 UIC         1 TEMP              0 ****  ****    0 ROOT
