@<TRIPOS>MOLECULE
UIC
   81    83     1     0     0
SMALL
bcc


@<TRIPOS>ATOM
      1 C11        -1.6030   -0.5260    1.2340 c3        1 UIC      0.173100
      2 C12        -0.2460   -0.5340    1.9420 c3        1 UIC     -0.083400
      3 O1         -0.4040   -3.3220    0.0860 os        1 UIC     -0.438600
      4 C14         1.0240   -3.2000    0.0210 c3        1 UIC      0.125400
      5 C15         0.2460   -1.9780    1.9780 c3        1 UIC     -0.093700
      6 C16        -2.0900   -1.9660    1.1470 c3        1 UIC     -0.122400
      7 C2          1.4810   -2.2470    1.1220 c3        1 UIC     -0.106400
      8 C1         -0.8670   -2.8560    1.3600 c3        1 UIC      0.137100
      9 O13        -1.2860    0.0060   -0.1110 os        1 UIC     -0.400900
     10 C21        -2.2950    0.1080   -0.9840 c         1 UIC      0.629100
     11 C22        -2.8400    0.8420   -3.3220 c3        1 UIC      0.148500
     12 C23        -2.2230    1.6570   -4.4700 c3        1 UIC     -0.053100
     13 C24        -1.3340    2.7440   -3.9770 ca        1 UIC     -0.175300
     14 C25        -1.8790    3.9500   -3.5190 ca        1 UIC     -0.131500
     15 C26        -1.0400    4.9820   -3.1020 ca        1 UIC     -0.112000
     16 C27         0.3450    4.8190   -3.1420 ca        1 UIC     -0.091000
     17 C28         0.8930    3.6210   -3.6030 ca        1 UIC     -0.112000
     18 C29         0.0580    2.5850   -4.0200 ca        1 UIC     -0.131500
     19 O21        -3.4920   -0.0120   -0.7540 o         1 UIC     -0.457000
     20 N21        -1.7650    0.4270   -2.3460 n4        1 UIC     -0.645800
     21 C31        -3.6050   -0.4030   -3.8430 c3        1 UIC      0.095100
     22 C32        -4.6130    0.0090   -4.9320 c3        1 UIC      0.098800
     23 C33        -6.4920   -1.4980   -4.3370 c3        1 UIC      0.125800
     24 C34        -7.1070   -0.4640   -3.3860 c3        1 UIC     -0.069700
     25 C35        -7.9980    0.5240   -4.1030 c3        1 UIC     -0.105600
     26 C36        -7.9010   -1.2080   -2.3270 c3        1 UIC     -0.105600
     27 O31        -2.6230   -1.2810   -4.3730 oh        1 UIC     -0.610800
     28 O32        -6.5100    1.0880   -7.0620 o         1 UIC     -0.434400
     29 O33        -5.3260   -0.6900   -8.0950 o         1 UIC     -0.434400
     30 N31        -5.5600   -1.0100   -5.3550 n3        1 UIC     -0.899200
     31 S31        -6.4610   -0.1770   -7.5510 s4        1 UIC      1.684300
     32 C41        -7.7790   -0.9570   -7.7410 ca        1 UIC     -0.640500
     33 C42        -9.0370   -0.4150   -7.3480 ca        1 UIC      0.034500
     34 C43       -10.2200   -1.0830   -7.5860 ca        1 UIC     -0.150500
     35 C44       -10.2120   -2.3380   -8.2260 ca        1 UIC      0.100700
     36 C45        -8.9840   -2.9040   -8.6150 ca        1 UIC     -0.150500
     37 C46        -7.8020   -2.2320   -8.3790 ca        1 UIC      0.034500
     38 C3        -11.5080   -3.0330   -8.4850 c3        1 UIC      0.141700
     39 O2        -11.2340   -4.3230   -8.9990 oh        1 UIC     -0.599800
     40 H11        -2.3530    0.1750    1.6810 h1        1 UIC      0.093700
     41 H121        0.4790    0.1400    1.4180 hc        1 UIC      0.086700
     42 H122       -0.3890   -0.1370    2.9800 hc        1 UIC      0.086700
     43 H141        1.4580   -4.2260    0.1480 h1        1 UIC      0.056200
     44 H142        1.2540   -2.8180   -1.0060 h1        1 UIC      0.056200
     45 H15         0.4390   -2.2810    3.0390 hc        1 UIC      0.092700
     46 H161       -2.5800   -2.1860    0.1670 hc        1 UIC      0.081700
     47 H162       -2.8400   -2.1500    1.9600 hc        1 UIC      0.081700
     48 H21         2.2900   -2.7180    1.7360 hc        1 UIC      0.067700
     49 H22A        1.8970   -1.3060    0.6870 hc        1 UIC      0.067700
     50 H1         -1.1100   -3.7550    1.9830 h1        1 UIC      0.086700
     51 H22        -3.5730    1.4880   -2.7490 hx        1 UIC      0.121700
     52 H231       -1.6660    0.9670   -5.1600 hc        1 UIC      0.092700
     53 H232       -3.0750    2.1080   -5.0490 hc        1 UIC      0.092700
     54 H25        -2.9700    4.0930   -3.5070 ha        1 UIC      0.136500
     55 H26        -1.4740    5.9330   -2.7510 ha        1 UIC      0.161000
     56 H27         1.0070    5.6410   -2.8230 ha        1 UIC      0.165000
     57 H28         1.9870    3.4980   -3.6530 ha        1 UIC      0.161000
     58 H29         0.4980    1.6600   -4.4230 ha        1 UIC      0.136500
     59 HN21       -1.0670    1.1890   -2.2680 hn        1 UIC      0.490800
     60 H31        -4.1440   -0.8880   -2.9760 h1        1 UIC      0.081700
     61 H321       -4.0250    0.3030   -5.8530 h1        1 UIC      0.096200
     62 H322       -5.1910    0.9090   -4.5740 h1        1 UIC      0.096200
     63 H331       -7.3280   -2.0110   -4.8960 h1        1 UIC      0.061700
     64 H332       -5.9870   -2.2820   -3.6980 h1        1 UIC      0.061700
     65 H34        -6.2800    0.1000   -2.8690 hc        1 UIC      0.049700
     66 H351       -8.4500    1.2320   -3.3650 hc        1 UIC      0.051033
     67 H352       -8.8320   -0.0070   -4.6250 hc        1 UIC      0.051033
     68 H353       -7.4250    1.1220   -4.8530 hc        1 UIC      0.051033
     69 H361       -8.3600   -0.4790   -1.6160 hc        1 UIC      0.051033
     70 H362       -8.7190   -1.8080   -2.7930 hc        1 UIC      0.051033
     71 H363       -7.2400   -1.8970   -1.7480 hc        1 UIC      0.051033
     72 HO31       -3.0170   -2.1590   -4.4550 ho        1 UIC      0.438000
     73 H42        -9.0550    0.5730   -6.8470 ha        1 UIC      0.173500
     74 H43       -11.1800   -0.6320   -7.2790 ha        1 UIC      0.196000
     75 H45        -8.9820   -3.8920   -9.1160 ha        1 UIC      0.196000
     76 H46        -6.8450   -2.6820   -8.7070 ha        1 UIC      0.173500
     77 H31A      -12.0900   -3.1160   -7.5230 h1        1 UIC      0.080200
     78 H32       -12.1070   -2.4280   -9.2240 h1        1 UIC      0.080200
     79 HO2       -12.0820   -4.7130   -9.2510 ho        1 UIC      0.443000
     80 H212       -1.2870   -0.4120   -2.7130 hn        1 UIC      0.490800
     81 H311       -5.0370   -1.8060   -5.6990 hn        1 UIC      0.385800
@<TRIPOS>BOND
     1    1    2 1   
     2    1    6 1   
     3    1    9 1   
     4    1   40 1   
     5    2    5 1   
     6    2   41 1   
     7    2   42 1   
     8    3    4 1   
     9    3    8 1   
    10    4    7 1   
    11    4   43 1   
    12    4   44 1   
    13    5    7 1   
    14    5    8 1   
    15    5   45 1   
    16    6    8 1   
    17    6   46 1   
    18    6   47 1   
    19    7   48 1   
    20    7   49 1   
    21    8   50 1   
    22    9   10 1   
    23   10   19 2   
    24   10   20 1   
    25   11   12 1   
    26   11   20 1   
    27   11   21 1   
    28   11   51 1   
    29   12   13 1   
    30   12   52 1   
    31   12   53 1   
    32   13   14 ar  
    33   13   18 ar  
    34   14   15 ar  
    35   14   54 1   
    36   15   16 ar  
    37   15   55 1   
    38   16   17 ar  
    39   16   56 1   
    40   17   18 ar  
    41   17   57 1   
    42   18   58 1   
    43   20   59 1   
    44   20   80 1   
    45   21   22 1   
    46   21   27 1   
    47   21   60 1   
    48   22   30 1   
    49   22   61 1   
    50   22   62 1   
    51   23   24 1   
    52   23   30 1   
    53   23   63 1   
    54   23   64 1   
    55   24   25 1   
    56   24   26 1   
    57   24   65 1   
    58   25   66 1   
    59   25   67 1   
    60   25   68 1   
    61   26   69 1   
    62   26   70 1   
    63   26   71 1   
    64   27   72 1   
    65   28   31 1   
    66   29   31 1   
    67   30   81 1   
    68   31   32 1   
    69   32   33 ar  
    70   32   37 ar  
    71   33   34 ar  
    72   33   73 1   
    73   34   35 ar  
    74   34   74 1   
    75   35   36 ar  
    76   35   38 1   
    77   36   37 ar  
    78   36   75 1   
    79   37   76 1   
    80   38   39 1   
    81   38   77 1   
    82   38   78 1   
    83   39   79 1   
@<TRIPOS>SUBSTRUCTURE
     1 UIC         1 TEMP              0 ****  ****    0 ROOT
