@<TRIPOS>MOLECULE
UIH
   38    40     1     0     0
SMALL
bcc


@<TRIPOS>ATOM
      1 N1          0.4820   -0.1330   -0.3580 n2        1 UIH     -0.312000
      2 C2          1.8200   -0.3310   -0.0190 c2        1 UIH      0.195000
      3 N3          2.3510   -0.4090    1.2530 n2        1 UIH     -0.269000
      4 C4          1.4320   -0.1940    2.2390 c2        1 UIH      0.123000
      5 C5          0.0230    0.0770    2.0160 c2        1 UIH     -0.261000
      6 C6         -0.4120    0.0530    0.6540 c2        1 UIH      0.245000
      7 NAA         2.7250   -0.4010   -1.0900 nv        1 UIH     -0.320000
      8 NAB        -1.7550    0.1560    0.3470 nv        1 UIH     -0.358000
      9 CAD        -4.9920   -0.4150    5.5350 cx        1 UIH     -0.066000
     10 CAE        -4.0460    0.5330    4.8700 cx        1 UIH      0.010000
     11 CAF        -4.4630    0.7430    6.2970 cu        1 UIH     -0.570000
     12 CAG         1.8520    0.8700    7.6900 c2        1 UIH     -0.137000
     13 CAH         1.5830   -1.2590    8.9100 c2        1 UIH     -0.458000
     14 CAI        -2.6640    0.1280    4.6100 c2        1 UIH     -0.170000
     15 CAJ        -4.3950    1.4460    7.3720 c1        1 UIH      0.233000
     16 CAK         1.6020    0.4210    6.3910 c1        1 UIH     -0.027000
     17 CAL         2.2890   -2.2990    8.5200 c1        1 UIH      0.232000
     18 NAO         1.6540   -0.2140    3.6170 na        1 UIH     -0.170000
     19 CAP         1.9260    0.1450    8.8240 c2        1 UIH     -0.171000
     20 CAS         0.3430    0.1680    5.7390 c3        1 UIH     -0.120000
     21 CAT        -1.9440    0.6160    3.5870 c2        1 UIH     -0.068000
     22 CAU         0.4430    0.0760    4.2620 c2        1 UIH     -0.034000
     23 CAV        -0.5790    0.2590    3.3150 c2        1 UIH     -0.082000
     24 HNAA        3.6090   -0.8080   -0.8880 hn        1 UIH      0.217500
     25 HNAB        2.3370   -0.6300   -1.9760 hn        1 UIH      0.217500
     26 HNAC       -2.0300    0.2870   -0.5960 hn        1 UIH      0.226500
     27 HNAD       -2.3620    0.4780    1.0590 hn        1 UIH      0.226500
     28 HAD        -4.4600    1.2600    4.1370 hc        1 UIH      0.131000
     29 HAE        -6.0630   -0.3970    5.2550 hc        1 UIH      0.125500
     30 HAF        -4.6420   -1.4230    5.8270 hc        1 UIH      0.125500
     31 HAG         2.1500    1.9460    7.6890 ha        1 UIH      0.193000
     32 HAH         0.6130   -1.4680    9.4200 ha        1 UIH      0.203000
     33 HAI        -2.2440   -0.6210    5.3020 ha        1 UIH      0.131000
     34 HAJ        -2.3860    1.3600    2.9000 ha        1 UIH      0.122000
     35 HAK        -0.4580    0.9220    5.9990 hc        1 UIH      0.149000
     36 HAL        -0.0180   -0.8310    6.1500 hc        1 UIH      0.149000
     37 HNAO        2.5290   -0.2710    4.0770 hn        1 UIH      0.281000
     38 Br          2.5170    0.9180   10.4280 br        1 UIH      0.056000
@<TRIPOS>BOND
     1    1    2 1   
     2    1    6 1   
     3    2    3 1   
     4    2    7 1   
     5    3    4 1   
     6    4    5 1   
     7    4   18 1   
     8    5    6 1   
     9    5   23 1   
    10    6    8 1   
    11    7   24 1   
    12    7   25 1   
    13    8   26 1   
    14    8   27 1   
    15    9   10 1   
    16    9   11 1   
    17    9   29 1   
    18    9   30 1   
    19   10   11 1   
    20   10   14 1   
    21   10   28 1   
    22   11   15 1   
    23   12   16 1   
    24   12   19 1   
    25   12   31 1   
    26   13   17 1   
    27   13   19 1   
    28   13   32 1   
    29   14   21 1   
    30   14   33 1   
    31   16   20 1   
    32   18   22 1   
    33   18   37 1   
    34   19   38 1   
    35   20   22 1   
    36   20   35 1   
    37   20   36 1   
    38   21   23 1   
    39   21   34 1   
    40   22   23 1   
@<TRIPOS>SUBSTRUCTURE
     1 UIH         1 TEMP              0 ****  ****    0 ROOT
