@<TRIPOS>MOLECULE
UIH
   38    39     1     0     0
SMALL
bcc


@<TRIPOS>ATOM
      1 N1          0.0330   -0.0590    0.1280 n2        1 UIH     -0.321000
      2 C2          1.3870    0.1660    0.3620 c2        1 UIH      0.196000
      3 N3          2.0120    0.2870    1.5880 n2        1 UIH     -0.279000
      4 C4          1.1490    0.2180    2.6430 c2        1 UIH      0.121000
      5 C5         -0.2830    0.0060    2.5340 c2        1 UIH     -0.258000
      6 C6         -0.8020   -0.1450    1.2050 c2        1 UIH      0.252000
      7 NAA         2.1890    0.3490   -0.7780 nh        1 UIH     -0.320000
      8 NAB        -2.1330   -0.4340    1.0060 nh        1 UIH     -0.348000
      9 CAD        -3.7560    3.1540    4.3710 c1        1 UIH     -0.125000
     10 CAE        -3.8910   -1.8850    3.5410 c2        1 UIH     -0.209000
     11 CAF        -3.3750    2.0310    4.1080 c1        1 UIH     -0.185000
     12 CAG         1.8330    0.9270    8.1360 c2        1 UIH     -0.140000
     13 CAH         1.8450   -1.3390    9.1160 c2        1 UIH     -0.461000
     14 CAI        -2.6850   -1.5930    4.0200 c2        1 UIH     -0.151000
     15 CAJ        -3.0430    0.8080    3.6400 c1        1 UIH      0.019000
     16 CAK         1.5360    0.5970    6.8120 c1        1 UIH     -0.023000
     17 CAL         2.6300   -2.2550    8.5860 c1        1 UIH      0.240000
     18 NAO         1.4630    0.3360    3.9980 na        1 UIH     -0.169000
     19 CAP         2.0480    0.0930    9.1740 c2        1 UIH     -0.170000
     20 CAS         0.2620    0.2780    6.2210 c3        1 UIH     -0.115000
     21 CAT        -2.2120   -0.2020    4.3120 c3        1 UIH     -0.015000
     22 CAU         0.2810    0.2050    4.7390 c2        1 UIH     -0.056000
     23 CAV        -0.8050   -0.0010    3.8750 c2        1 UIH     -0.093000
     24 HNAA        3.1670    0.2280   -0.6440 hn        1 UIH      0.215000
     25 HNAB        1.8240   -0.0130   -1.6280 hn        1 UIH      0.215000
     26 HNAC       -2.5010   -0.3800    0.0870 hn        1 UIH      0.240000
     27 HNAD       -2.7580   -0.2690    1.7680 hn        1 UIH      0.240000
     28 HAD        -4.6340   -1.1160    3.2880 ha        1 UIH      0.119000
     29 HAE        -4.0990    4.1360    4.5820 ha        1 UIH      0.230000
     30 HAF        -4.2100   -2.9210    3.3610 ha        1 UIH      0.119000
     31 HAG         2.0340    2.0200    8.2430 ha        1 UIH      0.191000
     32 HAH         0.9270   -1.7000    9.6360 ha        1 UIH      0.201000
     33 HAI        -1.9440   -2.3760    4.2490 ha        1 UIH      0.133000
     34 HAJ        -2.2490   -0.0840    5.4420 hc        1 UIH      0.086000
     35 HAK        -0.5370    1.0120    6.5400 hc        1 UIH      0.144500
     36 HAL        -0.0530   -0.7330    6.6330 hc        1 UIH      0.144500
     37 HNAO        2.3600    0.4720    4.3950 hn        1 UIH      0.280000
     38 BR          2.6750    0.7420   10.8190 br        1 UIH      0.055000
@<TRIPOS>BOND
     1    1    2 1   
     2    1    6 1   
     3    2    3 1   
     4    2    7 1   
     5    3    4 1   
     6    4    5 1   
     7    4   18 1   
     8    5    6 1   
     9    5   23 1   
    10    6    8 1   
    11    7   24 1   
    12    7   25 1   
    13    8   26 1   
    14    8   27 1   
    15    9   11 1   
    16    9   29 1   
    17   10   14 1   
    18   10   28 1   
    19   10   30 1   
    20   11   15 1   
    21   12   16 1   
    22   12   19 1   
    23   12   31 1   
    24   13   17 1   
    25   13   19 1   
    26   13   32 1   
    27   14   21 1   
    28   14   33 1   
    29   15   21 1   
    30   16   20 1   
    31   18   22 1   
    32   18   37 1   
    33   19   38 1   
    34   20   22 1   
    35   20   35 1   
    36   20   36 1   
    37   21   23 1   
    38   21   34 1   
    39   22   23 1   
@<TRIPOS>SUBSTRUCTURE
     1 UIH         1 TEMP              0 ****  ****    0 ROOT
