@<TRIPOS>MOLECULE
UIN
   47    49     1     0     0
SMALL
bcc


@<TRIPOS>ATOM
      1 CA          0.1280   -0.0020   -0.0910 cc        1 UIN     -0.255400
      2 CA2         1.5730    0.0920   -0.1120 c         1 UIN      0.738800
      3 OA2         2.3770    0.1310   -1.0440 o         1 UIN     -0.583500
      4 OA3         2.2720    0.1830    1.1030 os        1 UIN     -0.330200
      5 CA4         1.5980    0.1090    2.2900 cc        1 UIN      0.175900
      6 CA5         0.2410   -0.0480    2.3650 cd        1 UIN     -0.255200
      7 CA6        -0.5080   -0.0550    1.1270 cd        1 UIN      0.218100
      8 OA6        -1.8780   -0.1120    1.1260 oh        1 UIN     -0.483100
      9 CB1        -0.6580   -1.4110   -1.9670 ca        1 UIN     -0.074300
     10 CB2        -1.8610   -2.1290   -1.9890 ca        1 UIN     -0.123000
     11 CB3        -1.9090   -3.4090   -2.5370 ca        1 UIN     -0.134000
     12 CB4        -0.7560   -3.9880   -3.0660 ca        1 UIN     -0.133000
     13 CB5         0.4460   -3.2820   -3.0430 ca        1 UIN     -0.134000
     14 CB6         0.4970   -2.0010   -2.4950 ca        1 UIN     -0.123000
     15 CG1        -0.6350   -0.0300   -1.3790 c3        1 UIN      0.051800
     16 CG2        -0.1040    1.0060   -2.3670 c3        1 UIN     -0.079400
     17 CG3        -1.0890    1.2760   -3.4750 c3        1 UIN     -0.092100
     18 CD1         2.5310    0.2260    3.4490 c3        1 UIN     -0.047200
     19 CD2         2.6560    1.6530    3.9500 c3        1 UIN     -0.072400
     20 CD3         1.3430    2.3890    4.1170 c3        1 UIN     -0.082400
     21 CD4         0.3700    1.7170    5.0660 c3        1 UIN     -0.075400
     22 CD5        -0.8040    1.0590    4.3680 c3        1 UIN     -0.079400
     23 CD6        -0.4470   -0.2400    3.6690 c3        1 UIN     -0.025200
     24 HO6        -2.1980    0.1090    2.0150 ho        1 UIN      0.431000
     25 HB2        -2.7730   -1.6800   -1.5670 ha        1 UIN      0.143000
     26 HB3        -2.8590   -3.9630   -2.5510 ha        1 UIN      0.128500
     27 HB4        -0.7950   -4.9980   -3.5000 ha        1 UIN      0.127000
     28 HB5         1.3590   -3.7350   -3.4560 ha        1 UIN      0.128500
     29 HB6         1.4520   -1.4490   -2.4720 ha        1 UIN      0.143000
     30 HG1        -1.7030    0.2620   -1.1350 hc        1 UIN      0.070700
     31 HG21        0.8710    0.6540   -2.7980 hc        1 UIN      0.054200
     32 HG22        0.1060    1.9580   -1.8110 hc        1 UIN      0.054200
     33 HG31       -0.6560    2.0060   -4.2020 hc        1 UIN      0.034367
     34 HG32       -1.3340    0.3340   -4.0220 hc        1 UIN      0.034367
     35 HG33       -2.0370    1.7040   -3.0700 hc        1 UIN      0.034367
     36 HD11        3.5480   -0.1390    3.1390 hc        1 UIN      0.071700
     37 HD12        2.1680   -0.4410    4.2760 hc        1 UIN      0.071700
     38 HD21        3.2950    2.2320    3.2300 hc        1 UIN      0.051700
     39 HD22        3.1980    1.6260    4.9330 hc        1 UIN      0.051700
     40 HD31        1.5770    3.4180    4.5030 hc        1 UIN      0.047200
     41 HD32        0.8650    2.5210    3.1100 hc        1 UIN      0.047200
     42 HD41       -0.0400    2.4920    5.7690 hc        1 UIN      0.042700
     43 HD42        0.9050    0.9590    5.6960 hc        1 UIN      0.042700
     44 HD51       -1.5910    0.8360    5.1380 hc        1 UIN      0.043200
     45 HD52       -1.2550    1.7730    3.6290 hc        1 UIN      0.043200
     46 HD61        0.2000   -0.8590    4.3490 hc        1 UIN      0.051200
     47 HD62       -1.3830   -0.8450    3.5150 hc        1 UIN      0.051200
@<TRIPOS>BOND
     1    1    2 1   
     2    1    7 2   
     3    1   15 1   
     4    2    3 2   
     5    2    4 1   
     6    4    5 1   
     7    5    6 2   
     8    5   18 1   
     9    6    7 1   
    10    6   23 1   
    11    7    8 1   
    12    8   24 1   
    13    9   10 ar  
    14    9   14 ar  
    15    9   15 1   
    16   10   11 ar  
    17   10   25 1   
    18   11   12 ar  
    19   11   26 1   
    20   12   13 ar  
    21   12   27 1   
    22   13   14 ar  
    23   13   28 1   
    24   14   29 1   
    25   15   16 1   
    26   15   30 1   
    27   16   17 1   
    28   16   31 1   
    29   16   32 1   
    30   17   33 1   
    31   17   34 1   
    32   17   35 1   
    33   18   19 1   
    34   18   36 1   
    35   18   37 1   
    36   19   20 1   
    37   19   38 1   
    38   19   39 1   
    39   20   21 1   
    40   20   40 1   
    41   20   41 1   
    42   21   22 1   
    43   21   42 1   
    44   21   43 1   
    45   22   23 1   
    46   22   44 1   
    47   22   45 1   
    48   23   46 1   
    49   23   47 1   
@<TRIPOS>SUBSTRUCTURE
     1 UIN         1 TEMP              0 ****  ****    0 ROOT
