@<TRIPOS>MOLECULE
UIN
   47    49     1     0     0
SMALL
bcc


@<TRIPOS>ATOM
      1 CA         -0.2540    0.4190    0.3930 cc        1 UIN     -0.326400
      2 CA2        -1.6170    0.1150    0.0120 c         1 UIN      0.743800
      3 OA2        -2.6790    0.2230    0.6280 o         1 UIN     -0.590500
      4 OA3        -1.8680   -0.4200   -1.2590 os        1 UIN     -0.329200
      5 CA4        -0.8300   -0.6900   -2.1090 cc        1 UIN      0.161900
      6 CA5         0.4800   -0.4960   -1.7700 cd        1 UIN     -0.204200
      7 CA6         0.7600    0.0610   -0.4640 cd        1 UIN      0.240100
      8 OA6         2.0880    0.2180   -0.1790 oh        1 UIN     -0.484100
      9 CB1         0.3400    0.0900    2.7660 ca        1 UIN     -0.088300
     10 CB2         1.5950    0.1020    3.3860 ca        1 UIN     -0.129000
     11 CB3         1.8990   -0.8320    4.3750 ca        1 UIN     -0.127000
     12 CB4         0.9540   -1.7860    4.7510 ca        1 UIN     -0.130000
     13 CB5        -0.2980   -1.8020    4.1360 ca        1 UIN     -0.127000
     14 CB6        -0.6060   -0.8700    3.1480 ca        1 UIN     -0.129000
     15 CG1         0.0170    1.0970    1.7010 c3        1 UIN      0.047800
     16 CG2        -1.1260    2.0150    2.1300 c3        1 UIN     -0.074400
     17 CG3        -0.6750    3.0230    3.1550 c3        1 UIN     -0.094100
     18 CD1        -1.3240   -1.2330   -3.4080 c3        1 UIN     -0.044200
     19 CD2        -1.5550   -0.1480   -4.4420 c3        1 UIN     -0.071400
     20 CD3        -0.4160    0.8400   -4.5820 c3        1 UIN     -0.082400
     21 CD4         0.9210    0.2020   -4.9010 c3        1 UIN     -0.078400
     22 CD5         1.8900    0.2060   -3.7350 c3        1 UIN     -0.074400
     23 CD6         1.6040   -0.8460   -2.6790 c3        1 UIN     -0.015200
     24 HO6         2.1860    0.3960    0.7720 ho        1 UIN      0.440000
     25 HB2         2.3420    0.8590    3.1040 ha        1 UIN      0.138500
     26 HB3         2.8860   -0.8140    4.8600 ha        1 UIN      0.133000
     27 HB4         1.1950   -2.5230    5.5310 ha        1 UIN      0.132000
     28 HB5        -1.0470   -2.5530    4.4320 ha        1 UIN      0.133000
     29 HB6        -1.5940   -0.8790    2.6590 ha        1 UIN      0.138500
     30 HG1         0.9200    1.7650    1.5520 hc        1 UIN      0.044700
     31 HG21       -1.9680    1.3980    2.5420 hc        1 UIN      0.061700
     32 HG22       -1.5220    2.5480    1.2250 hc        1 UIN      0.061700
     33 HG31       -1.5450    3.6340    3.4960 hc        1 UIN      0.034700
     34 HG32       -0.2320    2.5100    4.0440 hc        1 UIN      0.034700
     35 HG33        0.0930    3.7120    2.7280 hc        1 UIN      0.034700
     36 HD11       -0.5760   -1.9770   -3.7930 hc        1 UIN      0.071200
     37 HD12       -2.2920   -1.7790   -3.2320 hc        1 UIN      0.071200
     38 HD21       -1.7400   -0.6480   -5.4310 hc        1 UIN      0.050200
     39 HD22       -2.4860    0.4180   -4.1710 hc        1 UIN      0.050200
     40 HD31       -0.6850    1.5580   -5.4030 hc        1 UIN      0.046200
     41 HD32       -0.3360    1.4420   -3.6380 hc        1 UIN      0.046200
     42 HD41        0.7720   -0.8490   -5.2640 hc        1 UIN      0.039700
     43 HD42        1.3970    0.7700   -5.7450 hc        1 UIN      0.039700
     44 HD51        2.9220    0.0130   -4.1370 hc        1 UIN      0.045700
     45 HD52        1.9050    1.2200   -3.2560 hc        1 UIN      0.045700
     46 HD61        2.5350   -0.9870   -2.0620 hc        1 UIN      0.055700
     47 HD62        1.3940   -1.8310   -3.1780 hc        1 UIN      0.055700
@<TRIPOS>BOND
     1    1    2 1   
     2    1    7 2   
     3    1   15 1   
     4    2    3 2   
     5    2    4 1   
     6    4    5 1   
     7    5    6 2   
     8    5   18 1   
     9    6    7 1   
    10    6   23 1   
    11    7    8 1   
    12    8   24 1   
    13    9   10 ar  
    14    9   14 ar  
    15    9   15 1   
    16   10   11 ar  
    17   10   25 1   
    18   11   12 ar  
    19   11   26 1   
    20   12   13 ar  
    21   12   27 1   
    22   13   14 ar  
    23   13   28 1   
    24   14   29 1   
    25   15   16 1   
    26   15   30 1   
    27   16   17 1   
    28   16   31 1   
    29   16   32 1   
    30   17   33 1   
    31   17   34 1   
    32   17   35 1   
    33   18   19 1   
    34   18   36 1   
    35   18   37 1   
    36   19   20 1   
    37   19   38 1   
    38   19   39 1   
    39   20   21 1   
    40   20   40 1   
    41   20   41 1   
    42   21   22 1   
    43   21   42 1   
    44   21   43 1   
    45   22   23 1   
    46   22   44 1   
    47   22   45 1   
    48   23   46 1   
    49   23   47 1   
@<TRIPOS>SUBSTRUCTURE
     1 UIN         1 TEMP              0 ****  ****    0 ROOT
