@<TRIPOS>MOLECULE
UIN
   47    49     1     0     0
SMALL
bcc


@<TRIPOS>ATOM
      1 CA          0.1280   -0.0030   -0.0910 cc        1 UIN     -0.255400
      2 CA2         1.5730    0.0880   -0.1120 c         1 UIN      0.738800
      3 OA2         2.3770    0.1250   -1.0440 o         1 UIN     -0.583500
      4 OA3         2.2720    0.1810    1.1030 os        1 UIN     -0.330200
      5 CA4         1.5980    0.1100    2.2890 cc        1 UIN      0.175900
      6 CA5         0.2410   -0.0450    2.3650 cd        1 UIN     -0.255200
      7 CA6        -0.5080   -0.0530    1.1270 cd        1 UIN      0.218100
      8 OA6        -1.8780   -0.1080    1.1260 oh        1 UIN     -0.483100
      9 CB1        -0.6590   -1.4150   -1.9640 ca        1 UIN     -0.074300
     10 CB2        -1.8630   -2.1310   -1.9850 ca        1 UIN     -0.123000
     11 CB3        -1.9130   -3.4120   -2.5310 ca        1 UIN     -0.134000
     12 CB4        -0.7610   -3.9930   -3.0600 ca        1 UIN     -0.133000
     13 CB5         0.4420   -3.2880   -3.0370 ca        1 UIN     -0.134000
     14 CB6         0.4940   -2.0060   -2.4920 ca        1 UIN     -0.123000
     15 CG1        -0.6350   -0.0320   -1.3790 c3        1 UIN      0.051800
     16 CG2        -0.1030    1.0010   -2.3690 c3        1 UIN     -0.079400
     17 CG3        -1.0870    1.2710   -3.4780 c3        1 UIN     -0.092100
     18 CD1         2.5310    0.2270    3.4490 c3        1 UIN     -0.047200
     19 CD2         2.6580    1.6550    3.9480 c3        1 UIN     -0.072400
     20 CD3         1.3470    2.3930    4.1130 c3        1 UIN     -0.082400
     21 CD4         0.3720    1.7250    5.0630 c3        1 UIN     -0.075400
     22 CD5        -0.8030    1.0670    4.3650 c3        1 UIN     -0.079400
     23 CD6        -0.4470   -0.2340    3.6690 c3        1 UIN     -0.025200
     24 HO6        -2.1980    0.1150    2.0140 ho        1 UIN      0.431000
     25 HB2        -2.7750   -1.6810   -1.5650 ha        1 UIN      0.143000
     26 HB3        -2.8640   -3.9650   -2.5440 ha        1 UIN      0.128500
     27 HB4        -0.8010   -5.0040   -3.4910 ha        1 UIN      0.127000
     28 HB5         1.3540   -3.7430   -3.4500 ha        1 UIN      0.128500
     29 HB6         1.4500   -1.4560   -2.4700 ha        1 UIN      0.143000
     30 HG1        -1.7030    0.2610   -1.1360 hc        1 UIN      0.070700
     31 HG21        0.8720    0.6470   -2.7990 hc        1 UIN      0.054200
     32 HG22        0.1080    1.9540   -1.8150 hc        1 UIN      0.054200
     33 HG31       -0.6530    1.9980   -4.2060 hc        1 UIN      0.034367
     34 HG32       -2.0350    1.7000   -3.0730 hc        1 UIN      0.034367
     35 HG33       -1.3330    0.3270   -4.0230 hc        1 UIN      0.034367
     36 HD11        2.1670   -0.4380    4.2770 hc        1 UIN      0.071700
     37 HD12        3.5480   -0.1400    3.1390 hc        1 UIN      0.071700
     38 HD21        3.2000    1.6290    4.9310 hc        1 UIN      0.051700
     39 HD22        3.2980    2.2320    3.2260 hc        1 UIN      0.051700
     40 HD31        0.8690    2.5250    3.1060 hc        1 UIN      0.047200
     41 HD32        1.5820    3.4220    4.4970 hc        1 UIN      0.047200
     42 HD41        0.9060    0.9660    5.6940 hc        1 UIN      0.042700
     43 HD42       -0.0370    2.5010    5.7650 hc        1 UIN      0.042700
     44 HD51       -1.2520    1.7800    3.6260 hc        1 UIN      0.043200
     45 HD52       -1.5900    0.8460    5.1360 hc        1 UIN      0.043200
     46 HD61       -1.3850   -0.8380    3.5160 hc        1 UIN      0.051200
     47 HD62        0.1990   -0.8530    4.3510 hc        1 UIN      0.051200
@<TRIPOS>BOND
     1    1    2 1   
     2    1    7 2   
     3    1   15 1   
     4    2    3 2   
     5    2    4 1   
     6    4    5 1   
     7    5    6 2   
     8    5   18 1   
     9    6    7 1   
    10    6   23 1   
    11    7    8 1   
    12    8   24 1   
    13    9   10 ar  
    14    9   14 ar  
    15    9   15 1   
    16   10   11 ar  
    17   10   25 1   
    18   11   12 ar  
    19   11   26 1   
    20   12   13 ar  
    21   12   27 1   
    22   13   14 ar  
    23   13   28 1   
    24   14   29 1   
    25   15   16 1   
    26   15   30 1   
    27   16   17 1   
    28   16   31 1   
    29   16   32 1   
    30   17   33 1   
    31   17   34 1   
    32   17   35 1   
    33   18   19 1   
    34   18   36 1   
    35   18   37 1   
    36   19   20 1   
    37   19   38 1   
    38   19   39 1   
    39   20   21 1   
    40   20   40 1   
    41   20   41 1   
    42   21   22 1   
    43   21   42 1   
    44   21   43 1   
    45   22   23 1   
    46   22   44 1   
    47   22   45 1   
    48   23   46 1   
    49   23   47 1   
@<TRIPOS>SUBSTRUCTURE
     1 UIN         1 TEMP              0 ****  ****    0 ROOT
