@<TRIPOS>MOLECULE
UIP
   64    69     1     0     0
SMALL
bcc


@<TRIPOS>ATOM
      1 N1          0.9230    1.3270    0.5500 n2        1 UIP     -0.682100
      2 C3          0.9220    0.5100   -0.4160 ce        1 UIP      0.634800
      3 N2          0.0380   -0.7360   -0.5300 nz        1 UIP     -0.891600
      4 C4          1.7860    0.5830   -1.6150 ca        1 UIP     -0.218900
      5 C9          1.2060    0.7190   -2.8830 ca        1 UIP     -0.088000
      6 C8          2.0100    0.6510   -4.0170 ca        1 UIP     -0.096500
      7 C7          3.3920    0.4490   -3.8900 ca        1 UIP     -0.014300
      8 C6          3.9700    0.4130   -2.6130 ca        1 UIP     -0.096500
      9 C5          3.1730    0.4730   -1.4730 ca        1 UIP     -0.088000
     10 C10         4.2880    0.2490   -5.0860 c3        1 UIP      0.223800
     11 N11         3.7720    0.9090   -6.2950 n3        1 UIP     -0.710600
     12 C12         4.4830    2.1240   -6.6960 c3        1 UIP      0.151800
     13 C13         5.1350    1.9110   -8.0710 c3        1 UIP     -0.099400
     14 C14         4.6910    0.5350   -8.5490 c3        1 UIP     -0.093400
     15 C15         3.8050   -0.0450   -7.4280 c3        1 UIP      0.165500
     16 C16         4.2830   -1.4150   -6.9210 c3        1 UIP     -0.088700
     17 C17         3.2180   -2.5410   -7.0870 c3        1 UIP      0.113700
     18 N19         2.9000   -2.9830   -5.7310 n         1 UIP     -0.472800
     19 C20         3.5630   -2.2520   -4.7520 c         1 UIP      0.711500
     20 O21         3.4190   -2.4490   -3.5320 o         1 UIP     -0.659500
     21 C22         4.5150   -1.2530   -5.4020 c3        1 UIP     -0.146700
     22 C23         1.9200   -3.9850   -5.4300 c3        1 UIP      0.148300
     23 C24         0.5280   -3.4740   -5.1560 ca        1 UIP     -0.108300
     24 C32        -0.4600   -3.5760   -6.1360 ca        1 UIP     -0.101000
     25 C31        -1.7900   -3.1850   -5.8990 ca        1 UIP     -0.101000
     26 C30        -2.0620   -2.6860   -4.6410 ca        1 UIP      0.076100
     27 O29        -3.2770   -2.2400   -4.1280 os        1 UIP     -0.311900
     28 C28        -3.0440   -1.8620   -2.7580 c3        1 UIP      0.328200
     29 O27        -1.6260   -2.0230   -2.4890 os        1 UIP     -0.426900
     30 C26        -1.0560   -2.5630   -3.6500 ca        1 UIP      0.015100
     31 C25         0.2470   -2.9510   -3.8760 ca        1 UIP     -0.097000
     32 C18         3.7660   -3.6230   -8.0270 c3        1 UIP     -0.095400
     33 C42         2.7050   -4.5040   -8.6360 c3        1 UIP     -0.099100
     34 HN1         0.3450    1.2280    1.3560 hn        1 UIP      0.452400
     35 HN21       -0.5630   -0.6380   -1.3630 hn        1 UIP      0.461133
     36 HN22        0.6400   -1.5530   -0.6830 hn        1 UIP      0.461133
     37 H9          0.1250    0.8860   -2.9950 ha        1 UIP      0.143500
     38 H8          1.5480    0.7490   -5.0130 ha        1 UIP      0.165500
     39 H6          5.0610    0.3040   -2.5030 ha        1 UIP      0.165500
     40 H5          3.6330    0.4260   -0.4740 ha        1 UIP      0.143500
     41 H10         5.3020    0.6750   -4.8030 h1        1 UIP      0.061700
     42 H121        3.7080    2.9370   -6.7580 h1        1 UIP      0.056200
     43 H122        5.2510    2.4430   -5.9410 h1        1 UIP      0.056200
     44 H131        6.2490    1.9660   -7.9890 hc        1 UIP      0.059200
     45 H132        4.8090    2.7090   -8.7820 hc        1 UIP      0.059200
     46 H141        4.1010    0.6110   -9.4950 hc        1 UIP      0.057700
     47 H142        5.5730   -0.1190   -8.7530 hc        1 UIP      0.057700
     48 H15         2.7440   -0.1150   -7.8020 h1        1 UIP      0.075700
     49 H16         5.2340   -1.7160   -7.4280 hc        1 UIP      0.084700
     50 H17         2.2750   -2.1220   -7.5480 h1        1 UIP      0.060700
     51 H22         5.5570   -1.5400   -5.1060 hc        1 UIP      0.099700
     52 H231        1.8780   -4.7140   -6.2890 h1        1 UIP      0.076700
     53 H232        2.2730   -4.5400   -4.5090 h1        1 UIP      0.076700
     54 H32        -0.2020   -3.9840   -7.1270 ha        1 UIP      0.152000
     55 H31        -2.5670   -3.2780   -6.6700 ha        1 UIP      0.173000
     56 H281       -3.6140   -2.5540   -2.0890 h2        1 UIP      0.077700
     57 H282       -3.3040   -0.7810   -2.6390 h2        1 UIP      0.077700
     58 H25         1.0450   -2.8690   -3.1230 ha        1 UIP      0.163000
     59 H181        4.5280   -4.2520   -7.4970 hc        1 UIP      0.058700
     60 H182        4.3010   -3.0870   -8.8590 hc        1 UIP      0.058700
     61 H421        1.7280   -3.9700   -8.7240 hc        1 UIP      0.040700
     62 H422        2.5490   -5.4320   -8.0330 hc        1 UIP      0.040700
     63 H423        3.0180   -4.8240   -9.6610 hc        1 UIP      0.040700
     64 H23        -0.5470   -0.8980    0.2880 hn        1 UIP      0.461133
@<TRIPOS>BOND
     1    1    2 2   
     2    1   34 1   
     3    2    3 1   
     4    2    4 1   
     5    3   35 1   
     6    3   36 1   
     7    3   64 1   
     8    4    5 ar  
     9    4    9 ar  
    10    5    6 ar  
    11    5   37 1   
    12    6    7 ar  
    13    6   38 1   
    14    7    8 ar  
    15    7   10 1   
    16    8    9 ar  
    17    8   39 1   
    18    9   40 1   
    19   10   11 1   
    20   10   21 1   
    21   10   41 1   
    22   11   12 1   
    23   11   15 1   
    24   12   13 1   
    25   12   42 1   
    26   12   43 1   
    27   13   14 1   
    28   13   44 1   
    29   13   45 1   
    30   14   15 1   
    31   14   46 1   
    32   14   47 1   
    33   15   16 1   
    34   15   48 1   
    35   16   17 1   
    36   16   21 1   
    37   16   49 1   
    38   17   18 1   
    39   17   32 1   
    40   17   50 1   
    41   18   19 1   
    42   18   22 1   
    43   19   20 2   
    44   19   21 1   
    45   21   51 1   
    46   22   23 1   
    47   22   52 1   
    48   22   53 1   
    49   23   24 ar  
    50   23   31 ar  
    51   24   25 ar  
    52   24   54 1   
    53   25   26 ar  
    54   25   55 1   
    55   26   27 1   
    56   26   30 ar  
    57   27   28 1   
    58   28   29 1   
    59   28   56 1   
    60   28   57 1   
    61   29   30 1   
    62   30   31 ar  
    63   31   58 1   
    64   32   33 1   
    65   32   59 1   
    66   32   60 1   
    67   33   61 1   
    68   33   62 1   
    69   33   63 1   
@<TRIPOS>SUBSTRUCTURE
     1 UIP         1 TEMP              0 ****  ****    0 ROOT
