@<TRIPOS>MOLECULE
UIP
   63    68     1     0     0
SMALL
bcc


@<TRIPOS>ATOM
      1 N1         -2.4490    0.6050   -5.5270 n2        1 UIP     -0.827100
      2 C3         -2.6520   -0.3970   -4.7270 ce        1 UIP      0.650800
      3 N2         -3.0420   -1.7100   -5.0810 nh        1 UIP     -0.955800
      4 C4         -2.5470   -0.1700   -3.2500 ca        1 UIP     -0.137900
      5 C9         -1.3960    0.4130   -2.7160 ca        1 UIP     -0.102000
      6 C8         -1.2860    0.6040   -1.3370 ca        1 UIP     -0.114500
      7 C7         -2.3280    0.2260   -0.4860 ca        1 UIP     -0.063300
      8 C6         -3.4890   -0.3410   -1.0330 ca        1 UIP     -0.114500
      9 C5         -3.5980   -0.5430   -2.4060 ca        1 UIP     -0.102000
     10 C10        -2.2760    0.4320    1.0030 c3        1 UIP      0.232800
     11 N11        -1.4800    1.6130    1.3940 n3        1 UIP     -0.694600
     12 C12        -2.2620    2.8290    1.6150 c3        1 UIP      0.150800
     13 C13        -2.2320    3.2020    3.1070 c3        1 UIP     -0.101400
     14 C14        -1.2700    2.2260    3.7710 c3        1 UIP     -0.094400
     15 C15        -0.7540    1.3030    2.6470 c3        1 UIP      0.159500
     16 C16        -0.9120   -0.1930    2.9630 c3        1 UIP     -0.087700
     17 C17         0.4410   -0.9620    2.9660 c3        1 UIP      0.097700
     18 N19         0.4140   -1.8510    1.8060 n         1 UIP     -0.458800
     19 C20        -0.7810   -1.7220    1.0750 c         1 UIP      0.702500
     20 O21        -1.0200   -2.3760    0.0500 o         1 UIP     -0.608500
     21 C22        -1.7410   -0.7850    1.7990 c3        1 UIP     -0.143700
     22 C23         1.6360   -2.2620    1.1690 c3        1 UIP      0.137300
     23 C24         2.4570   -1.1650    0.5440 ca        1 UIP     -0.124300
     24 C32         3.6470   -0.7560    1.1460 ca        1 UIP     -0.124000
     25 C31         4.4710    0.2330    0.5780 ca        1 UIP     -0.119000
     26 C30         4.0330    0.7830   -0.6090 ca        1 UIP      0.061100
     27 O29         4.6310    1.7680   -1.3870 os        1 UIP     -0.334900
     28 C28         3.7640    1.9860   -2.5250 c3        1 UIP      0.321200
     29 O27         2.6320    1.0950   -2.3970 os        1 UIP     -0.331900
     30 C26         2.8180    0.3740   -1.2220 ca        1 UIP      0.053100
     31 C25         2.0100   -0.5950   -0.6680 ca        1 UIP     -0.098000
     32 C18         0.5960   -1.6880    4.3100 c3        1 UIP     -0.083400
     33 C42         1.9290   -2.3650    4.4810 c3        1 UIP     -0.093100
     34 HN1        -2.5220    0.4150   -6.5040 hn        1 UIP      0.379400
     35 HN21       -2.7970   -2.0140   -5.9940 hn        1 UIP      0.397800
     36 HN22       -2.9040   -2.3950   -4.3750 hn        1 UIP      0.397800
     37 H9         -0.5760    0.7280   -3.3780 ha        1 UIP      0.145500
     38 H8         -0.3690    1.0600   -0.9320 ha        1 UIP      0.139500
     39 H6         -4.3200   -0.6360   -0.3750 ha        1 UIP      0.139500
     40 H5         -4.5150   -0.9880   -2.8230 ha        1 UIP      0.145500
     41 H10        -3.3540    0.5630    1.3450 h1        1 UIP      0.039700
     42 H121       -3.3200    2.7280    1.2510 h1        1 UIP      0.055700
     43 H122       -1.7680    3.6370    1.0070 h1        1 UIP      0.055700
     44 H131       -3.2540    3.1210    3.5510 hc        1 UIP      0.049200
     45 H132       -1.8890    4.2580    3.2360 hc        1 UIP      0.049200
     46 H141       -1.7870    1.6440    4.5730 hc        1 UIP      0.048700
     47 H142       -0.4130    2.7650    4.2440 hc        1 UIP      0.048700
     48 H15         0.3270    1.5490    2.4450 h1        1 UIP      0.076700
     49 H16        -1.4390   -0.3410    3.9380 hc        1 UIP      0.072700
     50 H17         1.3080   -0.2440    2.8590 h1        1 UIP      0.060700
     51 H22        -2.6040   -1.3970    2.1630 hc        1 UIP      0.088700
     52 H231        1.3580   -3.0040    0.3620 h1        1 UIP      0.072700
     53 H232        2.2640   -2.7940    1.9400 h1        1 UIP      0.072700
     54 H32         3.9620   -1.2180    2.0950 ha        1 UIP      0.136000
     55 H31         5.4070    0.5450    1.0550 ha        1 UIP      0.155000
     56 H281        4.3230    1.7220   -3.4550 h2        1 UIP      0.073700
     57 H282        3.3930    3.0410   -2.4930 h2        1 UIP      0.073700
     58 H25         1.0620   -0.9110   -1.1310 ha        1 UIP      0.174000
     59 H181       -0.2270   -2.4380    4.4370 hc        1 UIP      0.047700
     60 H182        0.4720   -0.9110    5.1130 hc        1 UIP      0.047700
     61 H421        2.1100   -2.5830    5.5620 hc        1 UIP      0.036700
     62 H422        1.9600   -3.3340    3.9250 hc        1 UIP      0.036700
     63 H423        2.7600   -1.7160    4.1100 hc        1 UIP      0.036700
@<TRIPOS>BOND
     1    1    2 2   
     2    1   34 1   
     3    2    3 1   
     4    2    4 1   
     5    3   35 1   
     6    3   36 1   
     7    4    5 ar  
     8    4    9 ar  
     9    5    6 ar  
    10    5   37 1   
    11    6    7 ar  
    12    6   38 1   
    13    7    8 ar  
    14    7   10 1   
    15    8    9 ar  
    16    8   39 1   
    17    9   40 1   
    18   10   11 1   
    19   10   21 1   
    20   10   41 1   
    21   11   12 1   
    22   11   15 1   
    23   12   13 1   
    24   12   42 1   
    25   12   43 1   
    26   13   14 1   
    27   13   44 1   
    28   13   45 1   
    29   14   15 1   
    30   14   46 1   
    31   14   47 1   
    32   15   16 1   
    33   15   48 1   
    34   16   17 1   
    35   16   21 1   
    36   16   49 1   
    37   17   18 1   
    38   17   32 1   
    39   17   50 1   
    40   18   19 1   
    41   18   22 1   
    42   19   20 2   
    43   19   21 1   
    44   21   51 1   
    45   22   23 1   
    46   22   52 1   
    47   22   53 1   
    48   23   24 ar  
    49   23   31 ar  
    50   24   25 ar  
    51   24   54 1   
    52   25   26 ar  
    53   25   55 1   
    54   26   27 1   
    55   26   30 ar  
    56   27   28 1   
    57   28   29 1   
    58   28   56 1   
    59   28   57 1   
    60   29   30 1   
    61   30   31 ar  
    62   31   58 1   
    63   32   33 1   
    64   32   59 1   
    65   32   60 1   
    66   33   61 1   
    67   33   62 1   
    68   33   63 1   
@<TRIPOS>SUBSTRUCTURE
     1 UIP         1 TEMP              0 ****  ****    0 ROOT
