@<TRIPOS>MOLECULE
UIP
   64    69     1     0     0
SMALL
bcc


@<TRIPOS>ATOM
      1 N1          0.9790    1.3800    0.5400 n2        1 UIP     -0.682100
      2 C3          0.9700    0.5550   -0.4200 ce        1 UIP      0.634800
      3 N2          0.0870   -0.6930   -0.5140 n4        1 UIP     -0.891600
      4 C4          1.8220    0.6190   -1.6270 ca        1 UIP     -0.218900
      5 C9          1.2300    0.7420   -2.8910 ca        1 UIP     -0.088000
      6 C8          2.0230    0.6660   -4.0310 ca        1 UIP     -0.096500
      7 C7          3.4060    0.4680   -3.9160 ca        1 UIP     -0.014300
      8 C6          3.9970    0.4450   -2.6450 ca        1 UIP     -0.096500
      9 C5          3.2110    0.5140   -1.4970 ca        1 UIP     -0.088000
     10 C10         4.2920    0.2590   -5.1190 c3        1 UIP      0.223800
     11 N11         3.7620    0.9070   -6.3290 n3        1 UIP     -0.710600
     12 C12         4.4660    2.1190   -6.7480 c3        1 UIP      0.151800
     13 C13         5.1050    1.8960   -8.1280 c3        1 UIP     -0.099400
     14 C14         4.6590    0.5150   -8.5880 c3        1 UIP     -0.093400
     15 C15         3.7860   -0.0570   -7.4530 c3        1 UIP      0.165500
     16 C16         4.2730   -1.4210   -6.9390 c3        1 UIP     -0.088700
     17 C17         3.2090   -2.5520   -7.0840 c3        1 UIP      0.113700
     18 N19         2.9050   -2.9820   -5.7220 n         1 UIP     -0.471800
     19 C20         3.5750   -2.2400   -4.7560 c         1 UIP      0.711500
     20 O21         3.4430   -2.4260   -3.5330 o         1 UIP     -0.659500
     21 C22         4.5190   -1.2460   -5.4240 c3        1 UIP     -0.146700
     22 C23         1.9300   -3.9820   -5.4030 c3        1 UIP      0.148300
     23 C24         0.5400   -3.4720   -5.1200 ca        1 UIP     -0.108300
     24 C32        -0.4580   -3.5840   -6.0900 ca        1 UIP     -0.101000
     25 C31        -1.7860   -3.1930   -5.8440 ca        1 UIP     -0.101000
     26 C30        -2.0470   -2.6820   -4.5880 ca        1 UIP      0.076100
     27 O29        -3.2580   -2.2340   -4.0680 os        1 UIP     -0.311900
     28 C28        -3.0130   -1.8430   -2.7040 c3        1 UIP      0.328200
     29 O27        -1.5920   -2.0000   -2.4460 os        1 UIP     -0.426900
     30 C26        -1.0320   -2.5490   -3.6070 ca        1 UIP      0.015100
     31 C25         0.2690   -2.9370   -3.8420 ca        1 UIP     -0.097000
     32 C18         3.7520   -3.6410   -8.0200 c3        1 UIP     -0.095400
     33 C42         2.6890   -4.5320   -8.6090 c3        1 UIP     -0.099100
     34 HN1         0.4090    1.2880    1.3520 hn        1 UIP      0.452400
     35 HN21       -0.4890   -0.8490    0.3120 hn        1 UIP      0.461133
     36 HN22       -0.5220   -0.6030   -1.3410 hn        1 UIP      0.461133
     37 H9          0.1470    0.9070   -2.9940 ha        1 UIP      0.143500
     38 H8          1.5510    0.7540   -5.0240 ha        1 UIP      0.165500
     39 H6          5.0900    0.3390   -2.5450 ha        1 UIP      0.165500
     40 H5          3.6810    0.4770   -0.5030 ha        1 UIP      0.143500
     41 H10         5.3080    0.6900   -4.8500 h1        1 UIP      0.061700
     42 H121        5.2420    2.4470   -6.0040 h1        1 UIP      0.056200
     43 H122        3.6890    2.9310   -6.8090 h1        1 UIP      0.056200
     44 H131        4.7690    2.6870   -8.8420 hc        1 UIP      0.059200
     45 H132        6.2190    1.9540   -8.0580 hc        1 UIP      0.059200
     46 H141        4.0590    0.5810   -9.5300 hc        1 UIP      0.057700
     47 H142        5.5410   -0.1390   -8.7960 hc        1 UIP      0.057700
     48 H15         2.7210   -0.1340   -7.8160 h1        1 UIP      0.075700
     49 H16         5.2200   -1.7240   -7.4520 hc        1 UIP      0.084700
     50 H17         2.2610   -2.1400   -7.5420 h1        1 UIP      0.060700
     51 H22         5.5640   -1.5270   -5.1350 hc        1 UIP      0.099700
     52 H231        1.8810   -4.7190   -6.2550 h1        1 UIP      0.076700
     53 H232        2.2910   -4.5290   -4.4800 h1        1 UIP      0.076700
     54 H32        -0.2080   -4.0000   -7.0800 ha        1 UIP      0.152000
     55 H31        -2.5700   -3.2940   -6.6060 ha        1 UIP      0.173000
     56 H281       -3.5750   -2.5300   -2.0230 h2        1 UIP      0.077700
     57 H282       -3.2730   -0.7610   -2.5910 h2        1 UIP      0.077700
     58 H25         1.0740   -2.8480   -3.0980 ha        1 UIP      0.163000
     59 H181        4.2770   -3.1120   -8.8620 hc        1 UIP      0.058700
     60 H182        4.5220   -4.2620   -7.4910 hc        1 UIP      0.058700
     61 H421        1.7090   -4.0020   -8.6930 hc        1 UIP      0.040700
     62 H422        2.9930   -4.8610   -9.6340 hc        1 UIP      0.040700
     63 H423        2.5420   -5.4540   -7.9950 hc        1 UIP      0.040700
     64 H23         0.6890   -1.5100   -0.6660 hn        1 UIP      0.461133
@<TRIPOS>BOND
     1    1    2 2   
     2    1   34 1   
     3    2    3 1   
     4    2    4 1   
     5    3   35 1   
     6    3   36 1   
     7    3   64 1   
     8    4    5 ar  
     9    4    9 ar  
    10    5    6 ar  
    11    5   37 1   
    12    6    7 ar  
    13    6   38 1   
    14    7    8 ar  
    15    7   10 1   
    16    8    9 ar  
    17    8   39 1   
    18    9   40 1   
    19   10   11 1   
    20   10   21 1   
    21   10   41 1   
    22   11   12 1   
    23   11   15 1   
    24   12   13 1   
    25   12   42 1   
    26   12   43 1   
    27   13   14 1   
    28   13   44 1   
    29   13   45 1   
    30   14   15 1   
    31   14   46 1   
    32   14   47 1   
    33   15   16 1   
    34   15   48 1   
    35   16   17 1   
    36   16   21 1   
    37   16   49 1   
    38   17   18 1   
    39   17   32 1   
    40   17   50 1   
    41   18   19 1   
    42   18   22 1   
    43   19   20 2   
    44   19   21 1   
    45   21   51 1   
    46   22   23 1   
    47   22   52 1   
    48   22   53 1   
    49   23   24 ar  
    50   23   31 ar  
    51   24   25 ar  
    52   24   54 1   
    53   25   26 ar  
    54   25   55 1   
    55   26   27 1   
    56   26   30 ar  
    57   27   28 1   
    58   28   29 1   
    59   28   56 1   
    60   28   57 1   
    61   29   30 1   
    62   30   31 ar  
    63   31   58 1   
    64   32   33 1   
    65   32   59 1   
    66   32   60 1   
    67   33   61 1   
    68   33   62 1   
    69   33   63 1   
@<TRIPOS>SUBSTRUCTURE
     1 UIP         1 TEMP              0 ****  ****    0 ROOT
