@<TRIPOS>MOLECULE
UIP
   64    69     1     0     0
SMALL
bcc


@<TRIPOS>ATOM
      1 N1          0.9320    1.3810    0.5260 n2        1 UIP     -0.682100
      2 C3          0.9320    0.5520   -0.4310 ce        1 UIP      0.634800
      3 N2          0.0560   -0.7000   -0.5260 n4        1 UIP     -0.891600
      4 C4          1.7900    0.6180   -1.6340 ca        1 UIP     -0.218900
      5 C9          1.2040    0.7360   -2.9010 ca        1 UIP     -0.088000
      6 C8          2.0040    0.6610   -4.0370 ca        1 UIP     -0.096500
      7 C7          3.3870    0.4700   -3.9150 ca        1 UIP     -0.014300
      8 C6          3.9710    0.4520   -2.6400 ca        1 UIP     -0.096500
      9 C5          3.1790    0.5200   -1.4970 ca        1 UIP     -0.088000
     10 C10         4.2790    0.2620   -5.1120 c3        1 UIP      0.223800
     11 N11         3.7530    0.9070   -6.3260 n3        1 UIP     -0.710600
     12 C12         4.4560    2.1210   -6.7430 c3        1 UIP      0.151800
     13 C13         5.1030    1.8980   -8.1190 c3        1 UIP     -0.099400
     14 C14         4.6650    0.5140   -8.5790 c3        1 UIP     -0.093400
     15 C15         3.7870   -0.0590   -7.4490 c3        1 UIP      0.165500
     16 C16         4.2750   -1.4210   -6.9300 c3        1 UIP     -0.088700
     17 C17         3.2150   -2.5540   -7.0780 c3        1 UIP      0.113700
     18 N19         2.9080   -2.9840   -5.7160 n         1 UIP     -0.472800
     19 C20         3.5710   -2.2390   -4.7480 c         1 UIP      0.711500
     20 O21         3.4360   -2.4240   -3.5250 o         1 UIP     -0.659500
     21 C22         4.5140   -1.2410   -5.4140 c3        1 UIP     -0.146700
     22 C23         1.9370   -3.9900   -5.3990 c3        1 UIP      0.148300
     23 C24         0.5430   -3.4870   -5.1230 ca        1 UIP     -0.108300
     24 C32        -0.4500   -3.6090   -6.0960 ca        1 UIP     -0.101000
     25 C31        -1.7820   -3.2250   -5.8560 ca        1 UIP     -0.101000
     26 C30        -2.0510   -2.7130   -4.6020 ca        1 UIP      0.076100
     27 O29        -3.2660   -2.2710   -4.0880 os        1 UIP     -0.311900
     28 C28        -3.0290   -1.8750   -2.7240 c3        1 UIP      0.328200
     29 O27        -1.6080   -2.0220   -2.4610 os        1 UIP     -0.426900
     30 C26        -1.0400   -2.5710   -3.6180 ca        1 UIP      0.015100
     31 C25         0.2650   -2.9520   -3.8470 ca        1 UIP     -0.097000
     32 C18         3.7630   -3.6430   -8.0110 c3        1 UIP     -0.095400
     33 C42         2.7030   -4.5340   -8.6060 c3        1 UIP     -0.099100
     34 HN1         0.3590    1.2880    1.3360 hn        1 UIP      0.452400
     35 HN21       -0.5480   -0.6160   -1.3580 hn        1 UIP      0.461133
     36 HN22        0.6630   -1.5150   -0.6710 hn        1 UIP      0.461133
     37 H9          0.1210    0.8950   -3.0100 ha        1 UIP      0.143500
     38 H8          1.5360    0.7450   -5.0330 ha        1 UIP      0.165500
     39 H6          5.0640    0.3510   -2.5340 ha        1 UIP      0.165500
     40 H5          3.6440    0.4870   -0.5000 ha        1 UIP      0.143500
     41 H10         5.2920    0.6980   -4.8380 h1        1 UIP      0.061700
     42 H121        3.6750    2.9300   -6.8100 h1        1 UIP      0.056200
     43 H122        5.2250    2.4530   -5.9950 h1        1 UIP      0.056200
     44 H131        6.2170    1.9600   -8.0420 hc        1 UIP      0.059200
     45 H132        4.7690    2.6870   -8.8370 hc        1 UIP      0.059200
     46 H141        4.0720    0.5770   -9.5250 hc        1 UIP      0.057700
     47 H142        5.5510   -0.1370   -8.7800 hc        1 UIP      0.057700
     48 H15         2.7250   -0.1390   -7.8180 h1        1 UIP      0.075700
     49 H16         5.2260   -1.7220   -7.4380 hc        1 UIP      0.084700
     50 H17         2.2670   -2.1450   -7.5380 h1        1 UIP      0.060700
     51 H22         5.5590   -1.5180   -5.1200 hc        1 UIP      0.099700
     52 H231        1.8960   -4.7290   -6.2500 h1        1 UIP      0.076200
     53 H232        2.2990   -4.5330   -4.4740 h1        1 UIP      0.076200
     54 H32        -0.1940   -4.0260   -7.0840 ha        1 UIP      0.152000
     55 H31        -2.5620   -3.3330   -6.6210 ha        1 UIP      0.173000
     56 H281       -3.5890   -2.5640   -2.0440 h2        1 UIP      0.077700
     57 H282       -3.2960   -0.7950   -2.6150 h2        1 UIP      0.077700
     58 H25         1.0660   -2.8550   -3.1000 ha        1 UIP      0.163000
     59 H181        4.2920   -3.1130   -8.8500 hc        1 UIP      0.058700
     60 H182        4.5300   -4.2630   -7.4780 hc        1 UIP      0.058700
     61 H421        1.7230   -4.0030   -8.6940 hc        1 UIP      0.040700
     62 H422        2.5530   -5.4560   -7.9940 hc        1 UIP      0.040700
     63 H423        3.0120   -4.8610   -9.6300 hc        1 UIP      0.040700
     64 H23        -0.5240   -0.8560    0.2960 hn        1 UIP      0.461133
@<TRIPOS>BOND
     1    1    2 2   
     2    1   34 1   
     3    2    3 1   
     4    2    4 1   
     5    3   35 1   
     6    3   36 1   
     7    3   64 1   
     8    4    5 ar  
     9    4    9 ar  
    10    5    6 ar  
    11    5   37 1   
    12    6    7 ar  
    13    6   38 1   
    14    7    8 ar  
    15    7   10 1   
    16    8    9 ar  
    17    8   39 1   
    18    9   40 1   
    19   10   11 1   
    20   10   21 1   
    21   10   41 1   
    22   11   12 1   
    23   11   15 1   
    24   12   13 1   
    25   12   42 1   
    26   12   43 1   
    27   13   14 1   
    28   13   44 1   
    29   13   45 1   
    30   14   15 1   
    31   14   46 1   
    32   14   47 1   
    33   15   16 1   
    34   15   48 1   
    35   16   17 1   
    36   16   21 1   
    37   16   49 1   
    38   17   18 1   
    39   17   32 1   
    40   17   50 1   
    41   18   19 1   
    42   18   22 1   
    43   19   20 2   
    44   19   21 1   
    45   21   51 1   
    46   22   23 1   
    47   22   52 1   
    48   22   53 1   
    49   23   24 ar  
    50   23   31 ar  
    51   24   25 ar  
    52   24   54 1   
    53   25   26 ar  
    54   25   55 1   
    55   26   27 1   
    56   26   30 ar  
    57   27   28 1   
    58   28   29 1   
    59   28   56 1   
    60   28   57 1   
    61   29   30 1   
    62   30   31 ar  
    63   31   58 1   
    64   32   33 1   
    65   32   59 1   
    66   32   60 1   
    67   33   61 1   
    68   33   62 1   
    69   33   63 1   
@<TRIPOS>SUBSTRUCTURE
     1 UIP         1 TEMP              0 ****  ****    0 ROOT
