@<TRIPOS>MOLECULE
UIP
   63    63     1     0     0
SMALL
bcc


@<TRIPOS>ATOM
      1 N1         -2.8020    1.1140    4.9460 n1        1 UIP     -0.295000
      2 C3         -1.9930    2.0990    4.6540 c1        1 UIP      0.129000
      3 N2         -1.7740    3.1510    5.6030 n2        1 UIP     -0.398000
      4 C4         -1.2730    2.1290    3.2830 c2        1 UIP     -0.055000
      5 C9         -1.9310    2.6250    2.1630 c2        1 UIP     -0.099000
      6 C8         -1.2880    2.6430    0.9270 c1        1 UIP     -0.105000
      7 C7          0.0170    2.1650    0.8120 c1        1 UIP     -0.062000
      8 C6          0.6750    1.6700    1.9320 c1        1 UIP     -0.117000
      9 C5          0.0290    1.6520    3.1710 c1        1 UIP     -0.110000
     10 C10         0.7900    2.3890   -0.4800 c3        1 UIP      0.033000
     11 N11         0.0430    2.9780   -1.3530 n3        1 UIP     -0.229000
     12 C12         0.2750    3.9240   -2.2200 c3        1 UIP     -0.080000
     13 C13        -0.8260    3.7440   -3.3920 c3        1 UIP     -0.175000
     14 C14        -0.9830    2.4380   -3.5540 c3        1 UIP     -0.169000
     15 C15        -0.6300    1.8240   -2.1910 c3        1 UIP     -0.030000
     16 C16         0.3130    0.8290   -2.3210 c3        1 UIP     -0.131000
     17 C17        -0.3600   -0.5490   -2.2380 c3        1 UIP      0.040000
     18 N19        -0.2610   -0.9780   -0.8680 n         1 UIP     -0.341000
     19 C20         0.9110   -0.1640   -0.2460 c2        1 UIP      0.324000
     20 O21         1.3760   -0.3190    0.8620 o         1 UIP     -0.347000
     21 C22         1.1850    0.9740   -1.1550 c3        1 UIP     -0.144000
     22 C23        -0.8880   -2.1700   -0.2900 c3        1 UIP      0.034000
     23 C24         0.2070   -3.0980    0.3000 c2        1 UIP     -0.105000
     24 C32         0.6060   -4.2380   -0.4040 c2        1 UIP     -0.128000
     25 C31         1.4720   -5.1600    0.1920 c1        1 UIP     -0.119000
     26 C30         1.9400   -4.9410    1.4980 c1        1 UIP      0.012000
     27 O29         2.7370   -5.7410    2.3710 os        1 UIP     -0.219000
     28 C28         2.9330   -5.0220    3.5590 c3        1 UIP      0.098000
     29 O27         2.1720   -3.8450    3.4800 os        1 UIP     -0.215000
     30 C26         1.5450   -3.8120    2.1960 c2        1 UIP      0.006000
     31 C25         0.6730   -2.8820    1.5960 c2        1 UIP     -0.094000
     32 C18         0.3370   -1.5070   -3.1210 c3        1 UIP     -0.177000
     33 C42        -0.4490   -1.6670   -4.4150 c3        1 UIP     -0.213000
     34 HN1        -3.2310    1.0960    5.7620 DU        1 UIP      0.136000
     35 HN21       -2.1080    3.0770    6.4550 hn        1 UIP      0.193000
     36 HN22       -1.3530    3.9160    5.3450 hn        1 UIP      0.193000
     37 H9         -2.8460    2.9600    2.2430 ha        1 UIP      0.145000
     38 H8         -1.7530    2.9930    0.1380 ha        1 UIP      0.141000
     39 H6          1.5910    1.3340    1.8530 ha        1 UIP      0.135000
     40 H5          0.4920    1.3030    3.9590 ha        1 UIP      0.143000
     41 H10         1.5950    2.9200   -0.3080 h1        1 UIP      0.096000
     42 H121        0.1750    4.8030   -1.7960 h1        1 UIP      0.087500
     43 H122        1.1790    3.8280   -2.5900 h1        1 UIP      0.087500
     44 H131       -0.5030    4.1510   -4.2240 hc        1 UIP      0.088500
     45 H132       -1.6750    4.1550   -3.1230 hc        1 UIP      0.088500
     46 H141       -1.9120    2.2330   -3.7900 hc        1 UIP      0.089500
     47 H142       -0.3750    2.1060   -4.2440 hc        1 UIP      0.089500
     48 H15        -1.4300    1.4900   -1.7410 h1        1 UIP      0.111000
     49 H16         0.8170    0.9270   -3.1530 hc        1 UIP      0.113000
     50 H17        -1.2990   -0.4770   -2.4980 h1        1 UIP      0.093000
     51 H22         2.1220    0.9750   -1.4290 hc        1 UIP      0.128000
     52 H231       -1.3820   -2.6510   -0.9880 h1        1 UIP      0.108000
     53 H232       -1.5040   -1.9020    0.4200 h1        1 UIP      0.108000
     54 H32         0.2160   -4.4320   -1.2750 ha        1 UIP      0.135000
     55 H31         1.7510   -5.9570   -0.3000 ha        1 UIP      0.153000
     56 H281        2.6170   -5.5600    4.3180 h2        1 UIP      0.110500
     57 H282        3.8820   -4.7870    3.6420 h2        1 UIP      0.110500
     58 H25         0.3650   -2.1070    2.1010 ha        1 UIP      0.182000
     59 H181        1.2360   -1.1700   -3.3240 hc        1 UIP      0.093500
     60 H182        0.4060   -2.3700   -2.6730 hc        1 UIP      0.093500
     61 H421       -1.3620   -1.9560   -4.2090 hc        1 UIP      0.075667
     62 H422       -0.0130   -2.3410   -4.9810 hc        1 UIP      0.075667
     63 H423       -0.4760   -0.8100   -4.8890 hc        1 UIP      0.075667
@<TRIPOS>BOND
     1    1    2 1   
     2    2    4 1   
     3    3   35 1   
     4    3   36 1   
     5    4    5 1   
     6    4    9 1   
     7    5    6 1   
     8    5   37 1   
     9    6   38 1   
    10    7    8 1   
    11    7   10 1   
    12    8   39 1   
    13    9   40 1   
    14   10   11 1   
    15   10   21 1   
    16   10   41 1   
    17   11   12 1   
    18   11   15 1   
    19   12   13 1   
    20   12   42 1   
    21   12   43 1   
    22   13   14 1   
    23   13   44 1   
    24   13   45 1   
    25   14   15 1   
    26   14   46 1   
    27   14   47 1   
    28   15   16 1   
    29   15   48 1   
    30   16   17 1   
    31   16   21 1   
    32   16   49 1   
    33   17   18 1   
    34   17   32 1   
    35   17   50 1   
    36   18   19 1   
    37   18   22 1   
    38   19   20 1   
    39   19   21 1   
    40   21   51 1   
    41   22   23 1   
    42   22   52 1   
    43   22   53 1   
    44   23   24 1   
    45   23   31 1   
    46   24   25 1   
    47   24   54 1   
    48   25   55 1   
    49   26   27 1   
    50   26   30 1   
    51   27   28 1   
    52   28   29 1   
    53   28   56 1   
    54   28   57 1   
    55   29   30 1   
    56   30   31 1   
    57   31   58 1   
    58   32   33 1   
    59   32   59 1   
    60   32   60 1   
    61   33   61 1   
    62   33   62 1   
    63   33   63 1   
@<TRIPOS>SUBSTRUCTURE
     1 UIP         1 TEMP              0 ****  ****    0 ROOT
