@<TRIPOS>MOLECULE
UIQ
   67    72     1     0     0
SMALL
bcc


@<TRIPOS>ATOM
      1 N1          1.3830   -1.4050    0.8120 n2        1 UIQ     -0.681100
      2 C3          2.2780   -0.6620    0.3120 ce        1 UIQ      0.634800
      3 N2          3.0700    0.4100    1.0650 n4        1 UIQ     -0.890600
      4 C4          2.7200   -0.6680   -1.1000 ca        1 UIQ     -0.219900
      5 C9          1.8170   -0.3110   -2.1070 ca        1 UIQ     -0.088000
      6 C8          2.2720   -0.1940   -3.4180 ca        1 UIQ     -0.096500
      7 C7          3.6220   -0.4190   -3.7260 ca        1 UIQ     -0.014300
      8 C6          4.4940   -0.8650   -2.7240 ca        1 UIQ     -0.096500
      9 C5          4.0470   -0.9900   -1.4120 ca        1 UIQ     -0.088000
     10 C10         4.0880   -0.1510   -5.1350 c3        1 UIQ      0.223800
     11 N11         5.2220   -1.0040   -5.5240 n3        1 UIQ     -0.710600
     12 C12         4.9040   -2.0750   -6.4690 c3        1 UIQ      0.151800
     13 C13         5.6640   -1.8460   -7.7860 c3        1 UIQ     -0.099400
     14 C14         6.5570   -0.6330   -7.5600 c3        1 UIQ     -0.093400
     15 C15         6.2880   -0.1630   -6.1160 c3        1 UIQ      0.165500
     16 C16         5.8770    1.3160   -6.0250 c3        1 UIQ     -0.084700
     17 C17         6.8190    2.1650   -5.1230 c3        1 UIQ      0.115700
     18 N19         5.9850    2.6500   -4.0260 n         1 UIQ     -0.473800
     19 C20         4.6790    2.1820   -4.0900 c         1 UIQ      0.712500
     20 O21         3.8030    2.4710   -3.2530 o         1 UIQ     -0.660500
     21 C22         4.4900    1.3330   -5.3430 c3        1 UIQ     -0.145700
     22 C23         6.4460    3.5650   -3.0220 c3        1 UIQ      0.151300
     23 C24         6.9310    2.9280   -1.7450 ca        1 UIQ     -0.104300
     24 C32         8.2940    2.9030   -1.4480 ca        1 UIQ     -0.101000
     25 C31         8.7850    2.3840   -0.2360 ca        1 UIQ     -0.101000
     26 C30         7.8400    1.8950    0.6430 ca        1 UIQ      0.076100
     27 O29         8.0340    1.3400    1.9050 os        1 UIQ     -0.311900
     28 C28         6.7320    1.0230    2.4320 c3        1 UIQ      0.328200
     29 O27         5.7500    1.3450    1.4110 os        1 UIQ     -0.427900
     30 C26         6.4560    1.9050    0.3380 ca        1 UIQ      0.015100
     31 C25         5.9700    2.4180   -0.8450 ca        1 UIQ     -0.098000
     32 C18         7.5640    3.2610   -5.9130 c3        1 UIQ     -0.078700
     33 C41         8.4460    2.6210   -6.9660 c3        1 UIQ     -0.094600
     34 C42         6.6500    4.2960   -6.5280 c3        1 UIQ     -0.094600
     35 HN1         1.0920   -1.3530    1.7630 hn        1 UIQ      0.452400
     36 HN21        4.0720    0.1670    1.0280 hn        1 UIQ      0.461133
     37 HN22        2.7870    0.5190    2.0370 hn        1 UIQ      0.461133
     38 H9          0.7600   -0.1160   -1.8700 ha        1 UIQ      0.143500
     39 H8          1.5670    0.1080   -4.2090 ha        1 UIQ      0.165500
     40 H6          5.5420   -1.1110   -2.9630 ha        1 UIQ      0.165500
     41 H5          4.7390   -1.3480   -0.6350 ha        1 UIQ      0.143500
     42 H10         3.1960   -0.3430   -5.8130 h1        1 UIQ      0.061700
     43 H121        5.2460   -3.0320   -5.9870 h1        1 UIQ      0.056200
     44 H122        3.8010   -2.1660   -6.6620 h1        1 UIQ      0.056200
     45 H131        4.9480   -1.6640   -8.6240 hc        1 UIQ      0.059200
     46 H132        6.2690   -2.7480   -8.0460 hc        1 UIQ      0.059200
     47 H141        7.6360   -0.9020   -7.6750 hc        1 UIQ      0.057200
     48 H142        6.3310    0.1720   -8.3010 hc        1 UIQ      0.057200
     49 H15         7.2100   -0.3510   -5.4950 h1        1 UIQ      0.075700
     50 H16         5.8150    1.7730   -7.0440 hc        1 UIQ      0.088700
     51 H17         7.6170    1.4990   -4.6730 h1        1 UIQ      0.059700
     52 H22         3.7200    1.8400   -5.9780 hc        1 UIQ      0.098700
     53 H231        5.5840    4.2500   -2.7580 h1        1 UIQ      0.073200
     54 H232        7.2740    4.1970   -3.4560 h1        1 UIQ      0.073200
     55 H32         9.0180    3.3070   -2.1740 ha        1 UIQ      0.151000
     56 H31         9.8580    2.3760   -0.0030 ha        1 UIQ      0.173000
     57 H281        6.5370    1.6640    3.3270 h2        1 UIQ      0.077200
     58 H282        6.6860   -0.0770    2.6290 h2        1 UIQ      0.077200
     59 H25         4.9010    2.4450   -1.1040 ha        1 UIQ      0.164000
     60 H18         8.2470    3.7930   -5.1880 hc        1 UIQ      0.050700
     61 H411        9.0280    3.4110   -7.5010 hc        1 UIQ      0.042700
     62 H412        9.1660    1.9100   -6.4940 hc        1 UIQ      0.042700
     63 H413        7.8400    2.0620   -7.7190 hc        1 UIQ      0.042700
     64 H421        6.0540    4.8180   -5.7410 hc        1 UIQ      0.042700
     65 H422        5.9440    3.8350   -7.2600 hc        1 UIQ      0.042700
     66 H423        7.2580    5.0610   -7.0710 hc        1 UIQ      0.042700
     67 H23         2.9560    1.3060    0.5770 hn        1 UIQ      0.461133
@<TRIPOS>BOND
     1    1    2 2   
     2    1   35 1   
     3    2    3 1   
     4    2    4 1   
     5    3   36 1   
     6    3   37 1   
     7    3   67 1   
     8    4    5 ar  
     9    4    9 ar  
    10    5    6 ar  
    11    5   38 1   
    12    6    7 ar  
    13    6   39 1   
    14    7    8 ar  
    15    7   10 1   
    16    8    9 ar  
    17    8   40 1   
    18    9   41 1   
    19   10   11 1   
    20   10   21 1   
    21   10   42 1   
    22   11   12 1   
    23   11   15 1   
    24   12   13 1   
    25   12   43 1   
    26   12   44 1   
    27   13   14 1   
    28   13   45 1   
    29   13   46 1   
    30   14   15 1   
    31   14   47 1   
    32   14   48 1   
    33   15   16 1   
    34   15   49 1   
    35   16   17 1   
    36   16   21 1   
    37   16   50 1   
    38   17   18 1   
    39   17   32 1   
    40   17   51 1   
    41   18   19 1   
    42   18   22 1   
    43   19   20 2   
    44   19   21 1   
    45   21   52 1   
    46   22   23 1   
    47   22   53 1   
    48   22   54 1   
    49   23   24 ar  
    50   23   31 ar  
    51   24   25 ar  
    52   24   55 1   
    53   25   26 ar  
    54   25   56 1   
    55   26   27 1   
    56   26   30 ar  
    57   27   28 1   
    58   28   29 1   
    59   28   57 1   
    60   28   58 1   
    61   29   30 1   
    62   30   31 ar  
    63   31   59 1   
    64   32   33 1   
    65   32   34 1   
    66   32   60 1   
    67   33   61 1   
    68   33   62 1   
    69   33   63 1   
    70   34   64 1   
    71   34   65 1   
    72   34   66 1   
@<TRIPOS>SUBSTRUCTURE
     1 UIQ         1 TEMP              0 ****  ****    0 ROOT
