@<TRIPOS>MOLECULE
UIQ
   66    71     1     0     0
SMALL
bcc


@<TRIPOS>ATOM
      1 N1         -5.7450   -2.5790    0.6560 n2        1 UIQ     -0.832100
      2 C3         -4.9500   -1.6880    0.1440 ce        1 UIQ      0.654800
      3 N2         -5.3210   -0.4890   -0.5030 nh        1 UIQ     -0.958800
      4 C4         -3.4710   -1.8760    0.2950 ca        1 UIQ     -0.137900
      5 C9         -2.8950   -3.1110   -0.0200 ca        1 UIQ     -0.103000
      6 C8         -1.5200   -3.2910    0.1100 ca        1 UIQ     -0.115500
      7 C7         -0.7050   -2.2420    0.5550 ca        1 UIQ     -0.065300
      8 C6         -1.2900   -1.0150    0.8850 ca        1 UIQ     -0.115500
      9 C5         -2.6660   -0.8290    0.7520 ca        1 UIQ     -0.103000
     10 C10         0.7740   -2.4900    0.6960 c3        1 UIQ      0.235800
     11 N11         1.3310   -1.8320    1.8940 n3        1 UIQ     -0.698600
     12 C12         1.6120   -2.7260    3.0170 c3        1 UIQ      0.153800
     13 C13         3.1280   -2.7780    3.2750 c3        1 UIQ     -0.101400
     14 C14         3.7570   -1.7750    2.3180 c3        1 UIQ     -0.095400
     15 C15         2.5890   -1.1400    1.5340 c3        1 UIQ      0.163500
     16 C16         2.7780   -1.1970    0.0110 c3        1 UIQ     -0.083700
     17 C17         2.6520    0.1930   -0.6730 c3        1 UIQ      0.112700
     18 N19         1.5890    0.0560   -1.6630 n         1 UIQ     -0.477800
     19 C20         0.9190   -1.1670   -1.5670 c         1 UIQ      0.710500
     20 O21        -0.0270   -1.4880   -2.3000 o         1 UIQ     -0.618500
     21 C22         1.6100   -2.0510   -0.5340 c3        1 UIQ     -0.144700
     22 C23         1.0950    1.1730   -2.4110 c3        1 UIQ      0.149300
     23 C24         0.3570    2.2200   -1.6200 ca        1 UIQ     -0.116300
     24 C32         0.8250    3.5340   -1.5990 ca        1 UIQ     -0.124000
     25 C31         0.1440    4.5600   -0.9180 ca        1 UIQ     -0.117000
     26 C30        -1.0140    4.1940   -0.2640 ca        1 UIQ      0.060100
     27 O29        -1.8820    4.9820    0.4840 os        1 UIQ     -0.334900
     28 C28        -2.9380    4.1110    0.9550 c3        1 UIQ      0.321200
     29 O27        -2.6680    2.7790    0.4590 os        1 UIQ     -0.334900
     30 C26        -1.4920    2.8560   -0.2800 ca        1 UIQ      0.050100
     31 C25        -0.8290    1.8500   -0.9500 ca        1 UIQ     -0.101000
     32 C18         3.9900    0.7010   -1.2480 c3        1 UIQ     -0.072700
     33 C41         4.9790    0.9030   -0.1180 c3        1 UIQ     -0.092100
     34 C42         4.5730   -0.1850   -2.3240 c3        1 UIQ     -0.092100
     35 HN1        -6.7230   -2.4250    0.5330 hn        1 UIQ      0.379400
     36 HN21       -6.2130   -0.4730   -0.9390 hn        1 UIQ      0.399800
     37 HN22       -4.6020   -0.0420   -1.0220 hn        1 UIQ      0.399800
     38 H9         -3.5280   -3.9450   -0.3630 ha        1 UIQ      0.149000
     39 H8         -1.0760   -4.2640   -0.1480 ha        1 UIQ      0.138500
     40 H6         -0.6700   -0.1860    1.2600 ha        1 UIQ      0.138500
     41 H5         -3.1060    0.1470    1.0140 ha        1 UIQ      0.149000
     42 H10         0.9060   -3.6160    0.7730 h1        1 UIQ      0.045700
     43 H121        1.2030   -3.7600    2.8550 h1        1 UIQ      0.054200
     44 H122        1.0850   -2.2890    3.9100 h1        1 UIQ      0.054200
     45 H131        3.5220   -3.8070    3.0910 hc        1 UIQ      0.049200
     46 H132        3.3490   -2.5150    4.3380 hc        1 UIQ      0.049200
     47 H141        4.4820   -2.2790    1.6320 hc        1 UIQ      0.048700
     48 H142        4.3160   -0.9820    2.8730 hc        1 UIQ      0.048700
     49 H15         2.4660   -0.0730    1.8750 h1        1 UIQ      0.074700
     50 H16         3.7600   -1.6620   -0.2500 hc        1 UIQ      0.075700
     51 H17         2.3240    0.9640    0.0910 h1        1 UIQ      0.056700
     52 H22         1.9790   -2.9630   -1.0700 hc        1 UIQ      0.087700
     53 H231        1.9720    1.6550   -2.9360 h1        1 UIQ      0.069200
     54 H232        0.3900    0.7690   -3.1990 h1        1 UIQ      0.069200
     55 H32         1.7550    3.7890   -2.1310 ha        1 UIQ      0.136000
     56 H31         0.5170    5.5910   -0.9100 ha        1 UIQ      0.155000
     57 H281       -2.9100    4.0890    2.0720 h2        1 UIQ      0.073200
     58 H282       -3.9080    4.4630    0.5250 h2        1 UIQ      0.073200
     59 H25        -1.1940    0.8120   -0.9600 ha        1 UIQ      0.174000
     60 H18         3.7880    1.7120   -1.7100 hc        1 UIQ      0.049700
     61 H411        5.9550    1.2620   -0.5250 hc        1 UIQ      0.038033
     62 H412        4.5960    1.6620    0.6060 hc        1 UIQ      0.038033
     63 H413        5.1560   -0.0510    0.4360 hc        1 UIQ      0.038033
     64 H421        4.8480   -1.1890   -1.9230 hc        1 UIQ      0.038033
     65 H422        3.8470   -0.3240   -3.1610 hc        1 UIQ      0.038033
     66 H423        5.4990    0.2850   -2.7380 hc        1 UIQ      0.038033
@<TRIPOS>BOND
     1    1    2 2   
     2    1   35 1   
     3    2    3 1   
     4    2    4 1   
     5    3   36 1   
     6    3   37 1   
     7    4    5 ar  
     8    4    9 ar  
     9    5    6 ar  
    10    5   38 1   
    11    6    7 ar  
    12    6   39 1   
    13    7    8 ar  
    14    7   10 1   
    15    8    9 ar  
    16    8   40 1   
    17    9   41 1   
    18   10   11 1   
    19   10   21 1   
    20   10   42 1   
    21   11   12 1   
    22   11   15 1   
    23   12   13 1   
    24   12   43 1   
    25   12   44 1   
    26   13   14 1   
    27   13   45 1   
    28   13   46 1   
    29   14   15 1   
    30   14   47 1   
    31   14   48 1   
    32   15   16 1   
    33   15   49 1   
    34   16   17 1   
    35   16   21 1   
    36   16   50 1   
    37   17   18 1   
    38   17   32 1   
    39   17   51 1   
    40   18   19 1   
    41   18   22 1   
    42   19   20 2   
    43   19   21 1   
    44   21   52 1   
    45   22   23 1   
    46   22   53 1   
    47   22   54 1   
    48   23   24 ar  
    49   23   31 ar  
    50   24   25 ar  
    51   24   55 1   
    52   25   26 ar  
    53   25   56 1   
    54   26   27 1   
    55   26   30 ar  
    56   27   28 1   
    57   28   29 1   
    58   28   57 1   
    59   28   58 1   
    60   29   30 1   
    61   30   31 ar  
    62   31   59 1   
    63   32   33 1   
    64   32   34 1   
    65   32   60 1   
    66   33   61 1   
    67   33   62 1   
    68   33   63 1   
    69   34   64 1   
    70   34   65 1   
    71   34   66 1   
@<TRIPOS>SUBSTRUCTURE
     1 UIQ         1 TEMP              0 ****  ****    0 ROOT
