@<TRIPOS>MOLECULE
UIQ
   67    72     1     0     0
SMALL
bcc


@<TRIPOS>ATOM
      1 N1          1.3870   -1.3810    0.8290 n2        1 UIQ     -0.681100
      2 C3          2.2820   -0.6430    0.3250 ce        1 UIQ      0.634800
      3 N2          3.0800    0.4290    1.0730 nz        1 UIQ     -0.890600
      4 C4          2.7210   -0.6530   -1.0880 ca        1 UIQ     -0.219900
      5 C9          1.8170   -0.2960   -2.0930 ca        1 UIQ     -0.088000
      6 C8          2.2690   -0.1840   -3.4060 ca        1 UIQ     -0.096500
      7 C7          3.6160   -0.4140   -3.7170 ca        1 UIQ     -0.014300
      8 C6          4.4900   -0.8600   -2.7160 ca        1 UIQ     -0.096500
      9 C5          4.0460   -0.9800   -1.4030 ca        1 UIQ     -0.088000
     10 C10         4.0800   -0.1510   -5.1280 c3        1 UIQ      0.223800
     11 N11         5.2100   -1.0080   -5.5180 n3        1 UIQ     -0.710600
     12 C12         4.8870   -2.0800   -6.4600 c3        1 UIQ      0.151800
     13 C13         5.6440   -1.8570   -7.7790 c3        1 UIQ     -0.099400
     14 C14         6.5410   -0.6460   -7.5580 c3        1 UIQ     -0.093400
     15 C15         6.2780   -0.1720   -6.1140 c3        1 UIQ      0.165500
     16 C16         5.8710    1.3090   -6.0270 c3        1 UIQ     -0.084700
     17 C17         6.8180    2.1570   -5.1290 c3        1 UIQ      0.115700
     18 N19         5.9880    2.6470   -4.0310 n         1 UIQ     -0.473800
     19 C20         4.6800    2.1830   -4.0900 c         1 UIQ      0.712500
     20 O21         3.8080    2.4770   -3.2520 o         1 UIQ     -0.660500
     21 C22         4.4860    1.3310   -5.3400 c3        1 UIQ     -0.145700
     22 C23         6.4540    3.5630   -3.0310 c3        1 UIQ      0.151300
     23 C24         6.9410    2.9290   -1.7540 ca        1 UIQ     -0.104300
     24 C32         8.3050    2.9010   -1.4600 ca        1 UIQ     -0.101000
     25 C31         8.7970    2.3840   -0.2480 ca        1 UIQ     -0.101000
     26 C30         7.8530    1.8990    0.6350 ca        1 UIQ      0.076100
     27 O29         8.0490    1.3470    1.8970 os        1 UIQ     -0.311900
     28 C28         6.7480    1.0340    2.4280 c3        1 UIQ      0.328200
     29 O27         5.7640    1.3560    1.4100 os        1 UIQ     -0.427900
     30 C26         6.4680    1.9120    0.3340 ca        1 UIQ      0.015100
     31 C25         5.9810    2.4240   -0.8500 ca        1 UIQ     -0.098000
     32 C18         7.5640    3.2480   -5.9230 c3        1 UIQ     -0.078700
     33 C41         8.4420    2.6030   -6.9760 c3        1 UIQ     -0.094600
     34 C42         6.6520    4.2840   -6.5400 c3        1 UIQ     -0.094600
     35 HN1         1.0980   -1.3260    1.7810 hn        1 UIQ      0.452400
     36 HN21        4.0810    0.1810    1.0350 hn        1 UIQ      0.461133
     37 HN22        2.9690    1.3240    0.5840 hn        1 UIQ      0.461133
     38 H9          0.7610   -0.0970   -1.8540 ha        1 UIQ      0.143500
     39 H8          1.5620    0.1190   -4.1960 ha        1 UIQ      0.165500
     40 H6          5.5370   -1.1100   -2.9580 ha        1 UIQ      0.165500
     41 H5          4.7390   -1.3390   -0.6270 ha        1 UIQ      0.143500
     42 H10         3.1860   -0.3410   -5.8030 h1        1 UIQ      0.061700
     43 H121        3.7830   -2.1690   -6.6500 h1        1 UIQ      0.056200
     44 H122        5.2270   -3.0380   -5.9760 h1        1 UIQ      0.056200
     45 H131        6.2450   -2.7620   -8.0380 hc        1 UIQ      0.059200
     46 H132        4.9260   -1.6750   -8.6160 hc        1 UIQ      0.059200
     47 H141        6.3150    0.1580   -8.3010 hc        1 UIQ      0.057200
     48 H142        7.6190   -0.9190   -7.6750 hc        1 UIQ      0.057200
     49 H15         7.2010   -0.3620   -5.4950 h1        1 UIQ      0.075700
     50 H16         5.8080    1.7630   -7.0470 hc        1 UIQ      0.088700
     51 H17         7.6150    1.4900   -4.6790 h1        1 UIQ      0.059700
     52 H22         3.7150    1.8390   -5.9760 hc        1 UIQ      0.098700
     53 H231        7.2830    4.1920   -3.4690 h1        1 UIQ      0.073200
     54 H232        5.5950    4.2510   -2.7660 h1        1 UIQ      0.073200
     55 H32         9.0280    3.3020   -2.1890 ha        1 UIQ      0.151000
     56 H31         9.8710    2.3730   -0.0180 ha        1 UIQ      0.173000
     57 H281        6.5570    1.6780    3.3230 h2        1 UIQ      0.077200
     58 H282        6.7000   -0.0650    2.6280 h2        1 UIQ      0.077200
     59 H25         4.9120    2.4520   -1.1060 ha        1 UIQ      0.164000
     60 H18         8.2510    3.7800   -5.2010 hc        1 UIQ      0.050700
     61 H411        7.8330    2.0420   -7.7260 hc        1 UIQ      0.042700
     62 H412        9.0250    3.3890   -7.5160 hc        1 UIQ      0.042700
     63 H413        9.1620    1.8910   -6.5040 hc        1 UIQ      0.042700
     64 H421        7.2620    5.0460   -7.0850 hc        1 UIQ      0.042700
     65 H422        6.0600    4.8100   -5.7530 hc        1 UIQ      0.042700
     66 H423        5.9440    3.8240   -7.2690 hc        1 UIQ      0.042700
     67 H23         2.8000    0.5420    2.0460 hn        1 UIQ      0.461133
@<TRIPOS>BOND
     1    1    2 2   
     2    1   35 1   
     3    2    3 1   
     4    2    4 1   
     5    3   36 1   
     6    3   37 1   
     7    3   67 1   
     8    4    5 ar  
     9    4    9 ar  
    10    5    6 ar  
    11    5   38 1   
    12    6    7 ar  
    13    6   39 1   
    14    7    8 ar  
    15    7   10 1   
    16    8    9 ar  
    17    8   40 1   
    18    9   41 1   
    19   10   11 1   
    20   10   21 1   
    21   10   42 1   
    22   11   12 1   
    23   11   15 1   
    24   12   13 1   
    25   12   43 1   
    26   12   44 1   
    27   13   14 1   
    28   13   45 1   
    29   13   46 1   
    30   14   15 1   
    31   14   47 1   
    32   14   48 1   
    33   15   16 1   
    34   15   49 1   
    35   16   17 1   
    36   16   21 1   
    37   16   50 1   
    38   17   18 1   
    39   17   32 1   
    40   17   51 1   
    41   18   19 1   
    42   18   22 1   
    43   19   20 2   
    44   19   21 1   
    45   21   52 1   
    46   22   23 1   
    47   22   53 1   
    48   22   54 1   
    49   23   24 ar  
    50   23   31 ar  
    51   24   25 ar  
    52   24   55 1   
    53   25   26 ar  
    54   25   56 1   
    55   26   27 1   
    56   26   30 ar  
    57   27   28 1   
    58   28   29 1   
    59   28   57 1   
    60   28   58 1   
    61   29   30 1   
    62   30   31 ar  
    63   31   59 1   
    64   32   33 1   
    65   32   34 1   
    66   32   60 1   
    67   33   61 1   
    68   33   62 1   
    69   33   63 1   
    70   34   64 1   
    71   34   65 1   
    72   34   66 1   
@<TRIPOS>SUBSTRUCTURE
     1 UIQ         1 TEMP              0 ****  ****    0 ROOT
