@<TRIPOS>MOLECULE
UIR
   64    70     1     0     0
SMALL
bcc


@<TRIPOS>ATOM
      1 N1         -6.3380    7.9060   19.4770 nh        1 UIR     -0.895800
      2 C3         -5.3540    8.3640   20.3750 ce        1 UIR      0.639800
      3 C4         -4.2220    7.4070   20.5890 ca        1 UIR     -0.182900
      4 C9         -4.4540    6.1380   21.1260 ca        1 UIR     -0.113500
      5 C8         -3.3890    5.2660   21.3480 ca        1 UIR     -0.102000
      6 C7         -2.0830    5.6510   21.0290 ca        1 UIR     -0.067300
      7 C10        -0.9050    4.7300   21.2220 c3        1 UIR      0.235800
      8 N11        -1.2520    3.3330   20.8970 n3        1 UIR     -0.703600
      9 C12        -0.6040    2.7870   19.7060 c3        1 UIR      0.154800
     10 C13         0.2980    1.6050   20.0980 c3        1 UIR     -0.100400
     11 C14         0.1170    1.4090   21.5970 c3        1 UIR     -0.093400
     12 C15        -0.9190    2.4620   22.0460 c3        1 UIR      0.167500
     13 C16        -0.4290    3.3320   23.2130 c3        1 UIR     -0.084700
     14 C18        -0.9140    2.6670   25.5920 cx        1 UIR     -0.146700
     15 C17        -1.4450    3.4150   24.3920 c3        1 UIR      0.142700
     16 C42        -1.8790    1.9590   26.5080 cx        1 UIR     -0.127400
     17 C41        -1.0060    1.1630   25.5870 cx        1 UIR     -0.127400
     18 N19        -1.6950    4.8370   24.6070 n         1 UIR     -0.478800
     19 C20        -1.0560    5.6420   23.6660 c         1 UIR      0.715500
     20 O21        -1.0630    6.8830   23.6860 o         1 UIR     -0.626500
     21 C22        -0.3180    4.7690   22.6570 c3        1 UIR     -0.150700
     22 C23        -2.4440    5.3360   25.7230 c3        1 UIR      0.163300
     23 C24        -1.6430    5.7820   26.9180 ca        1 UIR     -0.119300
     24 C25        -1.7190    5.0300   28.1100 ca        1 UIR     -0.105000
     25 C26        -1.0070    5.5160   29.1860 ca        1 UIR      0.045100
     26 O27        -0.9020    4.9860   30.4700 os        1 UIR     -0.337900
     27 C28        -0.0420    5.8760   31.2180 c3        1 UIR      0.321200
     28 O29         0.3690    6.9450   30.3350 os        1 UIR     -0.333900
     29 C30        -0.2340    6.7040   29.1050 ca        1 UIR      0.059100
     30 C31        -0.1540    7.4400   27.9400 ca        1 UIR     -0.115000
     31 C32        -0.8820    6.9500   26.8410 ca        1 UIR     -0.112000
     32 C6         -1.8570    6.9210   20.4800 ca        1 UIR     -0.102000
     33 C5         -2.9190    7.7980   20.2680 ca        1 UIR     -0.113500
     34 N2         -5.4160    9.5490   20.9080 n2        1 UIR     -0.838100
     35 HN11       -6.4710    6.9200   19.5010 hn        1 UIR      0.398300
     36 HN12       -7.1870    8.4270   19.4620 hn        1 UIR      0.398300
     37 H9         -5.4760    5.8240   21.3870 ha        1 UIR      0.135500
     38 H8         -3.5850    4.2700   21.7730 ha        1 UIR      0.139500
     39 H10        -0.0860    5.1010   20.5290 h1        1 UIR      0.051700
     40 H121       -0.0150    3.5600   19.1410 h1        1 UIR      0.051700
     41 H122       -1.4310    2.4330   19.0290 h1        1 UIR      0.051700
     42 H131        1.3640    1.8270   19.8500 hc        1 UIR      0.049700
     43 H132        0.0010    0.6880   19.5340 hc        1 UIR      0.049700
     44 H141        1.0880    1.5390   22.1340 hc        1 UIR      0.050200
     45 H142       -0.2610    0.3840   21.8270 hc        1 UIR      0.050200
     46 H15        -1.8730    1.9330   22.3280 h1        1 UIR      0.070700
     47 H16         0.5560    2.9720   23.5980 hc        1 UIR      0.077700
     48 H18        -0.0190    3.1380   26.0440 hc        1 UIR      0.095700
     49 H17        -2.4290    2.9450   24.0850 h1        1 UIR      0.054700
     50 H421       -2.9620    2.0230   26.3000 hc        1 UIR      0.073950
     51 H422       -1.6690    1.9470   27.5930 hc        1 UIR      0.073950
     52 H411       -0.1690    0.5790   26.0080 hc        1 UIR      0.073950
     53 H412       -1.4640    0.6580   24.7170 hc        1 UIR      0.073950
     54 H22         0.7450    5.1170   22.6150 hc        1 UIR      0.089700
     55 H231       -3.1640    4.5270   26.0420 h1        1 UIR      0.064200
     56 H232       -3.0380    6.2280   25.3590 h1        1 UIR      0.064200
     57 H25        -2.3100    4.1070   28.1720 ha        1 UIR      0.152000
     58 H281        0.8670    5.3080   31.5380 h2        1 UIR      0.071200
     59 H282       -0.6290    6.3150   32.0620 h2        1 UIR      0.071200
     60 H31         0.4410    8.3590   27.8710 ha        1 UIR      0.157000
     61 H32        -0.8490    7.5070   25.8880 ha        1 UIR      0.170000
     62 H6         -0.8350    7.2390   20.2260 ha        1 UIR      0.139500
     63 H5         -2.7320    8.7960   19.8430 ha        1 UIR      0.135500
     64 HN2        -4.6130    9.7950   21.4460 hn        1 UIR      0.397400
@<TRIPOS>BOND
     1    1    2 1   
     2    1   35 1   
     3    1   36 1   
     4    2    3 1   
     5    2   34 2   
     6    3    4 ar  
     7    3   33 ar  
     8    4    5 ar  
     9    4   37 1   
    10    5    6 ar  
    11    5   38 1   
    12    6    7 1   
    13    6   32 ar  
    14    7    8 1   
    15    7   21 1   
    16    7   39 1   
    17    8    9 1   
    18    8   12 1   
    19    9   10 1   
    20    9   40 1   
    21    9   41 1   
    22   10   11 1   
    23   10   42 1   
    24   10   43 1   
    25   11   12 1   
    26   11   44 1   
    27   11   45 1   
    28   12   13 1   
    29   12   46 1   
    30   13   15 1   
    31   13   21 1   
    32   13   47 1   
    33   14   15 1   
    34   14   16 1   
    35   14   17 1   
    36   14   48 1   
    37   15   18 1   
    38   15   49 1   
    39   16   17 1   
    40   16   50 1   
    41   16   51 1   
    42   17   52 1   
    43   17   53 1   
    44   18   19 1   
    45   18   22 1   
    46   19   20 2   
    47   19   21 1   
    48   21   54 1   
    49   22   23 1   
    50   22   55 1   
    51   22   56 1   
    52   23   24 ar  
    53   23   31 ar  
    54   24   25 ar  
    55   24   57 1   
    56   25   26 1   
    57   25   29 ar  
    58   26   27 1   
    59   27   28 1   
    60   27   58 1   
    61   27   59 1   
    62   28   29 1   
    63   29   30 ar  
    64   30   31 ar  
    65   30   60 1   
    66   31   61 1   
    67   32   33 ar  
    68   32   62 1   
    69   33   63 1   
    70   34   64 1   
@<TRIPOS>SUBSTRUCTURE
     1 UIR         1 TEMP              0 ****  ****    0 ROOT
