@<TRIPOS>MOLECULE
UIR
   65    71     1     0     0
SMALL
bcc


@<TRIPOS>ATOM
      1 N1         -0.6820   -1.1520    1.0730 n4        1 UIR     -0.897600
      2 C3          0.1310    0.1510    0.9360 ce        1 UIR      0.643800
      3 C4          1.3120    0.0870    1.8220 ca        1 UIR     -0.227900
      4 C9          1.1480   -0.0410    3.2080 ca        1 UIR     -0.087500
      5 C8          2.2670   -0.0640    4.0350 ca        1 UIR     -0.095000
      6 C7          3.5550    0.0480    3.4900 ca        1 UIR     -0.000300
      7 C10         4.7950    0.0200    4.3510 c3        1 UIR      0.221800
      8 N11         4.6320   -0.8680    5.5140 n3        1 UIR     -0.714600
      9 C12         5.3830   -2.1220    5.4550 c3        1 UIR      0.152800
     10 C13         6.3980   -2.1750    6.6070 c3        1 UIR     -0.098400
     11 C14         6.1770   -0.9130    7.4310 c3        1 UIR     -0.093400
     12 C15         5.0320   -0.1430    6.7430 c3        1 UIR      0.166500
     13 C16         5.4060    1.3030    6.3800 c3        1 UIR     -0.085700
     14 C18         5.2390    3.2750    7.9380 cx        1 UIR     -0.160700
     15 C17         4.4600    2.3630    7.0180 c3        1 UIR      0.135700
     16 C42         4.6720    3.6120    9.2930 cx        1 UIR     -0.123900
     17 C41         5.8400    2.6790    9.1850 cx        1 UIR     -0.123900
     18 N19         3.7770    3.0250    5.9060 n         1 UIR     -0.460800
     19 C20         4.2030    2.5530    4.6670 c         1 UIR      0.700500
     20 O21         3.8090    2.9870    3.5720 o         1 UIR     -0.634500
     21 C22         5.2140    1.4240    4.8530 c3        1 UIR     -0.151700
     22 C23         3.0510    4.2540    6.0820 c3        1 UIR      0.156300
     23 C24         3.8220    5.5280    5.8670 ca        1 UIR     -0.134300
     24 C25         4.2060    6.2900    6.9920 ca        1 UIR     -0.106000
     25 C26         4.8600    7.4760    6.7330 ca        1 UIR      0.050100
     26 O27         5.3450    8.4150    7.6360 os        1 UIR     -0.333900
     27 C28         5.9410    9.4780    6.8540 c3        1 UIR      0.320200
     28 O29         5.8030    9.1280    5.4560 os        1 UIR     -0.328900
     29 C30         5.1400    7.9090    5.4090 ca        1 UIR      0.069100
     30 C31         4.7720    7.1640    4.3080 ca        1 UIR     -0.117000
     31 C32         4.1010    5.9550    4.5690 ca        1 UIR     -0.113000
     32 C6          3.7050    0.1800    2.1030 ca        1 UIR     -0.095000
     33 C5          2.5900    0.2110    1.2670 ca        1 UIR     -0.087500
     34 N2         -0.1700    1.1120    0.1730 n2        1 UIR     -0.675100
     35 HN11       -1.5850   -1.1140    0.6000 hn        1 UIR      0.454467
     36 HN12       -0.8310   -1.3370    2.0700 hn        1 UIR      0.454467
     37 H9          0.1460   -0.0850    3.6600 ha        1 UIR      0.140500
     38 H8          2.1330   -0.1600    5.1260 ha        1 UIR      0.167000
     39 H10         5.6380   -0.3500    3.6850 h1        1 UIR      0.059700
     40 H121        4.6280   -2.9490    5.5680 h1        1 UIR      0.050200
     41 H122        5.9020   -2.2690    4.4690 h1        1 UIR      0.050200
     42 H131        7.4410   -2.2150    6.2080 hc        1 UIR      0.058200
     43 H132        6.2350   -3.0920    7.2250 hc        1 UIR      0.058200
     44 H141        7.1110   -0.3010    7.4780 hc        1 UIR      0.058200
     45 H142        5.8870   -1.1640    8.4810 hc        1 UIR      0.058200
     46 H15         4.1280   -0.1570    7.4170 h1        1 UIR      0.074700
     47 H16         6.4620    1.5290    6.6710 hc        1 UIR      0.089700
     48 H18         5.8080    4.0630    7.4040 hc        1 UIR      0.102700
     49 H17         3.6580    1.8470    7.6280 h1        1 UIR      0.060700
     50 H421        4.8320    4.6280    9.6980 hc        1 UIR      0.077200
     51 H422        3.6860    3.2060    9.5800 hc        1 UIR      0.077200
     52 H411        6.8380    3.0250    9.5100 hc        1 UIR      0.077200
     53 H412        5.6900    1.6040    9.3880 hc        1 UIR      0.077200
     54 H22         6.1600    1.7340    4.3390 hc        1 UIR      0.099700
     55 H231        2.6270    4.2470    7.1280 h1        1 UIR      0.066200
     56 H232        2.1960    4.2370    5.3420 h1        1 UIR      0.066200
     57 H25         3.9950    5.9530    8.0150 ha        1 UIR      0.155000
     58 H281        7.0300    9.5340    7.1010 h2        1 UIR      0.078200
     59 H282        5.3740   10.4220    7.0440 h2        1 UIR      0.078200
     60 H31         4.9860    7.4930    3.2830 ha        1 UIR      0.160000
     61 H32         3.7920    5.3250    3.7170 ha        1 UIR      0.161000
     62 H6          4.7100    0.2890    1.6630 ha        1 UIR      0.167000
     63 H5          2.7200    0.3490    0.1820 ha        1 UIR      0.140500
     64 HN2        -0.9600    1.1290   -0.4330 hn        1 UIR      0.460400
     65 H13        -0.1280   -1.9200    0.6820 hn        1 UIR      0.454467
@<TRIPOS>BOND
     1    1    2 1   
     2    1   35 1   
     3    1   36 1   
     4    1   65 1   
     5    2    3 1   
     6    2   34 2   
     7    3    4 ar  
     8    3   33 ar  
     9    4    5 ar  
    10    4   37 1   
    11    5    6 ar  
    12    5   38 1   
    13    6    7 1   
    14    6   32 ar  
    15    7    8 1   
    16    7   21 1   
    17    7   39 1   
    18    8    9 1   
    19    8   12 1   
    20    9   10 1   
    21    9   40 1   
    22    9   41 1   
    23   10   11 1   
    24   10   42 1   
    25   10   43 1   
    26   11   12 1   
    27   11   44 1   
    28   11   45 1   
    29   12   13 1   
    30   12   46 1   
    31   13   15 1   
    32   13   21 1   
    33   13   47 1   
    34   14   15 1   
    35   14   16 1   
    36   14   17 1   
    37   14   48 1   
    38   15   18 1   
    39   15   49 1   
    40   16   17 1   
    41   16   50 1   
    42   16   51 1   
    43   17   52 1   
    44   17   53 1   
    45   18   19 1   
    46   18   22 1   
    47   19   20 2   
    48   19   21 1   
    49   21   54 1   
    50   22   23 1   
    51   22   55 1   
    52   22   56 1   
    53   23   24 ar  
    54   23   31 ar  
    55   24   25 ar  
    56   24   57 1   
    57   25   26 1   
    58   25   29 ar  
    59   26   27 1   
    60   27   28 1   
    61   27   58 1   
    62   27   59 1   
    63   28   29 1   
    64   29   30 ar  
    65   30   31 ar  
    66   30   60 1   
    67   31   61 1   
    68   32   33 ar  
    69   32   62 1   
    70   33   63 1   
    71   34   64 1   
@<TRIPOS>SUBSTRUCTURE
     1 UIR         1 TEMP              0 ****  ****    0 ROOT
