@<TRIPOS>MOLECULE
UIR
   64    65     1     0     0
SMALL
bcc


@<TRIPOS>ATOM
      1 N1         -0.8170   -1.8660   -5.5780 n3        1 UIR     -0.398000
      2 C3         -1.2850   -1.1240   -4.4450 c2        1 UIR      0.129000
      3 C4         -0.4950   -1.1510   -3.1320 c2        1 UIR     -0.055000
      4 C9          0.6330   -0.3480   -2.9830 c1        1 UIR     -0.110000
      5 C8          1.4130   -0.4460   -1.8310 c1        1 UIR     -0.117000
      6 C7          1.0650   -1.3500   -0.8260 c1        1 UIR     -0.062000
      7 C10         2.0510   -1.6420    0.2930 c2        1 UIR      0.032000
      8 N11         1.8380   -2.8630    0.7860 n3        1 UIR     -0.230000
      9 C12         2.5620   -4.2400    1.0630 c3        1 UIR     -0.080000
     10 C13         2.7370   -4.3100    2.3960 c3        1 UIR     -0.176000
     11 C14         1.5580   -3.4160    3.0240 c3        1 UIR     -0.169000
     12 C15         0.9550   -2.6690    1.8660 c3        1 UIR     -0.029000
     13 C16         0.9210   -1.0810    2.1420 c3        1 UIR     -0.127000
     14 C18        -1.2370    0.1310    2.5720 cx        1 UIR     -0.182000
     15 C17        -0.3990   -0.4060    1.5200 c3        1 UIR      0.068000
     16 C42        -2.7590   -0.0350    2.3670 cx        1 UIR     -0.206500
     17 C41        -2.0200   -0.9120    3.4020 cx        1 UIR     -0.206500
     18 N19         0.0850    0.6680    0.6560 n         1 UIR     -0.338000
     19 C20         1.3340    0.8120    0.9810 c2        1 UIR      0.324000
     20 O21         1.9130    1.8720    1.1520 o         1 UIR     -0.347000
     21 C22         1.8280   -0.6350    1.5060 c3        1 UIR     -0.145000
     22 C23        -0.5390    1.1280   -0.5690 c3        1 UIR      0.038000
     23 C24        -0.8250    2.6460   -0.4630 c2        1 UIR     -0.104000
     24 C25         0.1350    3.5680   -0.8840 c2        1 UIR     -0.094000
     25 C26        -0.1450    4.9460   -0.8370 c1        1 UIR      0.004000
     26 O27         0.6270    6.0920   -1.2020 o         1 UIR     -0.215000
     27 C28        -0.1690    7.2320   -1.0050 c3        1 UIR      0.098000
     28 O29        -1.3840    6.8160   -0.4360 os        1 UIR     -0.220000
     29 C30        -1.3750    5.3890   -0.3710 c2        1 UIR      0.012000
     30 C31        -2.3430    4.4600    0.0530 c1        1 UIR     -0.122000
     31 C32        -2.0650    3.0930    0.0060 c1        1 UIR     -0.124000
     32 C6         -0.0650   -2.1540   -0.9770 c2        1 UIR     -0.105000
     33 C5         -0.8440   -2.0540   -2.1300 c2        1 UIR     -0.099000
     34 N2         -2.3910   -0.4200   -4.5310 n1        1 UIR     -0.295000
     35 HN11       -1.3150   -1.8880   -6.3490 hn        1 UIR      0.193000
     36 HN12       -0.0300   -2.3320   -5.5270 hn        1 UIR      0.193000
     37 H9          0.8790    0.2890   -3.6900 ha        1 UIR      0.143000
     38 H8          2.2090    0.1220   -1.7270 ha        1 UIR      0.135000
     39 H10         2.9750   -1.5690   -0.0420 h4        1 UIR      0.095000
     40 H121        1.9980   -4.9860    0.7550 h1        1 UIR      0.088500
     41 H122        3.4330   -4.2620    0.6050 h1        1 UIR      0.088500
     42 H131        2.6580   -5.2430    2.7020 hc        1 UIR      0.089000
     43 H132        3.6150   -3.9420    2.6450 hc        1 UIR      0.089000
     44 H141        1.9240   -2.7840    3.6820 hc        1 UIR      0.089500
     45 H142        0.8810   -3.9930    3.4450 hc        1 UIR      0.089500
     46 H15         0.0580   -3.0100    1.6540 h1        1 UIR      0.110000
     47 H16         1.0170   -0.8750    3.1010 hc        1 UIR      0.116000
     48 H18        -0.9560    0.9390    3.0580 hc        1 UIR      0.135000
     49 H17        -0.8990   -1.0650    0.9920 h1        1 UIR      0.093000
     50 H421       -3.3200    0.6820    2.7390 hc        1 UIR      0.112250
     51 H422       -3.0310   -0.4890    1.5410 hc        1 UIR      0.112250
     52 H411       -2.1730   -0.6790    4.3450 hc        1 UIR      0.112250
     53 H412       -1.8850   -1.8490    3.1460 hc        1 UIR      0.112250
     54 H22         2.6410   -0.5550    2.0570 hc        1 UIR      0.128000
     55 H231       -1.3840    0.6440   -0.7080 h1        1 UIR      0.106000
     56 H232        0.0610    0.9610   -1.3240 h1        1 UIR      0.106000
     57 H25         0.9910    3.2530   -1.2440 ha        1 UIR      0.186000
     58 H281       -0.3470    7.6550   -1.8740 h2        1 UIR      0.109500
     59 H282        0.2880    7.8400   -0.3820 h2        1 UIR      0.109500
     60 H31        -3.2140    4.7730    0.3830 ha        1 UIR      0.152000
     61 H32        -2.7570    2.4440    0.2560 ha        1 UIR      0.135000
     62 H6         -0.3110   -2.7890   -0.2720 ha        1 UIR      0.141000
     63 H5         -1.6410   -2.6210   -2.2350 ha        1 UIR      0.145000
     64 HN2        -2.8640   -0.4040   -5.3160 DU        1 UIR      0.136000
@<TRIPOS>BOND
     1    1    2 1   
     2    1   35 1   
     3    1   36 1   
     4    2    3 1   
     5    2   34 1   
     6    3    4 1   
     7    3   33 1   
     8    4   37 1   
     9    5    6 1   
    10    5   38 1   
    11    6   32 1   
    12    7    8 1   
    13    7   21 1   
    14    7   39 1   
    15    8    9 1   
    16    8   12 1   
    17    9   10 1   
    18    9   40 1   
    19    9   41 1   
    20   10   11 1   
    21   10   42 1   
    22   10   43 1   
    23   11   12 1   
    24   11   44 1   
    25   11   45 1   
    26   12   13 1   
    27   12   46 1   
    28   13   15 1   
    29   13   21 1   
    30   13   47 1   
    31   14   15 1   
    32   14   16 1   
    33   14   17 1   
    34   14   48 1   
    35   15   18 1   
    36   15   49 1   
    37   16   17 1   
    38   16   50 1   
    39   16   51 1   
    40   17   52 1   
    41   17   53 1   
    42   18   19 1   
    43   18   22 1   
    44   19   20 1   
    45   19   21 1   
    46   21   54 1   
    47   22   23 1   
    48   22   55 1   
    49   22   56 1   
    50   23   24 1   
    51   23   31 1   
    52   24   25 1   
    53   24   57 1   
    54   25   29 1   
    55   26   27 1   
    56   27   28 1   
    57   27   58 1   
    58   27   59 1   
    59   28   29 1   
    60   29   30 1   
    61   30   60 1   
    62   31   61 1   
    63   32   33 1   
    64   32   62 1   
    65   33   63 1   
@<TRIPOS>SUBSTRUCTURE
     1 UIR         1 TEMP              0 ****  ****    0 ROOT
