@<TRIPOS>MOLECULE
UIR
   65    71     1     0     0
SMALL
bcc


@<TRIPOS>ATOM
      1 N1         -0.7430   -1.1400    1.1380 n4        1 UIR     -0.897600
      2 C3          0.0750    0.1590    0.9870 ce        1 UIR      0.643800
      3 C4          1.2660    0.0920    1.8590 ca        1 UIR     -0.227900
      4 C9          1.1190   -0.0300    3.2480 ca        1 UIR     -0.087500
      5 C8          2.2470   -0.0560    4.0610 ca        1 UIR     -0.095500
      6 C7          3.5290    0.0480    3.5000 ca        1 UIR     -0.000300
      7 C10         4.7790    0.0170    4.3460 c3        1 UIR      0.221800
      8 N11         4.6250   -0.8660    5.5150 n3        1 UIR     -0.714600
      9 C12         5.3700   -2.1230    5.4520 c3        1 UIR      0.152800
     10 C13         6.3980   -2.1760    6.5930 c3        1 UIR     -0.098400
     11 C14         6.1930   -0.9090    7.4130 c3        1 UIR     -0.093400
     12 C15         5.0420   -0.1380    6.7370 c3        1 UIR      0.166500
     13 C16         5.4160    1.3060    6.3640 c3        1 UIR     -0.085700
     14 C18         5.2660    3.2810    7.9190 cx        1 UIR     -0.160700
     15 C17         4.4780    2.3700    7.0060 c3        1 UIR      0.135700
     16 C42         4.7060    3.6270    9.2750 cx        1 UIR     -0.123900
     17 C41         5.8670    2.6870    9.1660 cx        1 UIR     -0.123900
     18 N19         3.7910    3.0330    5.8970 n         1 UIR     -0.460800
     19 C20         4.2040    2.5540    4.6560 c         1 UIR      0.700500
     20 O21         3.8040    2.9870    3.5630 o         1 UIR     -0.634500
     21 C22         5.2110    1.4210    4.8390 c3        1 UIR     -0.151700
     22 C23         3.0730    4.2670    6.0740 c3        1 UIR      0.156300
     23 C24         3.8500    5.5360    5.8490 ca        1 UIR     -0.134300
     24 C25         4.2470    6.3000    6.9670 ca        1 UIR     -0.106000
     25 C26         4.9070    7.4800    6.6990 ca        1 UIR      0.050100
     26 O27         5.4040    8.4200    7.5950 os        1 UIR     -0.333900
     27 C28         6.0000    9.4760    6.8040 c3        1 UIR      0.320200
     28 O29         5.8500    9.1220    5.4090 os        1 UIR     -0.328900
     29 C30         5.1790    7.9070    5.3710 ca        1 UIR      0.069100
     30 C31         4.7980    7.1600    4.2760 ca        1 UIR     -0.117000
     31 C32         4.1220    5.9560    4.5460 ca        1 UIR     -0.113000
     32 C6          3.6630    0.1740    2.1110 ca        1 UIR     -0.095500
     33 C5          2.5390    0.2070    1.2880 ca        1 UIR     -0.087500
     34 N2         -0.2290    1.1180    0.2230 n2        1 UIR     -0.675100
     35 HN11       -0.1980   -1.9120    0.7440 hn        1 UIR      0.454467
     36 HN12       -1.6510   -1.0990    0.6760 hn        1 UIR      0.454467
     37 H9          0.1210   -0.0670    3.7110 ha        1 UIR      0.140500
     38 H8          2.1260   -0.1460    5.1530 ha        1 UIR      0.167000
     39 H10         5.6120   -0.3600    3.6720 h1        1 UIR      0.059700
     40 H121        4.6130   -2.9470    5.5770 h1        1 UIR      0.050200
     41 H122        5.8780   -2.2760    4.4610 h1        1 UIR      0.050200
     42 H131        7.4360   -2.2230    6.1830 hc        1 UIR      0.058200
     43 H132        6.2380   -3.0890    7.2170 hc        1 UIR      0.058200
     44 H141        7.1300   -0.3010    7.4450 hc        1 UIR      0.058200
     45 H142        5.9160   -1.1530    8.4680 hc        1 UIR      0.058200
     46 H15         4.1460   -0.1460    7.4210 h1        1 UIR      0.074700
     47 H16         6.4750    1.5300    6.6450 hc        1 UIR      0.089700
     48 H18         5.8380    4.0630    7.3800 hc        1 UIR      0.102700
     49 H17         3.6770    1.8590    7.6220 h1        1 UIR      0.060700
     50 H421        4.8730    4.6430    9.6760 hc        1 UIR      0.077200
     51 H422        3.7180    3.2280    9.5680 hc        1 UIR      0.077200
     52 H411        6.8680    3.0270    9.4860 hc        1 UIR      0.077200
     53 H412        5.7110    1.6130    9.3740 hc        1 UIR      0.077200
     54 H22         6.1540    1.7230    4.3140 hc        1 UIR      0.099700
     55 H231        2.2120    4.2520    5.3420 h1        1 UIR      0.066200
     56 H232        2.6580    4.2660    7.1230 h1        1 UIR      0.066200
     57 H25         4.0420    5.9680    7.9940 ha        1 UIR      0.155000
     58 H281        5.4410   10.4250    6.9940 h2        1 UIR      0.078200
     59 H282        7.0910    9.5270    7.0430 h2        1 UIR      0.078200
     60 H31         5.0070    7.4830    3.2480 ha        1 UIR      0.160000
     61 H32         3.8020    5.3240    3.7000 ha        1 UIR      0.161000
     62 H6          4.6640    0.2760    1.6590 ha        1 UIR      0.167000
     63 H5          2.6570    0.3400    0.2020 ha        1 UIR      0.140500
     64 HN2        -1.0260    1.1370   -0.3730 hn        1 UIR      0.460400
     65 H13        -0.8800   -1.3210    2.1380 hn        1 UIR      0.454467
@<TRIPOS>BOND
     1    1    2 1   
     2    1   35 1   
     3    1   36 1   
     4    1   65 1   
     5    2    3 1   
     6    2   34 2   
     7    3    4 ar  
     8    3   33 ar  
     9    4    5 ar  
    10    4   37 1   
    11    5    6 ar  
    12    5   38 1   
    13    6    7 1   
    14    6   32 ar  
    15    7    8 1   
    16    7   21 1   
    17    7   39 1   
    18    8    9 1   
    19    8   12 1   
    20    9   10 1   
    21    9   40 1   
    22    9   41 1   
    23   10   11 1   
    24   10   42 1   
    25   10   43 1   
    26   11   12 1   
    27   11   44 1   
    28   11   45 1   
    29   12   13 1   
    30   12   46 1   
    31   13   15 1   
    32   13   21 1   
    33   13   47 1   
    34   14   15 1   
    35   14   16 1   
    36   14   17 1   
    37   14   48 1   
    38   15   18 1   
    39   15   49 1   
    40   16   17 1   
    41   16   50 1   
    42   16   51 1   
    43   17   52 1   
    44   17   53 1   
    45   18   19 1   
    46   18   22 1   
    47   19   20 2   
    48   19   21 1   
    49   21   54 1   
    50   22   23 1   
    51   22   55 1   
    52   22   56 1   
    53   23   24 ar  
    54   23   31 ar  
    55   24   25 ar  
    56   24   57 1   
    57   25   26 1   
    58   25   29 ar  
    59   26   27 1   
    60   27   28 1   
    61   27   58 1   
    62   27   59 1   
    63   28   29 1   
    64   29   30 ar  
    65   30   31 ar  
    66   30   60 1   
    67   31   61 1   
    68   32   33 ar  
    69   32   62 1   
    70   33   63 1   
    71   34   64 1   
@<TRIPOS>SUBSTRUCTURE
     1 UIR         1 TEMP              0 ****  ****    0 ROOT
