@<TRIPOS>MOLECULE
UIR
   65    71     1     0     0
SMALL
bcc


@<TRIPOS>ATOM
      1 N1         -0.7150   -1.1610    1.1130 nz        1 UIR     -0.897600
      2 C3          0.0950    0.1430    0.9680 ce        1 UIR      0.643800
      3 C4          1.2850    0.0810    1.8420 ca        1 UIR     -0.227900
      4 C9          1.1350   -0.0480    3.2300 ca        1 UIR     -0.087500
      5 C8          2.2620   -0.0690    4.0460 ca        1 UIR     -0.095000
      6 C7          3.5450    0.0440    3.4880 ca        1 UIR     -0.000300
      7 C10         4.7940    0.0180    4.3360 c3        1 UIR      0.221800
      8 N11         4.6430   -0.8700    5.5010 n3        1 UIR     -0.714600
      9 C12         5.3960   -2.1230    5.4340 c3        1 UIR      0.152800
     10 C13         6.4210   -2.1730    6.5780 c3        1 UIR     -0.098400
     11 C14         6.2070   -0.9110    7.4020 c3        1 UIR     -0.093400
     12 C15         5.0530   -0.1440    6.7260 c3        1 UIR      0.166500
     13 C16         5.4190    1.3030    6.3600 c3        1 UIR     -0.085700
     14 C18         5.2560    3.2720    7.9210 cx        1 UIR     -0.160700
     15 C17         4.4740    2.3600    7.0040 c3        1 UIR      0.135700
     16 C42         4.6940    3.6090    9.2790 cx        1 UIR     -0.123900
     17 C41         5.8610    2.6770    9.1660 cx        1 UIR     -0.123900
     18 N19         3.7840    3.0220    5.8970 n         1 UIR     -0.460800
     19 C20         4.2020    2.5500    4.6550 c         1 UIR      0.700500
     20 O21         3.8000    2.9850    3.5630 o         1 UIR     -0.634500
     21 C22         5.2160    1.4220    4.8340 c3        1 UIR     -0.151700
     22 C23         3.0580    4.2510    6.0770 c3        1 UIR      0.156300
     23 C24         3.8280    5.5250    5.8590 ca        1 UIR     -0.134300
     24 C25         4.2180    6.2880    6.9810 ca        1 UIR     -0.106000
     25 C26         4.8700    7.4730    6.7180 ca        1 UIR      0.050100
     26 O27         5.3600    8.4130    7.6190 os        1 UIR     -0.333900
     27 C28         5.9510    9.4760    6.8330 c3        1 UIR      0.320200
     28 O29         5.8050    9.1260    5.4360 os        1 UIR     -0.328900
     29 C30         5.1430    7.9070    5.3930 ca        1 UIR      0.069100
     30 C31         4.7680    7.1610    4.2930 ca        1 UIR     -0.117000
     31 C32         4.1000    5.9520    4.5580 ca        1 UIR     -0.113000
     32 C6          3.6810    0.1760    2.0990 ca        1 UIR     -0.095000
     33 C5          2.5580    0.2050    1.2750 ca        1 UIR     -0.087500
     34 N2         -0.2140    1.1030    0.2080 n2        1 UIR     -0.675100
     35 HN11       -0.8540   -1.3460    2.1120 hn        1 UIR      0.454467
     36 HN12       -1.6230   -1.1240    0.6490 hn        1 UIR      0.454467
     37 H9          0.1380   -0.0920    3.6920 ha        1 UIR      0.140500
     38 H8          2.1390   -0.1640    5.1380 ha        1 UIR      0.167000
     39 H10         5.6300   -0.3510    3.6620 h1        1 UIR      0.059700
     40 H121        5.9060   -2.2690    4.4440 h1        1 UIR      0.050200
     41 H122        4.6440   -2.9510    5.5550 h1        1 UIR      0.050200
     42 H131        7.4610   -2.2130    6.1700 hc        1 UIR      0.058200
     43 H132        6.2660   -3.0900    7.1980 hc        1 UIR      0.058200
     44 H141        5.9280   -1.1610    8.4560 hc        1 UIR      0.058200
     45 H142        7.1400   -0.2970    7.4390 hc        1 UIR      0.058200
     46 H15         4.1560   -0.1600    7.4090 h1        1 UIR      0.074700
     47 H16         6.4770    1.5330    6.6430 hc        1 UIR      0.089700
     48 H18         5.8230    4.0600    7.3850 hc        1 UIR      0.102700
     49 H17         3.6760    1.8410    7.6180 h1        1 UIR      0.060700
     50 H421        3.7080    3.2030    9.5690 hc        1 UIR      0.077200
     51 H422        4.8540    4.6250    9.6830 hc        1 UIR      0.077200
     52 H411        6.8600    3.0230    9.4880 hc        1 UIR      0.077200
     53 H412        5.7120    1.6010    9.3700 hc        1 UIR      0.077200
     54 H22         6.1570    1.7330    4.3120 hc        1 UIR      0.099700
     55 H231        2.6410    4.2430    7.1260 h1        1 UIR      0.066200
     56 H232        2.1990    4.2340    5.3430 h1        1 UIR      0.066200
     57 H25         4.0130    5.9510    8.0050 ha        1 UIR      0.155000
     58 H281        5.3850   10.4200    7.0260 h2        1 UIR      0.078200
     59 H282        7.0410    9.5330    7.0740 h2        1 UIR      0.078200
     60 H31         4.9770    7.4900    3.2680 ha        1 UIR      0.160000
     61 H32         3.7850    5.3220    3.7080 ha        1 UIR      0.161000
     62 H6          4.6810    0.2860    1.6490 ha        1 UIR      0.167000
     63 H5          2.6770    0.3430    0.1890 ha        1 UIR      0.140500
     64 HN2        -1.0100    1.1200   -0.3910 hn        1 UIR      0.460400
     65 H13        -0.1650   -1.9280    0.7170 hn        1 UIR      0.454467
@<TRIPOS>BOND
     1    1    2 1   
     2    1   35 1   
     3    1   36 1   
     4    1   65 1   
     5    2    3 1   
     6    2   34 2   
     7    3    4 ar  
     8    3   33 ar  
     9    4    5 ar  
    10    4   37 1   
    11    5    6 ar  
    12    5   38 1   
    13    6    7 1   
    14    6   32 ar  
    15    7    8 1   
    16    7   21 1   
    17    7   39 1   
    18    8    9 1   
    19    8   12 1   
    20    9   10 1   
    21    9   40 1   
    22    9   41 1   
    23   10   11 1   
    24   10   42 1   
    25   10   43 1   
    26   11   12 1   
    27   11   44 1   
    28   11   45 1   
    29   12   13 1   
    30   12   46 1   
    31   13   15 1   
    32   13   21 1   
    33   13   47 1   
    34   14   15 1   
    35   14   16 1   
    36   14   17 1   
    37   14   48 1   
    38   15   18 1   
    39   15   49 1   
    40   16   17 1   
    41   16   50 1   
    42   16   51 1   
    43   17   52 1   
    44   17   53 1   
    45   18   19 1   
    46   18   22 1   
    47   19   20 2   
    48   19   21 1   
    49   21   54 1   
    50   22   23 1   
    51   22   55 1   
    52   22   56 1   
    53   23   24 ar  
    54   23   31 ar  
    55   24   25 ar  
    56   24   57 1   
    57   25   26 1   
    58   25   29 ar  
    59   26   27 1   
    60   27   28 1   
    61   27   58 1   
    62   27   59 1   
    63   28   29 1   
    64   29   30 ar  
    65   30   31 ar  
    66   30   60 1   
    67   31   61 1   
    68   32   33 ar  
    69   32   62 1   
    70   33   63 1   
    71   34   64 1   
@<TRIPOS>SUBSTRUCTURE
     1 UIR         1 TEMP              0 ****  ****    0 ROOT
