@<TRIPOS>MOLECULE
UIZ
   70    76     1     0     0
SMALL
bcc


@<TRIPOS>ATOM
      1 N1          7.9290    0.7620   -2.9010 n2        1 UIZ     -0.829100
      2 C3          7.6740   -0.3900   -3.4450 ce        1 UIZ      0.651800
      3 N2          8.5230   -1.1440   -4.2870 nh        1 UIZ     -0.958800
      4 C4          6.3170   -0.9930   -3.2460 ca        1 UIZ     -0.137900
      5 C5          5.5820   -1.4510   -4.3440 ca        1 UIZ     -0.104500
      6 C6          4.3270   -2.0210   -4.1500 ca        1 UIZ     -0.110000
      7 C7          3.7950   -2.1500   -2.8590 ca        1 UIZ     -0.069300
      8 C10         2.4300   -2.7680   -2.7050 c3        1 UIZ      0.233800
      9 C22         2.4690   -4.2830   -2.3760 c3        1 UIZ     -0.151700
     10 C20         3.8400   -4.9050   -2.1640 c         1 UIZ      0.711500
     11 O21         4.6640   -5.1800   -3.0490 o         1 UIZ     -0.621500
     12 N19         4.0270   -5.1860   -0.8060 n         1 UIZ     -0.466800
     13 C23         5.0340   -6.1010   -0.3460 c3        1 UIZ      0.142300
     14 C24         4.6600   -7.5590   -0.4060 ca        1 UIZ     -0.128300
     15 C32         4.7450   -8.2340   -1.6250 ca        1 UIZ     -0.113000
     16 C31         4.4390   -9.6020   -1.7430 ca        1 UIZ     -0.114000
     17 C30         4.0450  -10.2410   -0.5850 ca        1 UIZ      0.060100
     18 O29         3.6860  -11.5710   -0.4010 os        1 UIZ     -0.332900
     19 C28         3.3590  -11.7270    1.0000 c3        1 UIZ      0.321200
     20 O27         3.5300  -10.4420    1.6410 os        1 UIZ     -0.335900
     21 C26         3.9520   -9.5550    0.6550 ca        1 UIZ      0.049100
     22 C25         4.2510   -8.2140    0.7740 ca        1 UIZ     -0.107000
     23 C17         2.8100   -4.9640   -0.0180 c3        1 UIZ      0.109700
     24 C16         1.7310   -4.4610   -1.0260 c3        1 UIZ     -0.073700
     25 C15         1.0510   -3.1150   -0.7600 c3        1 UIZ      0.159500
     26 C14        -0.4790   -3.1650   -0.9840 c3        1 UIZ     -0.097400
     27 C13        -0.8150   -1.9420   -1.8270 c3        1 UIZ     -0.103400
     28 C12         0.5290   -1.2740   -2.1680 c3        1 UIZ      0.150800
     29 N11         1.6310   -2.0920   -1.6620 n3        1 UIZ     -0.694600
     30 C8          4.5290   -1.6750   -1.7680 ca        1 UIZ     -0.110000
     31 C9          5.7840   -1.0970   -1.9590 ca        1 UIZ     -0.104500
     32 C1          3.0830   -4.0620    1.1960 c3        1 UIZ     -0.046100
     33 C2          2.0640   -4.2020    2.2730 ca        1 UIZ     -0.081300
     34 C11         1.4260   -3.0650    2.7860 ca        1 UIZ     -0.131500
     35 C18         0.5030   -3.1810    3.8240 ca        1 UIZ     -0.126000
     36 C19         0.2110   -4.4330    4.3650 ca        1 UIZ     -0.131000
     37 C21         0.8520   -5.5680    3.8690 ca        1 UIZ     -0.126000
     38 C27         1.7770   -5.4530    2.8330 ca        1 UIZ     -0.131500
     39 HN1         8.8440    1.1310   -3.0520 hn        1 UIZ      0.379400
     40 HN21        9.4990   -0.9910   -4.1880 hn        1 UIZ      0.398800
     41 HN22        8.2690   -2.0970   -4.4030 hn        1 UIZ      0.398800
     42 H5          5.9850   -1.3530   -5.3640 ha        1 UIZ      0.143500
     43 H6          3.7570   -2.3810   -5.0190 ha        1 UIZ      0.138000
     44 H10         1.9160   -2.6750   -3.7140 h1        1 UIZ      0.047700
     45 H22         1.9620   -4.8510   -3.1980 hc        1 UIZ      0.087700
     46 H231        5.2920   -5.8300    0.7190 h1        1 UIZ      0.070700
     47 H232        5.9510   -5.9390   -0.9870 h1        1 UIZ      0.070700
     48 H32         5.0590   -7.6760   -2.5250 ha        1 UIZ      0.162000
     49 H31         4.5110  -10.1270   -2.7030 ha        1 UIZ      0.158000
     50 H281        2.2860  -12.0280    1.0840 h2        1 UIZ      0.073200
     51 H282        4.0770  -12.4520    1.4550 h2        1 UIZ      0.073200
     52 H25         4.1790   -7.6840    1.7330 ha        1 UIZ      0.152000
     53 H17         2.4620   -5.9680    0.3780 h1        1 UIZ      0.051700
     54 H16         0.9560   -5.2660   -1.1050 hc        1 UIZ      0.069700
     55 H15         1.2340   -2.7590    0.2910 h1        1 UIZ      0.084700
     56 H141       -1.0080   -3.1410   -0.0010 hc        1 UIZ      0.050200
     57 H142       -0.7830   -4.1020   -1.5110 hc        1 UIZ      0.050200
     58 H131       -1.3570   -2.2350   -2.7590 hc        1 UIZ      0.048700
     59 H132       -1.4680   -1.2310   -1.2640 hc        1 UIZ      0.048700
     60 H121        0.6090   -1.0840   -3.2710 h1        1 UIZ      0.054700
     61 H122        0.6070   -0.2800   -1.6450 h1        1 UIZ      0.054700
     62 H8          4.1200   -1.7500   -0.7490 ha        1 UIZ      0.138000
     63 H9          6.3480   -0.7140   -1.0950 ha        1 UIZ      0.143500
     64 H11A        3.1740   -2.9940    0.8620 hc        1 UIZ      0.065200
     65 H12         4.0790   -4.3390    1.6440 hc        1 UIZ      0.065200
     66 H11         1.6580   -2.0710    2.3730 ha        1 UIZ      0.133500
     67 H18         0.0080   -2.2820    4.2190 ha        1 UIZ      0.133000
     68 H19        -0.5180   -4.5240    5.1830 ha        1 UIZ      0.133000
     69 H21         0.6320   -6.5560    4.2980 ha        1 UIZ      0.133000
     70 H27         2.2900   -6.3540    2.4620 ha        1 UIZ      0.133500
@<TRIPOS>BOND
     1    1    2 2   
     2    1   39 1   
     3    2    3 1   
     4    2    4 1   
     5    3   40 1   
     6    3   41 1   
     7    4    5 ar  
     8    4   31 ar  
     9    5    6 ar  
    10    5   42 1   
    11    6    7 ar  
    12    6   43 1   
    13    7    8 1   
    14    7   30 ar  
    15    8    9 1   
    16    8   29 1   
    17    8   44 1   
    18    9   10 1   
    19    9   24 1   
    20    9   45 1   
    21   10   11 2   
    22   10   12 1   
    23   12   13 1   
    24   12   23 1   
    25   13   14 1   
    26   13   46 1   
    27   13   47 1   
    28   14   15 ar  
    29   14   22 ar  
    30   15   16 ar  
    31   15   48 1   
    32   16   17 ar  
    33   16   49 1   
    34   17   18 1   
    35   17   21 ar  
    36   18   19 1   
    37   19   20 1   
    38   19   50 1   
    39   19   51 1   
    40   20   21 1   
    41   21   22 ar  
    42   22   52 1   
    43   23   24 1   
    44   23   32 1   
    45   23   53 1   
    46   24   25 1   
    47   24   54 1   
    48   25   26 1   
    49   25   29 1   
    50   25   55 1   
    51   26   27 1   
    52   26   56 1   
    53   26   57 1   
    54   27   28 1   
    55   27   58 1   
    56   27   59 1   
    57   28   29 1   
    58   28   60 1   
    59   28   61 1   
    60   30   31 ar  
    61   30   62 1   
    62   31   63 1   
    63   32   33 1   
    64   32   64 1   
    65   32   65 1   
    66   33   34 ar  
    67   33   38 ar  
    68   34   35 ar  
    69   34   66 1   
    70   35   36 ar  
    71   35   67 1   
    72   36   37 ar  
    73   36   68 1   
    74   37   38 ar  
    75   37   69 1   
    76   38   70 1   
@<TRIPOS>SUBSTRUCTURE
     1 UIZ         1 TEMP              0 ****  ****    0 ROOT
