@<TRIPOS>MOLECULE
UJ6
   35    34     1     0     0
SMALL
bcc


@<TRIPOS>ATOM
      1 O1          0.1400    2.7410    0.1870 o         1 UJ6     -0.356000
      2 C2         -0.6220    2.0970   -0.4540 c1        1 UJ6      0.302000
      3 C3         -0.3480    0.7920   -1.0570 c3        1 UJ6     -0.064000
      4 C4         -0.4860   -0.4120   -0.0450 c3        1 UJ6     -0.107000
      5 C5          0.6250   -0.3230    1.0030 c2        1 UJ6     -0.076000
      6 C6          0.8170    0.8850    1.7300 c2        1 UJ6     -0.141000
      7 C7          1.7560    0.9340    2.7920 c1        1 UJ6     -0.146000
      8 C8          2.5040   -0.2200    3.1270 c1        1 UJ6     -0.010000
      9 O9          3.4390   -0.4910    4.1940 os        1 UJ6     -0.241000
     10 C10         3.7320   -1.8350    4.1720 c3        1 UJ6      0.097000
     11 O11         3.1050   -2.4060    2.9900 os        1 UJ6     -0.198000
     12 C12         2.3120   -1.4180    2.4040 c2        1 UJ6      0.015000
     13 C13         1.3590   -1.4600    1.3300 c2        1 UJ6     -0.045000
     14 C14         1.0390   -2.8060    0.6210 c2        1 UJ6      0.369000
     15 O15         1.4590   -3.8830    1.1010 o         1 UJ6     -0.553000
     16 O16         0.3830   -2.8130   -0.3970 o         1 UJ6     -0.553000
     17 C17        -1.3200    0.7200   -2.2430 c2        1 UJ6     -0.128000
     18 C18        -2.2730    1.7140   -2.0780 c2        1 UJ6      0.045000
     19 N19        -1.9030    2.5150   -0.8860 n2        1 UJ6     -0.340000
     20 C20        -3.3640    1.7990   -2.9660 c1        1 UJ6     -0.188000
     21 C21        -3.4850    0.8930   -4.0000 c1        1 UJ6     -0.137500
     22 C22        -2.5070   -0.1240   -4.1660 c1        1 UJ6     -0.137500
     23 C23        -1.4390   -0.2030   -3.2930 c1        1 UJ6     -0.059000
     24 H3          0.5880    0.7090   -1.3420 hc        1 UJ6      0.150000
     25 H4         -0.4120   -1.2510   -0.5250 hc        1 UJ6      0.115500
     26 H4A        -1.3610   -0.3660    0.4030 hc        1 UJ6      0.115500
     27 H6          0.2600    1.6650    1.5340 ha        1 UJ6      0.137000
     28 H7          1.9140    1.7880    3.2770 ha        1 UJ6      0.132000
     29 H10         4.6980   -1.9510    4.1100 h2        1 UJ6      0.089000
     30 H10A        3.3750   -2.2410    4.9380 h2        1 UJ6      0.089000
     31 HN19       -2.3760    3.1390   -0.5310 hn        1 UJ6      0.234000
     32 H20        -4.0250    2.4900   -2.8490 ha        1 UJ6      0.120000
     33 H21        -4.2200    1.0290   -4.7240 ha        1 UJ6      0.123500
     34 H22        -2.5940   -0.8110   -4.9490 ha        1 UJ6      0.123500
     35 H23        -0.7690   -0.8950   -3.4070 ha        1 UJ6      0.223000
@<TRIPOS>BOND
     1    1    2 1   
     2    2    3 1   
     3    3    4 1   
     4    3   17 1   
     5    3   24 1   
     6    4    5 1   
     7    4   25 1   
     8    4   26 1   
     9    5    6 1   
    10    5   13 1   
    11    6    7 1   
    12    6   27 1   
    13    7   28 1   
    14    8    9 1   
    15    8   12 1   
    16    9   10 1   
    17   10   11 1   
    18   10   29 1   
    19   10   30 1   
    20   11   12 1   
    21   12   13 1   
    22   13   14 1   
    23   14   15 1   
    24   14   16 1   
    25   17   18 1   
    26   17   23 1   
    27   18   19 1   
    28   18   20 1   
    29   19   31 1   
    30   20   32 1   
    31   21   22 1   
    32   21   33 1   
    33   22   34 1   
    34   23   35 1   
@<TRIPOS>SUBSTRUCTURE
     1 UJ6         1 TEMP              0 ****  ****    0 ROOT
