@<TRIPOS>MOLECULE
UJ6
   35    38     1     0     0
SMALL
bcc


@<TRIPOS>ATOM
      1 O1          0.2150   -0.5880   -1.2720 o         1 UJ6     -0.630500
      2 C2          1.3420   -0.4000   -0.7960 c         1 UJ6      0.700500
      3 C3          1.7620   -0.2560    0.6830 c3        1 UJ6     -0.074400
      4 C4          1.3850   -1.4750    1.5120 c3        1 UJ6     -0.017100
      5 C5          0.1720   -1.2490    2.3500 ca        1 UJ6     -0.077300
      6 C6         -1.0310   -1.8690    2.0090 ca        1 UJ6     -0.133000
      7 C7         -2.1890   -1.7370    2.7940 ca        1 UJ6     -0.145000
      8 C8         -2.0680   -0.9590    3.9250 ca        1 UJ6      0.035100
      9 O9         -3.0420   -0.6620    4.8800 os        1 UJ6     -0.357900
     10 C10        -2.4100    0.1960    5.8540 c3        1 UJ6      0.319200
     11 O11        -1.0400    0.3940    5.4630 os        1 UJ6     -0.315900
     12 C12        -0.8500   -0.3170    4.2740 ca        1 UJ6      0.063100
     13 C13         0.2920   -0.4350    3.5060 ca        1 UJ6     -0.072600
     14 C14         1.6090    0.2590    3.8210 c         1 UJ6      0.917200
     15 O15         2.5420   -0.4330    4.3180 o         1 UJ6     -0.820800
     16 O16         1.7190    1.4750    3.5050 o         1 UJ6     -0.820800
     17 C17         3.2500   -0.0530    0.5740 ca        1 UJ6     -0.128300
     18 C18         3.6260   -0.0690   -0.8100 ca        1 UJ6      0.043600
     19 N19         2.4900   -0.2840   -1.6090 n         1 UJ6     -0.496100
     20 C20         4.9530    0.1120   -1.1870 ca        1 UJ6     -0.193000
     21 C21         5.8980    0.3150   -0.1710 ca        1 UJ6     -0.116000
     22 C22         5.5310    0.3400    1.1690 ca        1 UJ6     -0.167000
     23 C23         4.1920    0.1580    1.5590 ca        1 UJ6     -0.053000
     24 H3          1.2870    0.6680    1.1250 hc        1 UJ6      0.144700
     25 H4          2.2440   -1.7040    2.2090 hc        1 UJ6      0.067700
     26 H4A         1.2340   -2.3600    0.8400 hc        1 UJ6      0.067700
     27 H6         -1.0860   -2.4740    1.0910 ha        1 UJ6      0.126000
     28 H7         -3.1300   -2.2250    2.5190 ha        1 UJ6      0.131000
     29 H10        -2.4310   -0.3170    6.8480 h2        1 UJ6      0.049700
     30 H10A       -2.9330    1.1840    5.8510 h2        1 UJ6      0.049700
     31 HN19        2.4990   -0.2990   -2.5920 hn        1 UJ6      0.321500
     32 H20         5.2590    0.1020   -2.2400 ha        1 UJ6      0.119000
     33 H21         6.9510    0.4610   -0.4520 ha        1 UJ6      0.112000
     34 H22         6.2910    0.5090    1.9440 ha        1 UJ6      0.128000
     35 H23         3.8840    0.1940    2.6270 ha        1 UJ6      0.218000
@<TRIPOS>BOND
     1    1    2 2   
     2    2    3 1   
     3    2   19 1   
     4    3    4 1   
     5    3   17 1   
     6    3   24 1   
     7    4    5 1   
     8    4   25 1   
     9    4   26 1   
    10    5    6 ar  
    11    5   13 ar  
    12    6    7 ar  
    13    6   27 1   
    14    7    8 ar  
    15    7   28 1   
    16    8    9 1   
    17    8   12 ar  
    18    9   10 1   
    19   10   11 1   
    20   10   29 1   
    21   10   30 1   
    22   11   12 1   
    23   12   13 ar  
    24   13   14 1   
    25   14   15 1   
    26   14   16 1   
    27   17   18 ar  
    28   17   23 ar  
    29   18   19 1   
    30   18   20 ar  
    31   19   31 1   
    32   20   21 ar  
    33   20   32 1   
    34   21   22 ar  
    35   21   33 1   
    36   22   23 ar  
    37   22   34 1   
    38   23   35 1   
@<TRIPOS>SUBSTRUCTURE
     1 UJ6         1 TEMP              0 ****  ****    0 ROOT
