@<TRIPOS>MOLECULE
UJ6
   35    38     1     0     0
SMALL
bcc


@<TRIPOS>ATOM
      1 O1          0.2030   -0.5260   -1.2690 o         1 UJ6     -0.630500
      2 C2          1.3320   -0.3520   -0.7930 c         1 UJ6      0.700500
      3 C3          1.7580   -0.2390    0.6870 c3        1 UJ6     -0.074400
      4 C4          1.3780   -1.4720    1.4940 c3        1 UJ6     -0.017100
      5 C5          0.1680   -1.2560    2.3400 ca        1 UJ6     -0.077300
      6 C6         -1.0390   -1.8620    1.9910 ca        1 UJ6     -0.133000
      7 C7         -2.1940   -1.7400    2.7830 ca        1 UJ6     -0.145000
      8 C8         -2.0650   -0.9840    3.9290 ca        1 UJ6      0.035100
      9 O9         -3.0340   -0.7020    4.8930 os        1 UJ6     -0.357900
     10 C10        -2.3940    0.1340    5.8810 c3        1 UJ6      0.319200
     11 O11        -1.0250    0.3320    5.4890 os        1 UJ6     -0.315900
     12 C12        -0.8430   -0.3570    4.2860 ca        1 UJ6      0.063100
     13 C13         0.2960   -0.4650    3.5120 ca        1 UJ6     -0.072600
     14 C14         1.6180    0.2150    3.8360 c         1 UJ6      0.917200
     15 O15         2.5490   -0.4920    4.3160 o         1 UJ6     -0.820800
     16 O16         1.7340    1.4360    3.5440 o         1 UJ6     -0.820800
     17 C17         3.2470   -0.0410    0.5770 ca        1 UJ6     -0.128300
     18 C18         3.6180   -0.0330   -0.8070 ca        1 UJ6      0.043600
     19 N19         2.4780   -0.2270   -1.6070 n         1 UJ6     -0.496100
     20 C20         4.9450    0.1490   -1.1860 ca        1 UJ6     -0.193000
     21 C21         5.8940    0.3280   -0.1690 ca        1 UJ6     -0.116000
     22 C22         5.5310    0.3290    1.1730 ca        1 UJ6     -0.167000
     23 C23         4.1930    0.1470    1.5630 ca        1 UJ6     -0.053000
     24 H3          1.2880    0.6790    1.1490 hc        1 UJ6      0.144700
     25 H4          2.2370   -1.7180    2.1840 hc        1 UJ6      0.067700
     26 H4A         1.2190   -2.3430    0.8060 hc        1 UJ6      0.067700
     27 H6         -1.1010   -2.4490    1.0620 ha        1 UJ6      0.127000
     28 H7         -3.1390   -2.2170    2.5010 ha        1 UJ6      0.131000
     29 H10        -2.9130    1.1250    5.8990 h2        1 UJ6      0.049700
     30 H10A       -2.4150   -0.3990    6.8640 h2        1 UJ6      0.049700
     31 HN19        2.4840   -0.2230   -2.5900 hn        1 UJ6      0.321500
     32 H20         5.2470    0.1580   -2.2400 ha        1 UJ6      0.119000
     33 H21         6.9470    0.4740   -0.4500 ha        1 UJ6      0.112000
     34 H22         6.2950    0.4800    1.9490 ha        1 UJ6      0.128000
     35 H23         3.8880    0.1630    2.6330 ha        1 UJ6      0.218000
@<TRIPOS>BOND
     1    1    2 2   
     2    2    3 1   
     3    2   19 1   
     4    3    4 1   
     5    3   17 1   
     6    3   24 1   
     7    4    5 1   
     8    4   25 1   
     9    4   26 1   
    10    5    6 ar  
    11    5   13 ar  
    12    6    7 ar  
    13    6   27 1   
    14    7    8 ar  
    15    7   28 1   
    16    8    9 1   
    17    8   12 ar  
    18    9   10 1   
    19   10   11 1   
    20   10   29 1   
    21   10   30 1   
    22   11   12 1   
    23   12   13 ar  
    24   13   14 1   
    25   14   15 1   
    26   14   16 1   
    27   17   18 ar  
    28   17   23 ar  
    29   18   19 1   
    30   18   20 ar  
    31   19   31 1   
    32   20   21 ar  
    33   20   32 1   
    34   21   22 ar  
    35   21   33 1   
    36   22   23 ar  
    37   22   34 1   
    38   23   35 1   
@<TRIPOS>SUBSTRUCTURE
     1 UJ6         1 TEMP              0 ****  ****    0 ROOT
