@<TRIPOS>MOLECULE
UJ6
   35    38     1     0     0
SMALL
bcc


@<TRIPOS>ATOM
      1 O1          1.4190   -3.2790   -0.4760 o         1 UJ6     -0.630500
      2 C2          2.0180   -2.2020   -0.3590 c         1 UJ6      0.700500
      3 C3          1.4420   -0.7830   -0.1690 c3        1 UJ6     -0.074400
      4 C4          0.5720   -0.6740    1.0750 c3        1 UJ6     -0.017100
      5 C5         -0.8870   -0.6870    0.7610 ca        1 UJ6     -0.077300
      6 C6         -1.6510   -1.8130    1.0670 ca        1 UJ6     -0.133000
      7 C7         -3.0390   -1.8580    0.8470 ca        1 UJ6     -0.145000
      8 C8         -3.6020   -0.7210    0.3080 ca        1 UJ6      0.035100
      9 O9         -4.9410   -0.4850   -0.0080 os        1 UJ6     -0.357900
     10 C10        -5.0040    0.8520   -0.5500 c3        1 UJ6      0.319200
     11 O11        -3.6770    1.4060   -0.5390 os        1 UJ6     -0.315900
     12 C12        -2.8300    0.4250   -0.0150 ca        1 UJ6      0.063100
     13 C13        -1.4650    0.4770    0.1920 ca        1 UJ6     -0.072600
     14 C14        -0.5910    1.6690   -0.1690 c         1 UJ6      0.917200
     15 O15        -0.2010    2.4250    0.7660 o         1 UJ6     -0.820800
     16 O16        -0.2470    1.7980   -1.3750 o         1 UJ6     -0.820800
     17 C17         2.6870    0.0600   -0.0940 ca        1 UJ6     -0.128300
     18 C18         3.8360   -0.7850   -0.2370 ca        1 UJ6      0.043600
     19 N19         3.4270   -2.1220   -0.3840 n         1 UJ6     -0.496100
     20 C20         5.1200   -0.2490   -0.2170 ca        1 UJ6     -0.193000
     21 C21         5.2440    1.1390   -0.0590 ca        1 UJ6     -0.116000
     22 C22         4.1290    1.9590    0.0700 ca        1 UJ6     -0.167000
     23 C23         2.8290    1.4250    0.0500 ca        1 UJ6     -0.053000
     24 H3          0.8420   -0.4900   -1.0810 hc        1 UJ6      0.144700
     25 H4          0.8220   -1.5020    1.7880 hc        1 UJ6      0.067700
     26 H4A         0.8030    0.3090    1.5800 hc        1 UJ6      0.067700
     27 H6         -1.1590   -2.7030    1.4870 ha        1 UJ6      0.127000
     28 H7         -3.6320   -2.7460    1.0880 ha        1 UJ6      0.131000
     29 H10        -5.3620    0.7900   -1.6070 h2        1 UJ6      0.049700
     30 H10A       -5.6600    1.4720    0.1090 h2        1 UJ6      0.049700
     31 HN19        4.0410   -2.8760   -0.5320 hn        1 UJ6      0.321500
     32 H20         6.0100   -0.8810   -0.3240 ha        1 UJ6      0.119000
     33 H21         6.2510    1.5800   -0.0420 ha        1 UJ6      0.112000
     34 H22         4.2550    3.0450    0.1840 ha        1 UJ6      0.128000
     35 H23         1.9290    2.0730    0.1350 ha        1 UJ6      0.218000
@<TRIPOS>BOND
     1    1    2 2   
     2    2    3 1   
     3    2   19 1   
     4    3    4 1   
     5    3   17 1   
     6    3   24 1   
     7    4    5 1   
     8    4   25 1   
     9    4   26 1   
    10    5    6 ar  
    11    5   13 ar  
    12    6    7 ar  
    13    6   27 1   
    14    7    8 ar  
    15    7   28 1   
    16    8    9 1   
    17    8   12 ar  
    18    9   10 1   
    19   10   11 1   
    20   10   29 1   
    21   10   30 1   
    22   11   12 1   
    23   12   13 ar  
    24   13   14 1   
    25   14   15 1   
    26   14   16 1   
    27   17   18 ar  
    28   17   23 ar  
    29   18   19 1   
    30   18   20 ar  
    31   19   31 1   
    32   20   21 ar  
    33   20   32 1   
    34   21   22 ar  
    35   21   33 1   
    36   22   23 ar  
    37   22   34 1   
    38   23   35 1   
@<TRIPOS>SUBSTRUCTURE
     1 UJ6         1 TEMP              0 ****  ****    0 ROOT
