@<TRIPOS>MOLECULE
UJB
   52    53     1     0     0
SMALL
bcc


@<TRIPOS>ATOM
      1 C1          0.3480    0.8300   -0.6560 c3        1 UJB      0.159800
      2 C2          1.9610   -0.1610    0.8710 cc        1 UJB      0.675800
      3 N3          1.2200   -0.4950    2.0220 n         1 UJB     -0.312500
      4 N4          1.2680   -0.2420   -0.4050 nh        1 UJB     -0.710600
      5 N5          3.2480    0.1960    0.8800 nd        1 UJB     -0.698300
      6 C6          1.8700   -0.4210    3.3010 c         1 UJB      0.718700
      7 C7         -0.1250   -0.9300    1.9240 c2        1 UJB     -0.071400
      8 C8          3.9260    0.2540    2.1100 cd        1 UJB      0.424600
      9 C9          3.2680   -0.0590    3.2980 cc        1 UJB     -0.408200
     10 O10         1.2100   -0.6770    4.3240 o         1 UJB     -0.624500
     11 C11        -1.1110   -0.5950    2.7670 c2        1 UJB     -0.196000
     12 C12         6.0600    0.8270    0.9530 c3        1 UJB      0.185500
     13 C13         6.6250   -0.5150    0.4360 c3        1 UJB      0.100400
     14 O14         7.5380   -1.1060    1.3490 os        1 UJB     -0.420600
     15 C15         6.9950   -2.1070    2.2060 c3        1 UJB      0.153600
     16 C16         6.9110   -1.6590    3.6240 c2        1 UJB     -0.211200
     17 N17         5.2420    0.7020    2.1420 nh        1 UJB     -0.725000
     18 C18         0.9590    2.2310   -1.0500 c3        1 UJB      0.583900
     19 F19         1.7500    2.2060   -2.1690 f         1 UJB     -0.233633
     20 F20        -0.0210    3.1480   -1.3320 f         1 UJB     -0.233633
     21 F21         1.7240    2.8140   -0.0770 f         1 UJB     -0.233633
     22 S22         3.6600   -2.4440   -2.9160 ss        1 UJB     -0.240700
     23 C23         2.6200   -2.0760   -1.4050 c3        1 UJB      0.032600
     24 C24         1.5400   -3.1220   -1.4860 c2        1 UJB     -0.140300
     25 C25         1.9480   -4.1250   -2.2680 c1        1 UJB     -0.129800
     26 C26         3.1030   -4.0700   -2.9700 c2        1 UJB      0.133900
     27 CL          3.9500   -5.3120   -3.6560 cl        1 UJB      0.016600
     28 C28         2.0630   -0.6690   -1.5500 c3        1 UJB      0.206800
     29 C30         7.6180   -0.6620    4.1500 c2        1 UJB     -0.206000
     30 H1         -0.2840    1.0100    0.2590 h1        1 UJB      0.102700
     31 H111       -0.3180    0.5310   -1.5140 h1        1 UJB      0.102700
     32 H112       -0.9790    0.0590    3.6400 ha        1 UJB      0.138000
     33 H71C       -2.1170   -1.0140    2.6300 ha        1 UJB      0.138000
     34 H72C       -0.3060   -1.6240    1.0790 h4        1 UJB      0.144000
     35 H281        1.3790   -0.6380   -2.4490 h1        1 UJB      0.077700
     36 H282        2.9230    0.0370   -1.7540 h1        1 UJB      0.077700
     37 H9          3.7550   -0.0260    4.2800 ha        1 UJB      0.172000
     38 H12         5.7470    0.4490    2.9690 hn        1 UJB      0.435800
     39 H131        5.4210    1.2540    0.1220 h1        1 UJB      0.085700
     40 H132        7.2480   -0.3100   -0.4780 h1        1 UJB      0.055200
     41 H151        5.7920   -1.2160    0.1690 h1        1 UJB      0.055200
     42 H152        7.7240   -2.9650    2.1350 h1        1 UJB      0.053700
     43 H16         5.9900   -2.4570    1.8490 h1        1 UJB      0.053700
     44 H301        6.2230   -2.2630    4.2400 ha        1 UJB      0.129000
     45 H302        8.3200   -0.0630    3.5520 ha        1 UJB      0.121500
     46 H303        7.5450   -0.3860    5.2100 ha        1 UJB      0.121500
     47 H24         3.3030   -2.1720   -0.5270 h1        1 UJB      0.111700
     48 H25         0.5690   -2.9730   -1.0120 ha        1 UJB      0.176000
     49 C29         7.2240    1.7940    1.1860 c3        1 UJB     -0.098100
     50 H291        6.8590    2.7770    1.5660 hc        1 UJB      0.048700
     51 H292        7.9510    1.3650    1.9170 hc        1 UJB      0.048700
     52 H293        7.7500    1.9560    0.2150 hc        1 UJB      0.048700
@<TRIPOS>BOND
     1    1    4 1   
     2    1   18 1   
     3    1   30 1   
     4    1   31 1   
     5    2    3 1   
     6    2    4 1   
     7    2    5 2   
     8    3    6 1   
     9    3    7 1   
    10    4   28 1   
    11    5    8 1   
    12    6    9 1   
    13    6   10 2   
    14    7   11 2   
    15    7   34 1   
    16    8    9 2   
    17    8   17 1   
    18    9   37 1   
    19   11   32 1   
    20   11   33 1   
    21   12   13 1   
    22   12   17 1   
    23   12   39 1   
    24   12   49 1   
    25   13   14 1   
    26   13   40 1   
    27   13   41 1   
    28   14   15 1   
    29   15   16 1   
    30   15   42 1   
    31   15   43 1   
    32   16   29 2   
    33   16   44 1   
    34   17   38 1   
    35   18   19 1   
    36   18   20 1   
    37   18   21 1   
    38   22   23 1   
    39   22   26 1   
    40   23   24 1   
    41   23   28 1   
    42   23   47 1   
    43   24   25 2   
    44   24   48 1   
    45   25   26 2   
    46   26   27 1   
    47   28   35 1   
    48   28   36 1   
    49   29   45 1   
    50   29   46 1   
    51   49   50 1   
    52   49   51 1   
    53   49   52 1   
@<TRIPOS>SUBSTRUCTURE
     1 UJB         1 TEMP              0 ****  ****    0 ROOT
