@<TRIPOS>MOLECULE
UJB
   52    53     1     0     0
SMALL
bcc


@<TRIPOS>ATOM
      1 C1         -1.0690   -0.0720    1.3130 c3        1 UJB     -0.135400
      2 C2          2.1550   -0.1840    0.2640 cc        1 UJB      0.233400
      3 N3          1.9090    1.0310    0.9620 n         1 UJB     -0.084900
      4 N4          1.3110   -0.5610   -0.7770 nu        1 UJB     -0.122200
      5 N5          3.2410   -1.0180    0.5450 nd        1 UJB     -0.719300
      6 C6          3.1310    1.6530    1.6390 c         1 UJB      0.695700
      7 C7          0.7530    1.6410    1.1420 c2        1 UJB      0.063500
      8 C8          4.2180   -0.5430    1.3410 cd        1 UJB      0.444600
      9 C9          4.2150    0.8050    1.8340 cc        1 UJB     -0.476200
     10 O10         2.9800    2.8500    1.9480 o         1 UJB     -0.667500
     11 C11        -0.6300    1.2680    0.7600 c3        1 UJB     -0.140700
     12 C12         8.5130    2.2520    4.3370 c2        1 UJB     -0.214200
     13 C13         7.7250    1.7820    3.1640 c3        1 UJB      0.154600
     14 O14         7.2070    0.4760    3.3600 oh        1 UJB     -0.616800
     15 C15         6.6170   -2.7270    0.0320 cx        1 UJB     -0.151900
     16 C16         5.5510   -2.6000    1.1070 cx        1 UJB      0.157500
     17 N17         5.2560   -1.3800    1.7790 nu        1 UJB     -0.698000
     18 C18        -2.1320   -0.7290    0.3930 c3        1 UJB      0.624900
     19 F19        -2.5450   -1.9610    0.8250 f         1 UJB     -0.237633
     20 F20        -3.2830    0.0010    0.2430 f         1 UJB     -0.237633
     21 F21        -1.6900   -0.9400   -0.8940 f         1 UJB     -0.237633
     22 S22         3.6020   -2.0570   -3.1520 ss        1 UJB     -0.240700
     23 C23         2.4290   -2.6110   -1.7500 c3        1 UJB      0.029300
     24 C24         1.8580   -3.8870   -2.3250 c2        1 UJB     -0.157300
     25 C25         2.6560   -4.3520   -3.2870 c1        1 UJB     -0.139800
     26 C26         3.7250   -3.6500   -3.7420 c2        1 UJB      0.132900
     27 Cl          5.0170   -4.2310   -4.6020 cl        1 UJB      0.003600
     28 C28         1.3920   -1.5920   -1.6160 c2        1 UJB      0.099200
     29 C30         6.8500   -3.3290    1.3850 cx        1 UJB     -0.151900
     30 H1          0.5110    0.0300   -0.9360 hn        1 UJB      0.295700
     31 H111       -1.5330    0.0580    2.3250 hc        1 UJB      0.101700
     32 H112       -0.7750    1.3140   -0.3560 hc        1 UJB      0.076700
     33 H71C       -1.3150    2.0640    1.1720 hc        1 UJB      0.076700
     34 H72C        0.8220    2.6110    1.6930 h4        1 UJB      0.076800
     35 H281       -0.2190   -0.7930    1.4220 hc        1 UJB      0.101700
     36 H282        0.5430   -1.6620   -2.3300 h4        1 UJB      0.040800
     37 H9          5.0770    1.2170    2.3750 ha        1 UJB      0.167000
     38 H12         6.0590   -0.8770    2.1090 hn        1 UJB      0.436800
     39 H131        8.3910    1.6810    2.2620 h1        1 UJB      0.057700
     40 H132        6.8870    2.4930    2.9250 h1        1 UJB      0.057700
     41 H151        6.6370    0.5060    4.1390 ho        1 UJB      0.408000
     42 H152        7.2050   -1.8410   -0.2620 hc        1 UJB      0.075450
     43 H16         6.4140   -3.3880   -0.8280 hc        1 UJB      0.075450
     44 H301        4.6340   -3.2210    0.9840 h1        1 UJB      0.100700
     45 H302        6.8090   -4.4260    1.5070 hc        1 UJB      0.075450
     46 H303        7.6060   -2.8710    2.0490 hc        1 UJB      0.075450
     47 H24         3.0910   -2.7620   -0.8620 h1        1 UJB      0.157700
     48 H25         0.8950   -4.2740   -1.9910 ha        1 UJB      0.171000
     49 C29         8.7500    3.5360    4.5910 c2        1 UJB     -0.206000
     50 H291        8.3610    4.3490    3.9630 ha        1 UJB      0.115000
     51 H292        8.9090    1.4490    4.9810 ha        1 UJB      0.132000
     52 H293        9.3530    3.8620    5.4490 ha        1 UJB      0.115000
@<TRIPOS>BOND
     1    1   11 1   
     2    1   18 1   
     3    1   31 1   
     4    1   35 1   
     5    2    3 1   
     6    2    4 1   
     7    2    5 2   
     8    3    6 1   
     9    3    7 2   
    10    4   28 2   
    11    4   30 1   
    12    5    8 1   
    13    6    9 1   
    14    6   10 2   
    15    7   11 1   
    16    7   34 1   
    17    8    9 2   
    18    8   17 1   
    19    9   37 1   
    20   11   32 1   
    21   11   33 1   
    22   12   13 1   
    23   12   49 2   
    24   12   51 1   
    25   13   14 1   
    26   13   39 1   
    27   13   40 1   
    28   14   41 1   
    29   15   16 1   
    30   15   29 1   
    31   15   42 1   
    32   15   43 1   
    33   16   17 1   
    34   16   29 1   
    35   16   44 1   
    36   17   38 1   
    37   18   19 1   
    38   18   20 1   
    39   18   21 1   
    40   22   23 1   
    41   22   26 1   
    42   23   24 1   
    43   23   28 1   
    44   23   47 1   
    45   24   25 2   
    46   24   48 1   
    47   25   26 2   
    48   26   27 1   
    49   28   36 1   
    50   29   45 1   
    51   29   46 1   
    52   49   50 1   
    53   49   52 1   
@<TRIPOS>SUBSTRUCTURE
     1 UJB         1 TEMP              0 ****  ****    0 ROOT
