@<TRIPOS>MOLECULE
UKC
   40    43     1     0     0
SMALL
bcc


@<TRIPOS>ATOM
      1 C1         -0.0990   -0.1490    0.2760 ca        1 UKC      0.646600
      2 O          -0.7900   -0.2210   -0.9150 os        1 UKC     -0.444100
      3 C          -2.2150   -0.3160   -0.8540 c3        1 UKC      0.124700
      4 C2          1.3080   -0.0290    0.1350 ca        1 UKC     -0.261300
      5 C3          2.0670    0.0460    1.2890 ca        1 UKC     -0.070000
      6 C4          1.4450   -0.0130    2.5570 ca        1 UKC     -0.144500
      7 N1          2.2100    0.0540    3.7330 na        1 UKC     -0.096000
      8 C5          3.4540   -0.5590    3.9680 cc        1 UKC     -0.196900
      9 C6          4.1860   -1.4270    3.0360 c3        1 UKC     -0.025800
     10 C7          3.8280   -0.1770    5.2750 cd        1 UKC      0.297200
     11 N4          2.8620    0.6370    5.8440 nd        1 UKC     -0.654000
     12 C8          1.8790    0.7680    4.9120 cc        1 UKC      0.471000
     13 C9          0.6480    1.5290    5.0810 ca        1 UKC     -0.218800
     14 C10         0.6740    2.7320    5.8020 ca        1 UKC     -0.050000
     15 C11        -0.5060    3.4470    5.9790 ca        1 UKC     -0.260300
     16 C12        -1.6880    2.9300    5.4190 ca        1 UKC      0.418200
     17 N2         -1.7520    1.7860    4.7240 nb        1 UKC     -0.691000
     18 C13        -0.6000    1.0690    4.5600 ca        1 UKC      0.480800
     19 N3         -0.6210   -0.2090    3.8910 na        1 UKC     -0.278700
     20 C14         0.0090   -0.1300    2.6000 ca        1 UKC      0.518800
     21 N          -0.7410   -0.1820    1.4640 nb        1 UKC     -0.746000
     22 C15        -1.8790   -0.9470    3.9770 c3        1 UKC      0.017300
     23 C16        -1.7300   -2.4240    3.6440 c3        1 UKC     -0.098100
     24 H1         -2.5240   -1.2490   -0.3260 h1        1 UKC      0.053033
     25 H2A        -2.5070   -0.3510   -1.9340 h1        1 UKC      0.053033
     26 H3A        -2.6480    0.5820   -0.3520 h1        1 UKC      0.053033
     27 H2          1.7580    0.0060   -0.8660 ha        1 UKC      0.166000
     28 H3          3.1620    0.1520    1.2160 ha        1 UKC      0.156000
     29 H61         4.8730   -0.8200    2.3930 hc        1 UKC      0.051700
     30 H62         4.8040   -2.1540    3.6220 hc        1 UKC      0.051700
     31 H63         3.4940   -2.0020    2.3710 hc        1 UKC      0.051700
     32 H7          4.7310   -0.4560    5.8170 h4        1 UKC      0.043100
     33 H10         1.6230    3.0950    6.2270 ha        1 UKC      0.163000
     34 H11        -0.5210    4.3900    6.5400 ha        1 UKC      0.150000
     35 H12        -2.6500    3.4660    5.5290 h4        1 UKC      0.026100
     36 H151       -2.6810   -0.4990    3.3230 h1        1 UKC      0.057700
     37 H152       -2.2240   -0.8620    5.0490 h1        1 UKC      0.057700
     38 H161       -0.9560   -2.9080    4.2870 hc        1 UKC      0.042700
     39 H162       -2.7120   -2.9220    3.8320 hc        1 UKC      0.042700
     40 H163       -1.4520   -2.5800    2.5760 hc        1 UKC      0.042700
@<TRIPOS>BOND
     1    1    2 1   
     2    1    4 ar  
     3    1   21 ar  
     4    2    3 1   
     5    3   24 1   
     6    3   25 1   
     7    3   26 1   
     8    4    5 ar  
     9    4   27 1   
    10    5    6 ar  
    11    5   28 1   
    12    6    7 1   
    13    6   20 ar  
    14    7    8 1   
    15    7   12 1   
    16    8    9 1   
    17    8   10 2   
    18    9   29 1   
    19    9   30 1   
    20    9   31 1   
    21   10   11 1   
    22   10   32 1   
    23   11   12 2   
    24   12   13 1   
    25   13   14 ar  
    26   13   18 ar  
    27   14   15 ar  
    28   14   33 1   
    29   15   16 ar  
    30   15   34 1   
    31   16   17 ar  
    32   16   35 1   
    33   17   18 ar  
    34   18   19 1   
    35   19   20 1   
    36   19   22 1   
    37   20   21 ar  
    38   22   23 1   
    39   22   36 1   
    40   22   37 1   
    41   23   38 1   
    42   23   39 1   
    43   23   40 1   
@<TRIPOS>SUBSTRUCTURE
     1 UKC         1 TEMP              0 ****  ****    0 ROOT
