@<TRIPOS>MOLECULE
UKC
   40    43     1     0     0
SMALL
bcc


@<TRIPOS>ATOM
      1 C1         -0.1780    0.2710   -2.9550 ca        1 UKC      0.646600
      2 O          -0.7380    0.3060   -4.2140 os        1 UKC     -0.444100
      3 C          -2.0010   -0.3340   -4.3990 c3        1 UKC      0.124700
      4 C2          1.0630    0.9510   -2.8430 ca        1 UKC     -0.261300
      5 C3          1.6850    0.9550   -1.6070 ca        1 UKC     -0.070000
      6 C4          1.0970    0.2860   -0.5090 ca        1 UKC     -0.144500
      7 N1          1.7260    0.2790    0.7460 na        1 UKC     -0.096000
      8 C5          3.1030    0.1430    1.0000 cc        1 UKC     -0.196900
      9 C6          4.1570   -0.0590   -0.0030 c3        1 UKC     -0.025800
     10 C7          3.2430    0.2250    2.4030 cd        1 UKC      0.297200
     11 N4          2.0100    0.4000    3.0110 nd        1 UKC     -0.654000
     12 C8          1.0930    0.4230    2.0060 cc        1 UKC      0.471000
     13 C9         -0.3460    0.5730    2.1770 ca        1 UKC     -0.218800
     14 C10        -0.8380    1.4170    3.1830 ca        1 UKC     -0.050000
     15 C11        -2.2130    1.5440    3.3580 ca        1 UKC     -0.260300
     16 C12        -3.0620    0.8120    2.5080 ca        1 UKC      0.418200
     17 N2         -2.6300   -0.0040    1.5360 nb        1 UKC     -0.691000
     18 C13        -1.2800   -0.1450    1.3690 ca        1 UKC      0.480800
     19 N3         -0.7560   -1.0700    0.3940 na        1 UKC     -0.278700
     20 C14        -0.1680   -0.3720   -0.7190 ca        1 UKC      0.518800
     21 N          -0.7920   -0.3590   -1.9300 nb        1 UKC     -0.746000
     22 C15        -1.6070   -2.2180    0.0890 c3        1 UKC      0.017300
     23 C16        -0.8590   -3.3530   -0.5920 c3        1 UKC     -0.098100
     24 H1         -2.2160   -0.1490   -5.4830 h1        1 UKC      0.053033
     25 H2A        -1.9230   -1.4270   -4.1890 h1        1 UKC      0.053033
     26 H3A        -2.7800    0.1370   -3.7530 h1        1 UKC      0.053033
     27 H2          1.4940    1.4540   -3.7170 ha        1 UKC      0.166000
     28 H3          2.6440    1.4850   -1.4800 ha        1 UKC      0.156000
     29 H61         4.5600    0.9270   -0.3510 hc        1 UKC      0.051700
     30 H62         4.9960   -0.6370    0.4600 hc        1 UKC      0.051700
     31 H63         3.7830   -0.6230   -0.8930 hc        1 UKC      0.051700
     32 H7          4.1620    0.1590    2.9850 h4        1 UKC      0.043100
     33 H10        -0.1340    1.9670    3.8290 ha        1 UKC      0.163000
     34 H11        -2.6290    2.1940    4.1380 ha        1 UKC      0.150000
     35 H12        -4.1610    0.8840    2.6060 h4        1 UKC      0.026100
     36 H151       -2.4980   -1.9320   -0.5390 h1        1 UKC      0.057700
     37 H152       -1.9940   -2.5970    1.0800 h1        1 UKC      0.057700
     38 H161       -1.5590   -4.2180   -0.6950 hc        1 UKC      0.042700
     39 H162       -0.5040   -3.0630   -1.6090 hc        1 UKC      0.042700
     40 H163        0.0220   -3.6780    0.0120 hc        1 UKC      0.042700
@<TRIPOS>BOND
     1    1    2 1   
     2    1    4 ar  
     3    1   21 ar  
     4    2    3 1   
     5    3   24 1   
     6    3   25 1   
     7    3   26 1   
     8    4    5 ar  
     9    4   27 1   
    10    5    6 ar  
    11    5   28 1   
    12    6    7 1   
    13    6   20 ar  
    14    7    8 1   
    15    7   12 1   
    16    8    9 1   
    17    8   10 2   
    18    9   29 1   
    19    9   30 1   
    20    9   31 1   
    21   10   11 1   
    22   10   32 1   
    23   11   12 2   
    24   12   13 1   
    25   13   14 ar  
    26   13   18 ar  
    27   14   15 ar  
    28   14   33 1   
    29   15   16 ar  
    30   15   34 1   
    31   16   17 ar  
    32   16   35 1   
    33   17   18 ar  
    34   18   19 1   
    35   19   20 1   
    36   19   22 1   
    37   20   21 ar  
    38   22   23 1   
    39   22   36 1   
    40   22   37 1   
    41   23   38 1   
    42   23   39 1   
    43   23   40 1   
@<TRIPOS>SUBSTRUCTURE
     1 UKC         1 TEMP              0 ****  ****    0 ROOT
