@<TRIPOS>MOLECULE
UKC
   40    43     1     0     0
SMALL
bcc


@<TRIPOS>ATOM
      1 C1         -0.1120   -0.1480    0.2780 ca        1 UKC      0.646600
      2 O          -0.8090   -0.2210   -0.9090 os        1 UKC     -0.444100
      3 C          -2.2330   -0.3170   -0.8420 c3        1 UKC      0.124700
      4 C2          1.2940   -0.0280    0.1300 ca        1 UKC     -0.261300
      5 C3          2.0580    0.0480    1.2810 ca        1 UKC     -0.070000
      6 C4          1.4420   -0.0120    2.5520 ca        1 UKC     -0.144500
      7 N1          2.2120    0.0560    3.7240 na        1 UKC     -0.096000
      8 C5          3.4580   -0.5550    3.9540 cc        1 UKC     -0.196900
      9 C6          4.1880   -1.4220    3.0180 c3        1 UKC     -0.025800
     10 C7          3.8380   -0.1730    5.2590 cd        1 UKC      0.297200
     11 N4          2.8740    0.6400    5.8330 nd        1 UKC     -0.654000
     12 C8          1.8870    0.7690    4.9050 cc        1 UKC      0.471000
     13 C9          0.6550    1.5290    5.0800 ca        1 UKC     -0.218800
     14 C10         0.6830    2.7310    5.8010 ca        1 UKC     -0.050000
     15 C11        -0.4980    3.4450    5.9840 ca        1 UKC     -0.260300
     16 C12        -1.6820    2.9260    5.4290 ca        1 UKC      0.418200
     17 N2         -1.7470    1.7820    4.7350 nb        1 UKC     -0.691000
     18 C13        -0.5950    1.0670    4.5650 ca        1 UKC      0.480800
     19 N3         -0.6170   -0.2110    3.8960 na        1 UKC     -0.278700
     20 C14         0.0070   -0.1310    2.6020 ca        1 UKC      0.518800
     21 N          -0.7480   -0.1830    1.4700 nb        1 UKC     -0.746000
     22 C15        -1.8740   -0.9510    3.9870 c3        1 UKC      0.017300
     23 C16        -1.7240   -2.4270    3.6540 c3        1 UKC     -0.098100
     24 H1         -2.6640    0.5800   -0.3380 h1        1 UKC      0.053033
     25 H2A        -2.5390   -1.2510   -0.3130 h1        1 UKC      0.053033
     26 H3A        -2.5300   -0.3520   -1.9210 h1        1 UKC      0.053033
     27 H2          1.7390    0.0090   -0.8720 ha        1 UKC      0.166000
     28 H3          3.1530    0.1560    1.2030 ha        1 UKC      0.156000
     29 H61         4.8710   -0.8140    2.3720 hc        1 UKC      0.051700
     30 H62         3.4940   -1.9980    2.3560 hc        1 UKC      0.051700
     31 H63         4.8090   -2.1480    3.6010 hc        1 UKC      0.051700
     32 H7          4.7440   -0.4500    5.7970 h4        1 UKC      0.043100
     33 H10         1.6330    3.0960    6.2220 ha        1 UKC      0.163000
     34 H11        -0.5110    4.3880    6.5460 ha        1 UKC      0.150000
     35 H12        -2.6430    3.4600    5.5440 h4        1 UKC      0.026100
     36 H151       -2.2130   -0.8670    5.0610 h1        1 UKC      0.057700
     37 H152       -2.6790   -0.5040    3.3380 h1        1 UKC      0.057700
     38 H161       -0.9460   -2.9100    4.2920 hc        1 UKC      0.042700
     39 H162       -2.7040   -2.9270    3.8450 hc        1 UKC      0.042700
     40 H163       -1.4510   -2.5830    2.5840 hc        1 UKC      0.042700
@<TRIPOS>BOND
     1    1    2 1   
     2    1    4 ar  
     3    1   21 ar  
     4    2    3 1   
     5    3   24 1   
     6    3   25 1   
     7    3   26 1   
     8    4    5 ar  
     9    4   27 1   
    10    5    6 ar  
    11    5   28 1   
    12    6    7 1   
    13    6   20 ar  
    14    7    8 1   
    15    7   12 1   
    16    8    9 1   
    17    8   10 2   
    18    9   29 1   
    19    9   30 1   
    20    9   31 1   
    21   10   11 1   
    22   10   32 1   
    23   11   12 2   
    24   12   13 1   
    25   13   14 ar  
    26   13   18 ar  
    27   14   15 ar  
    28   14   33 1   
    29   15   16 ar  
    30   15   34 1   
    31   16   17 ar  
    32   16   35 1   
    33   17   18 ar  
    34   18   19 1   
    35   19   20 1   
    36   19   22 1   
    37   20   21 ar  
    38   22   23 1   
    39   22   36 1   
    40   22   37 1   
    41   23   38 1   
    42   23   39 1   
    43   23   40 1   
@<TRIPOS>SUBSTRUCTURE
     1 UKC         1 TEMP              0 ****  ****    0 ROOT
