@<TRIPOS>MOLECULE
UKC
   40    43     1     0     0
SMALL
bcc


@<TRIPOS>ATOM
      1 C1         -0.0950   -0.1510    0.2760 ca        1 UKC      0.646600
      2 O          -0.7850   -0.2230   -0.9160 os        1 UKC     -0.444100
      3 C          -2.2100   -0.3130   -0.8570 c3        1 UKC      0.124700
      4 C2          1.3120   -0.0350    0.1360 ca        1 UKC     -0.261300
      5 C3          2.0700    0.0390    1.2920 ca        1 UKC     -0.070000
      6 C4          1.4460   -0.0160    2.5590 ca        1 UKC     -0.144500
      7 N1          2.2090    0.0500    3.7360 na        1 UKC     -0.096000
      8 C5          3.4510   -0.5650    3.9730 cc        1 UKC     -0.196900
      9 C6          4.1830   -1.4360    3.0440 c3        1 UKC     -0.025800
     10 C7          3.8240   -0.1830    5.2800 cd        1 UKC      0.297200
     11 N4          2.8590    0.6350    5.8470 nd        1 UKC     -0.654000
     12 C8          1.8780    0.7660    4.9130 cc        1 UKC      0.471000
     13 C9          0.6490    1.5310    5.0790 ca        1 UKC     -0.218800
     14 C10         0.6760    2.7340    5.7990 ca        1 UKC     -0.050000
     15 C11        -0.5030    3.4530    5.9730 ca        1 UKC     -0.260300
     16 C12        -1.6850    2.9370    5.4130 ca        1 UKC      0.418200
     17 N2         -1.7510    1.7920    4.7190 nb        1 UKC     -0.691000
     18 C13        -0.6000    1.0720    4.5580 ca        1 UKC      0.480800
     19 N3         -0.6230   -0.2060    3.8900 na        1 UKC     -0.278700
     20 C14         0.0100   -0.1300    2.6000 ca        1 UKC      0.518800
     21 N          -0.7390   -0.1810    1.4630 nb        1 UKC     -0.746000
     22 C15        -1.8830   -0.9420    3.9750 c3        1 UKC      0.017300
     23 C16        -1.7360   -2.4180    3.6440 c3        1 UKC     -0.098100
     24 H1         -2.6410    0.5860   -0.3570 h1        1 UKC      0.053033
     25 H2A        -2.5220   -1.2450   -0.3290 h1        1 UKC      0.053033
     26 H3A        -2.5010   -0.3490   -1.9380 h1        1 UKC      0.053033
     27 H2          1.7630   -0.0020   -0.8640 ha        1 UKC      0.166000
     28 H3          3.1650    0.1430    1.2200 ha        1 UKC      0.156000
     29 H61         4.8720   -0.8310    2.4010 hc        1 UKC      0.051700
     30 H62         3.4910   -2.0110    2.3780 hc        1 UKC      0.051700
     31 H63         4.7980   -2.1630    3.6310 hc        1 UKC      0.051700
     32 H7          4.7260   -0.4620    5.8240 h4        1 UKC      0.043100
     33 H10         1.6250    3.0960    6.2250 ha        1 UKC      0.163000
     34 H11        -0.5160    4.3960    6.5340 ha        1 UKC      0.150000
     35 H12        -2.6460    3.4750    5.5210 h4        1 UKC      0.026100
     36 H151       -2.2280   -0.8550    5.0460 h1        1 UKC      0.057700
     37 H152       -2.6820   -0.4920    3.3200 h1        1 UKC      0.057700
     38 H161       -0.9640   -2.9040    4.2880 hc        1 UKC      0.042700
     39 H162       -2.7200   -2.9150    3.8310 hc        1 UKC      0.042700
     40 H163       -1.4580   -2.5770    2.5760 hc        1 UKC      0.042700
@<TRIPOS>BOND
     1    1    2 1   
     2    1    4 ar  
     3    1   21 ar  
     4    2    3 1   
     5    3   24 1   
     6    3   25 1   
     7    3   26 1   
     8    4    5 ar  
     9    4   27 1   
    10    5    6 ar  
    11    5   28 1   
    12    6    7 1   
    13    6   20 ar  
    14    7    8 1   
    15    7   12 1   
    16    8    9 1   
    17    8   10 2   
    18    9   29 1   
    19    9   30 1   
    20    9   31 1   
    21   10   11 1   
    22   10   32 1   
    23   11   12 2   
    24   12   13 1   
    25   13   14 ar  
    26   13   18 ar  
    27   14   15 ar  
    28   14   33 1   
    29   15   16 ar  
    30   15   34 1   
    31   16   17 ar  
    32   16   35 1   
    33   17   18 ar  
    34   18   19 1   
    35   19   20 1   
    36   19   22 1   
    37   20   21 ar  
    38   22   23 1   
    39   22   36 1   
    40   22   37 1   
    41   23   38 1   
    42   23   39 1   
    43   23   40 1   
@<TRIPOS>SUBSTRUCTURE
     1 UKC         1 TEMP              0 ****  ****    0 ROOT
