@<TRIPOS>MOLECULE
UKP
   94    95     1     0     0
SMALL
bcc


@<TRIPOS>ATOM
      1 N           1.2900    1.0910   -1.0070 n3        1 UKP     -0.987800
      2 CA          2.6730    0.9820   -0.5290 c3        1 UKP      0.087500
      3 CX          0.7260    3.3490    4.9430 ce        1 UKP      0.579800
      4 O           2.2730   -1.3930   -0.5150 o         1 UKP     -0.611100
      5 CB          2.9090    1.6810    0.8180 c3        1 UKP     -0.048100
      6 CG1         1.9310    1.4400    1.9170 ca        1 UKP     -0.095300
      7 CD1         1.6960    2.4790    2.8310 ca        1 UKP     -0.081000
      8 CE1         0.8700    2.2690    3.9410 ca        1 UKP     -0.242900
      9 CZ          0.2580    1.0260    4.1440 ca        1 UKP     -0.094000
     10 CE2         0.4790   -0.0000    3.2290 ca        1 UKP     -0.099000
     11 CD2         1.3120    0.2020    2.1270 ca        1 UKP     -0.099000
     12 NX1        -0.7050    3.7730    5.1430 n4        1 UKP     -0.821600
     13 NX2         1.5980    3.9570    5.6500 n2        1 UKP     -0.691100
     14 C           3.1440   -0.4950   -0.4800 c         1 UKP      0.632100
     15 C6         -0.0090    2.6250   -3.3040 ca        1 UKP     -0.627500
     16 C7         -1.1570    1.7710   -3.2120 ca        1 UKP      0.094200
     17 C8         -1.7230    1.2090   -4.3490 ca        1 UKP     -0.169000
     18 C9         -1.2300    1.4880   -5.6300 ca        1 UKP      0.115700
     19 C10        -0.1650    2.3970   -5.7480 ca        1 UKP     -0.169000
     20 C11         0.4220    2.9760   -4.6360 ca        1 UKP      0.094200
     21 C12        -1.8350    1.4480   -1.9060 c3        1 UKP     -0.079400
     22 C13        -3.2280    2.0600   -1.8880 c3        1 UKP     -0.093600
     23 C14        -1.9190   -0.0520   -1.6830 c3        1 UKP     -0.093600
     24 C15         1.4740    4.0360   -4.8300 c3        1 UKP     -0.079400
     25 C16         1.9490    4.1860   -6.2640 c3        1 UKP     -0.093600
     26 C17         0.9460    5.3790   -4.3470 c3        1 UKP     -0.093600
     27 C18        -1.8490    0.8590   -6.8370 c3        1 UKP     -0.059400
     28 C19        -2.4900    1.9150   -7.7210 c3        1 UKP     -0.096100
     29 C20        -0.8200    0.0610   -7.6180 c3        1 UKP     -0.096100
     30 S           0.7340    3.1870   -2.0590 s4        1 UKP      1.695300
     31 OS1         2.0630    3.4840   -2.1150 o         1 UKP     -0.459400
     32 OS2         0.0430    3.5990   -0.9620 o         1 UKP     -0.459400
     33 N1          4.4770   -0.8230   -0.3800 n         1 UKP     -0.454800
     34 C1          4.8630   -2.2190   -0.2500 c3        1 UKP      0.070500
     35 C2          5.9200   -2.6510   -1.2840 c3        1 UKP      0.075500
     36 N2          7.0410   -1.7310   -1.3650 n         1 UKP     -0.466800
     37 C4          6.6960   -0.3380   -1.4590 c3        1 UKP      0.075500
     38 C5          5.5790    0.1010   -0.4680 c3        1 UKP      0.070500
     39 C21         8.3260   -2.2300   -1.3890 c         1 UKP      0.668100
     40 O1          8.5410   -3.4510   -1.2570 o         1 UKP     -0.580100
     41 C22         9.5160   -1.2940   -1.6010 c3        1 UKP     -0.181400
     42 C23        10.7510   -2.1790   -1.7660 c3        1 UKP      0.099800
     43 N24        12.0140   -1.4170   -1.9710 n4        1 UKP     -0.836600
     44 HN1         0.6520    0.9670   -0.2330 hn        1 UKP      0.405800
     45 HA1         3.3010    1.5250   -1.3050 h1        1 UKP      0.105700
     46 HCB1        2.9590    2.7880    0.6100 hc        1 UKP      0.082700
     47 HCB2        3.9270    1.3740    1.1910 hc        1 UKP      0.082700
     48 HD11        2.1760    3.4600    2.6780 ha        1 UKP      0.152000
     49 HZ1        -0.3660    0.8360    5.0320 ha        1 UKP      0.151000
     50 HE21        0.0080   -0.9860    3.3860 ha        1 UKP      0.179000
     51 HD21        1.4920   -0.6420    1.4350 ha        1 UKP      0.178000
     52 HX11       -1.0490    4.1870    4.2700 hn        1 UKP      0.475800
     53 HX12       -0.7970    4.4630    5.9040 hn        1 UKP      0.475800
     54 HX21        2.5600    3.7000    5.5660 hn        1 UKP      0.491400
     55 H81        -2.5960    0.5380   -4.2480 ha        1 UKP      0.181500
     56 H101        0.1760    2.6550   -6.7680 ha        1 UKP      0.181500
     57 H121       -1.2760    1.8900   -1.0350 hc        1 UKP      0.063200
     58 H131       -3.7280    1.8150   -0.9190 hc        1 UKP      0.055950
     59 H132       -3.8540    1.6530   -2.7190 hc        1 UKP      0.055950
     60 H133       -3.1720    3.1700   -1.9920 hc        1 UKP      0.055950
     61 H141       -2.2820   -0.2540   -0.6450 hc        1 UKP      0.055950
     62 H142       -0.9240   -0.5390   -1.8170 hc        1 UKP      0.055950
     63 H143       -2.6390   -0.5250   -2.3940 hc        1 UKP      0.055950
     64 H151        2.3920    3.7530   -4.2340 hc        1 UKP      0.063200
     65 H161        2.3170    3.2120   -6.6660 hc        1 UKP      0.055950
     66 H162        2.7930    4.9200   -6.2950 hc        1 UKP      0.055950
     67 H163        1.1350    4.5740   -6.9240 hc        1 UKP      0.055950
     68 H171        1.7450    6.1560   -4.4380 hc        1 UKP      0.055950
     69 H172        0.6350    5.3200   -3.2720 hc        1 UKP      0.055950
     70 H173        0.0660    5.7050   -4.9520 hc        1 UKP      0.055950
     71 H181       -2.6590    0.1470   -6.5000 hc        1 UKP      0.080700
     72 H191       -2.9830    1.4180   -8.5920 hc        1 UKP      0.056033
     73 H192       -3.2640    2.4870   -7.1550 hc        1 UKP      0.056033
     74 H193       -1.7250    2.6290   -8.1090 hc        1 UKP      0.056033
     75 H201       -0.3630   -0.7300   -6.9780 hc        1 UKP      0.056033
     76 H202       -1.3190   -0.4320   -8.4890 hc        1 UKP      0.056033
     77 H203       -0.0100    0.7250   -8.0070 hc        1 UKP      0.056033
     78 H11         5.2690   -2.3690    0.7920 h1        1 UKP      0.076200
     79 H12         3.9620   -2.8860   -0.3820 h1        1 UKP      0.076200
     80 H21         5.4460   -2.7200   -2.3050 h1        1 UKP      0.074700
     81 H22         6.2870   -3.6790   -0.9930 h1        1 UKP      0.074700
     82 H41         7.5920    0.3080   -1.2430 h1        1 UKP      0.074700
     83 H42         6.3460   -0.1200   -2.5100 h1        1 UKP      0.074700
     84 H51         5.2300    1.1180   -0.7990 h1        1 UKP      0.076200
     85 H52         6.0350    0.2020    0.5610 h1        1 UKP      0.076200
     86 H221        9.6200   -0.6200   -0.7110 hc        1 UKP      0.086700
     87 H222        9.3480   -0.6650   -2.5140 hc        1 UKP      0.086700
     88 H231       10.8760   -2.8290   -0.8460 hx        1 UKP      0.141200
     89 H232       10.6070   -2.8690   -2.6520 hx        1 UKP      0.141200
     90 H241       12.7960   -2.0770   -2.0740 hn        1 UKP      0.467133
     91 H242       11.9560   -0.8410   -2.8180 hn        1 UKP      0.467133
     92 H2          1.1070    0.3470   -1.6680 hn        1 UKP      0.405800
     93 HX13       -1.2620    2.9420    5.3690 hn        1 UKP      0.475800
     94 H243       12.2020   -0.8060   -1.1700 hn        1 UKP      0.467133
@<TRIPOS>BOND
     1    1    2 1   
     2    1   44 1   
     3    1   92 1   
     4    2    5 1   
     5    2   14 1   
     6    2   45 1   
     7    3    8 1   
     8    3   12 1   
     9    3   13 2   
    10    4   14 2   
    11    5    6 1   
    12    5   46 1   
    13    5   47 1   
    14    6    7 ar  
    15    6   11 ar  
    16    7    8 ar  
    17    7   48 1   
    18    8    9 ar  
    19    9   10 ar  
    20    9   49 1   
    21   10   11 ar  
    22   10   50 1   
    23   11   51 1   
    24   12   52 1   
    25   12   53 1   
    26   12   93 1   
    27   13   54 1   
    28   14   33 1   
    29   15   16 ar  
    30   15   20 ar  
    31   15   30 1   
    32   16   17 ar  
    33   16   21 1   
    34   17   18 ar  
    35   17   55 1   
    36   18   19 ar  
    37   18   27 1   
    38   19   20 ar  
    39   19   56 1   
    40   20   24 1   
    41   21   22 1   
    42   21   23 1   
    43   21   57 1   
    44   22   58 1   
    45   22   59 1   
    46   22   60 1   
    47   23   61 1   
    48   23   62 1   
    49   23   63 1   
    50   24   25 1   
    51   24   26 1   
    52   24   64 1   
    53   25   65 1   
    54   25   66 1   
    55   25   67 1   
    56   26   68 1   
    57   26   69 1   
    58   26   70 1   
    59   27   28 1   
    60   27   29 1   
    61   27   71 1   
    62   28   72 1   
    63   28   73 1   
    64   28   74 1   
    65   29   75 1   
    66   29   76 1   
    67   29   77 1   
    68   30   31 1   
    69   30   32 1   
    70   33   34 1   
    71   33   38 1   
    72   34   35 1   
    73   34   78 1   
    74   34   79 1   
    75   35   36 1   
    76   35   80 1   
    77   35   81 1   
    78   36   37 1   
    79   36   39 1   
    80   37   38 1   
    81   37   82 1   
    82   37   83 1   
    83   38   84 1   
    84   38   85 1   
    85   39   40 2   
    86   39   41 1   
    87   41   42 1   
    88   41   86 1   
    89   41   87 1   
    90   42   43 1   
    91   42   88 1   
    92   42   89 1   
    93   43   90 1   
    94   43   91 1   
    95   43   94 1   
@<TRIPOS>SUBSTRUCTURE
     1 UKP         1 TEMP              0 ****  ****    0 ROOT
