@<TRIPOS>MOLECULE
UKP
   91    93     1     0     0
SMALL
bcc


@<TRIPOS>ATOM
      1 N          -0.1520   -1.1010   -1.7190 n3        1 UKP     -0.898100
      2 CA         -0.8440   -1.4310   -0.5080 c3        1 UKP      0.194500
      3 CX         -5.6890    0.7610   -1.4500 ce        1 UKP      0.653800
      4 O           1.1610   -2.6230    0.1800 o         1 UKP     -0.608100
      5 CB         -1.9600   -2.4820   -0.6900 c3        1 UKP     -0.045100
      6 CG1        -3.0790   -1.9860   -1.5340 ca        1 UKP     -0.098300
      7 CD1        -3.8470   -0.8950   -1.1100 ca        1 UKP     -0.081000
      8 CE1        -4.9010   -0.4320   -1.8990 ca        1 UKP     -0.132900
      9 CZ         -5.2150   -1.0720   -3.1030 ca        1 UKP     -0.102000
     10 CE2        -4.4580   -2.1670   -3.5170 ca        1 UKP     -0.132000
     11 CD2        -3.3910   -2.6190   -2.7420 ca        1 UKP     -0.105000
     12 NX1        -5.8290    1.7610   -2.4380 nh        1 UKP     -0.949800
     13 NX2        -6.2080    0.7470   -0.2590 n2        1 UKP     -0.834100
     14 C           0.1330   -2.0160    0.5490 c         1 UKP      0.635100
     15 C6          1.5480    0.8540   -1.9140 ca        1 UKP     -0.370500
     16 C7          2.6690    0.2890   -2.5680 ca        1 UKP      0.051700
     17 C8          3.9560    0.7850   -2.3370 ca        1 UKP     -0.162500
     18 C9          4.1750    1.8450   -1.4580 ca        1 UKP     -0.003300
     19 C10         3.0850    2.3560   -0.7540 ca        1 UKP     -0.162500
     20 C11         1.7960    1.8440   -0.9350 ca        1 UKP      0.051700
     21 C12         2.5840   -0.8900   -3.5030 c3        1 UKP     -0.051900
     22 C13         3.3460   -0.6400   -4.7930 c3        1 UKP     -0.090350
     23 C14         3.1130   -2.1300   -2.8020 c3        1 UKP     -0.090350
     24 C15         0.7320    2.4010   -0.0260 c3        1 UKP     -0.051900
     25 C16         1.2370    2.5860    1.3950 c3        1 UKP     -0.090350
     26 C17         0.2050    3.7160   -0.5700 c3        1 UKP     -0.090350
     27 C18         5.5530    2.3970   -1.2650 c3        1 UKP     -0.033400
     28 C19         5.6080    3.8620   -1.6570 c3        1 UKP     -0.089100
     29 C20         6.0180    2.2110    0.1680 c3        1 UKP     -0.089100
     30 S          -0.0240    0.3820   -2.3690 sy        1 UKP      1.508200
     31 OS1        -1.0100    1.2290   -1.8110 o         1 UKP     -0.655300
     32 OS2        -0.0970    0.2980   -3.7760 o         1 UKP     -0.655300
     33 N1         -0.1680   -1.9300    1.8980 n         1 UKP     -0.464800
     34 C1          0.8270   -2.3030    2.8860 c3        1 UKP      0.062500
     35 C2          1.2390   -1.1290    3.8040 c3        1 UKP      0.063500
     36 N2          0.1160   -0.3850    4.3360 n         1 UKP     -0.472800
     37 C4         -0.8860   -0.0360    3.3620 c3        1 UKP      0.063500
     38 C5         -1.2960   -1.2220    2.4490 c3        1 UKP      0.062500
     39 C21        -0.1030   -0.3380    5.7110 c         1 UKP      0.659100
     40 O1          0.7400   -0.8340    6.4860 o         1 UKP     -0.605100
     41 C22        -1.3340    0.3740    6.2370 c3        1 UKP     -0.149400
     42 C23        -1.2750    0.4500    7.7650 c3        1 UKP      0.163800
     43 N24        -2.4430    1.0850    8.3260 n3        1 UKP     -0.920800
     44 HN1         0.3550   -1.8740   -2.0910 hn        1 UKP      0.458800
     45 HA1        -1.3050   -0.4690   -0.1240 h1        1 UKP      0.086700
     46 HCB1       -1.5200   -3.4170   -1.1280 hc        1 UKP      0.066200
     47 HCB2       -2.3580   -2.7410    0.3290 hc        1 UKP      0.066200
     48 HD11       -3.6190   -0.3990   -0.1540 ha        1 UKP      0.140000
     49 HZ1        -6.0570   -0.7190   -3.7160 ha        1 UKP      0.146000
     50 HE21       -4.7010   -2.6740   -4.4620 ha        1 UKP      0.137000
     51 HD21       -2.7930   -3.4780   -3.0830 ha        1 UKP      0.134000
     52 HX11       -6.0340    2.6770   -2.1120 hn        1 UKP      0.399300
     53 HX12       -5.1470    1.7350   -3.1610 hn        1 UKP      0.399300
     54 HX21       -6.7230    1.5590    0.0100 hn        1 UKP      0.381400
     55 H81         4.8150    0.3290   -2.8550 ha        1 UKP      0.142000
     56 H101        3.2530    3.1780   -0.0400 ha        1 UKP      0.142000
     57 H121        1.5210   -1.0910   -3.8150 hc        1 UKP      0.069200
     58 H131        3.0680    0.3520   -5.2210 hc        1 UKP      0.042367
     59 H132        4.4490   -0.6680   -4.6300 hc        1 UKP      0.042367
     60 H133        3.0860   -1.4340   -5.5360 hc        1 UKP      0.042367
     61 H141        2.5440   -2.3330   -1.8600 hc        1 UKP      0.042367
     62 H142        3.0160   -3.0130   -3.4790 hc        1 UKP      0.042367
     63 H143        4.1910   -2.0020   -2.5390 hc        1 UKP      0.042367
     64 H151       -0.1270    1.6730    0.0450 hc        1 UKP      0.069200
     65 H161        0.3660    2.7500    2.0770 hc        1 UKP      0.042367
     66 H162        1.7960    1.6840    1.7390 hc        1 UKP      0.042367
     67 H163        1.9040    3.4770    1.4800 hc        1 UKP      0.042367
     68 H171        1.0430    4.4330   -0.7430 hc        1 UKP      0.042367
     69 H172       -0.3350    3.5440   -1.5330 hc        1 UKP      0.042367
     70 H173       -0.5090    4.1680    0.1600 hc        1 UKP      0.042367
     71 H181        6.2630    1.8310   -1.9360 hc        1 UKP      0.055700
     72 H191        6.6510    4.2460   -1.5420 hc        1 UKP      0.039367
     73 H192        5.2930    3.9930   -2.7200 hc        1 UKP      0.039367
     74 H193        4.9330    4.4700   -1.0080 hc        1 UKP      0.039367
     75 H201        5.3560    2.7690    0.8730 hc        1 UKP      0.039367
     76 H202        6.0010    1.1290    0.4450 hc        1 UKP      0.039367
     77 H203        7.0610    2.5930    0.2810 hc        1 UKP      0.039367
     78 H11         0.3970   -3.1340    3.5140 h1        1 UKP      0.068950
     79 H12         1.7530   -2.6870    2.3720 h1        1 UKP      0.068950
     80 H21         1.8560   -1.5470    4.6490 h1        1 UKP      0.066950
     81 H22         1.8780   -0.4080    3.2170 h1        1 UKP      0.066950
     82 H41        -1.8210    0.3490    3.8530 h1        1 UKP      0.066950
     83 H42        -0.4650    0.7900    2.7140 h1        1 UKP      0.066950
     84 H51        -1.9740   -0.8210    1.6480 h1        1 UKP      0.068950
     85 H52        -1.8950   -1.9600    3.0600 h1        1 UKP      0.068950
     86 H221       -1.3890    1.4050    5.8010 hc        1 UKP      0.071200
     87 H222       -2.2510   -0.1920    5.9230 hc        1 UKP      0.071200
     88 H231       -1.2130   -0.6000    8.1710 h1        1 UKP      0.046200
     89 H232       -0.3100    0.9670    8.0480 h1        1 UKP      0.046200
     90 H241       -2.4280    1.0170    9.3240 hn        1 UKP      0.351800
     91 H242       -2.4930    2.0480    8.0610 hn        1 UKP      0.351800
@<TRIPOS>BOND
     1    1    2 1   
     2    1   30 1   
     3    1   44 1   
     4    2    5 1   
     5    2   14 1   
     6    2   45 1   
     7    3    8 1   
     8    3   12 1   
     9    3   13 2   
    10    4   14 2   
    11    5    6 1   
    12    5   46 1   
    13    5   47 1   
    14    6    7 ar  
    15    6   11 ar  
    16    7    8 ar  
    17    7   48 1   
    18    8    9 ar  
    19    9   10 ar  
    20    9   49 1   
    21   10   11 ar  
    22   10   50 1   
    23   11   51 1   
    24   12   52 1   
    25   12   53 1   
    26   13   54 1   
    27   14   33 1   
    28   15   16 ar  
    29   15   20 ar  
    30   15   30 1   
    31   16   17 ar  
    32   16   21 1   
    33   17   18 ar  
    34   17   55 1   
    35   18   19 ar  
    36   18   27 1   
    37   19   20 ar  
    38   19   56 1   
    39   20   24 1   
    40   21   22 1   
    41   21   23 1   
    42   21   57 1   
    43   22   58 1   
    44   22   59 1   
    45   22   60 1   
    46   23   61 1   
    47   23   62 1   
    48   23   63 1   
    49   24   25 1   
    50   24   26 1   
    51   24   64 1   
    52   25   65 1   
    53   25   66 1   
    54   25   67 1   
    55   26   68 1   
    56   26   69 1   
    57   26   70 1   
    58   27   28 1   
    59   27   29 1   
    60   27   71 1   
    61   28   72 1   
    62   28   73 1   
    63   28   74 1   
    64   29   75 1   
    65   29   76 1   
    66   29   77 1   
    67   30   31 2   
    68   30   32 2   
    69   33   34 1   
    70   33   38 1   
    71   34   35 1   
    72   34   78 1   
    73   34   79 1   
    74   35   36 1   
    75   35   80 1   
    76   35   81 1   
    77   36   37 1   
    78   36   39 1   
    79   37   38 1   
    80   37   82 1   
    81   37   83 1   
    82   38   84 1   
    83   38   85 1   
    84   39   40 2   
    85   39   41 1   
    86   41   42 1   
    87   41   86 1   
    88   41   87 1   
    89   42   43 1   
    90   42   88 1   
    91   42   89 1   
    92   43   90 1   
    93   43   91 1   
@<TRIPOS>SUBSTRUCTURE
     1 UKP         1 TEMP              0 ****  ****    0 ROOT
