@<TRIPOS>MOLECULE
UKP
   91    87     1     0     0
SMALL
bcc


@<TRIPOS>ATOM
      1 N           0.6530    1.7330   -0.2850 n3        1 UKP     -0.878000
      2 CA          2.0560    1.7070   -0.3460 c3        1 UKP      0.030000
      3 CX          0.7590   -1.3060    4.8470 c1        1 UKP      0.122000
      4 O           2.6040    0.5470   -2.3510 o         1 UKP     -0.363000
      5 CB          2.6350    1.6470    1.0770 c3        1 UKP     -0.131000
      6 CG1         1.4730    1.3120    2.1160 c2        1 UKP     -0.096000
      7 CD1         1.5690    0.1650    2.9240 c2        1 UKP     -0.094000
      8 CE1         0.6680   -0.0290    3.9660 c1        1 UKP     -0.101000
      9 CZ         -0.3270    0.9110    4.2100 c2        1 UKP     -0.106000
     10 CE2        -0.4230    2.0440    3.4130 c1        1 UKP     -0.127000
     11 CD2         0.4850    2.2420    2.3610 c1        1 UKP     -0.105000
     12 NX1         0.4020   -2.5610    4.3090 n3        1 UKP     -0.345000
     13 NX2         1.1660   -1.2170    6.0790 n1        1 UKP     -0.314000
     14 C           2.5100    0.4860   -1.1320 c2        1 UKP      0.283000
     15 C6         -1.6720    2.0990   -1.9890 c1        1 UKP     -0.828000
     16 C7         -2.6450    1.5250   -1.1850 c1        1 UKP      0.032000
     17 C8         -3.7350    0.8610   -1.7700 c1        1 UKP     -0.165000
     18 C9         -3.8390    0.7780   -3.1630 c1        1 UKP      0.032000
     19 C10        -2.8610    1.3540   -3.9720 c1        1 UKP     -0.165000
     20 C11        -1.7790    2.0140   -3.3950 c1        1 UKP      0.067000
     21 C12        -2.6140    1.7470    0.3550 c3        1 UKP     -0.084500
     22 C13        -3.5950    2.8550    0.7310 c3        1 UKP     -0.206750
     23 C14        -3.0310    0.4060    1.0860 c3        1 UKP     -0.206750
     24 C15        -0.7590    2.7180   -4.2800 c3        1 UKP     -0.092000
     25 C16        -0.5600    1.9160   -5.5640 c3        1 UKP     -0.206000
     26 C17        -1.2840    4.1770   -4.6410 c3        1 UKP     -0.206000
     27 C18        -5.0970    0.1140   -3.8120 c3        1 UKP     -0.084500
     28 C19        -5.4130   -1.2220   -3.0820 c3        1 UKP     -0.206750
     29 C20        -6.3300    1.0880   -3.6830 c3        1 UKP     -0.206750
     30 S          -0.2240    2.8800   -1.2400 s6        1 UKP      2.852000
     31 OS1         0.6290    3.4840   -2.2510 o         1 UKP     -0.938000
     32 OS2        -0.5950    4.0320   -0.4650 o         1 UKP     -0.938000
     33 N1          2.7030   -0.8020   -0.4450 n         1 UKP     -0.324000
     34 C1          2.9990   -2.0300   -1.1380 c3        1 UKP     -0.049000
     35 C2          4.2080   -2.7290   -0.5630 c3        1 UKP     -0.043000
     36 N2          4.1150   -2.8820    0.8670 n         1 UKP     -0.325000
     37 C4          3.8310   -1.6720    1.5490 c3        1 UKP     -0.043000
     38 C5          2.6070   -0.9560    0.9640 c3        1 UKP     -0.049000
     39 C21         4.2890   -4.1690    1.5520 c2        1 UKP      0.304000
     40 O1          4.5300   -5.1900    0.8960 o         1 UKP     -0.355000
     41 C22         4.2870   -4.2260    3.1010 c3        1 UKP     -0.223000
     42 C23         4.2880   -5.7040    3.5660 c3        1 UKP     -0.076000
     43 N24         4.0770   -5.7600    4.9990 n3        1 UKP     -0.339000
     44 HN1         0.2090    1.0960    0.1750 hn        1 UKP      0.232000
     45 HA1         2.3800    2.5290   -0.7980 h1        1 UKP      0.161000
     46 HCB1        3.3170    0.9570    1.1190 hc        1 UKP      0.102000
     47 HCB2        3.0340    2.5140    1.3020 hc        1 UKP      0.102000
     48 HD11        2.2660   -0.4680    2.7720 ha        1 UKP      0.140000
     49 HZ1        -0.9500    0.7760    4.9320 ha        1 UKP      0.142000
     50 HE21       -1.1110    2.6930    3.5830 ha        1 UKP      0.139000
     51 HD21        0.4150    3.0500    1.7930 ha        1 UKP      0.138000
     52 HX11        0.5060   -3.3280    4.8180 hn        1 UKP      0.211500
     53 HX12        0.0050   -2.6110    3.4690 hn        1 UKP      0.211500
     54 HX21        1.4020   -0.3890    6.4320 DU        1 UKP      0.144000
     55 H81        -4.4320    0.4500   -1.1960 ha        1 UKP      0.144500
     56 H101       -2.9360    1.2950   -4.9540 ha        1 UKP      0.144500
     57 H121       -1.7060    2.0030    0.6320 hc        1 UKP      0.096000
     58 H131       -3.3280    3.2500    1.5920 hc        1 UKP      0.080333
     59 H132       -4.4900    2.4830    0.8100 hc        1 UKP      0.080333
     60 H133       -3.5890    3.5550    0.0300 hc        1 UKP      0.080333
     61 H141       -2.7770    0.4560    2.0390 hc        1 UKP      0.080333
     62 H142       -4.0120    0.2810    1.0120 hc        1 UKP      0.080333
     63 H143       -2.5710   -0.3530    0.6650 hc        1 UKP      0.080333
     64 H151        0.1250    2.7880   -3.7850 hc        1 UKP      0.105000
     65 H161       -1.2760    2.1340   -6.2010 hc        1 UKP      0.083000
     66 H162       -0.5860    0.9600   -5.3600 hc        1 UKP      0.083000
     67 H163        0.2950    2.1390   -5.9510 hc        1 UKP      0.083000
     68 H171       -0.5790    4.6740   -5.0830 hc        1 UKP      0.083000
     69 H172       -1.5460    4.6410   -3.8200 hc        1 UKP      0.083000
     70 H173       -2.0720    4.1060   -5.2500 hc        1 UKP      0.083000
     71 H181       -4.9160   -0.0690   -4.7740 hc        1 UKP      0.096000
     72 H191       -4.7860   -1.3470   -2.3510 hc        1 UKP      0.080333
     73 H192       -5.3290   -1.9840   -3.7280 hc        1 UKP      0.080333
     74 H193       -6.3340   -1.1940   -2.7270 hc        1 UKP      0.080333
     75 H201       -7.0520    0.7870   -4.2840 hc        1 UKP      0.080333
     76 H202       -6.6620    1.0860   -2.7310 hc        1 UKP      0.080333
     77 H203       -6.0520    2.0120   -3.9360 hc        1 UKP      0.080333
     78 H11         2.2270   -2.6290   -1.0730 h1        1 UKP      0.096500
     79 H12         3.1720   -1.8250   -2.1020 h1        1 UKP      0.096500
     80 H21         4.2870   -3.6180   -0.9730 h1        1 UKP      0.107500
     81 H22         5.0240   -2.1980   -0.7800 h1        1 UKP      0.107500
     82 H41         3.6650   -1.8690    2.4890 h1        1 UKP      0.107500
     83 H42         4.5960   -1.0890    1.4810 h1        1 UKP      0.107500
     84 H51         1.7920   -1.4830    1.1770 h1        1 UKP      0.096500
     85 H52         2.5320   -0.0820    1.3710 h1        1 UKP      0.096500
     86 H221        5.0760   -3.7800    3.4420 hc        1 UKP      0.100000
     87 H222        3.4840   -3.7760    3.4440 hc        1 UKP      0.100000
     88 H231        3.5690   -6.1920    3.1110 h1        1 UKP      0.112500
     89 H232        5.1440   -6.1100    3.3500 h1        1 UKP      0.112500
     90 H241        3.1960   -5.5870    5.1860 hn        1 UKP      0.142500
     91 H242        4.6150   -5.1240    5.4170 hn        1 UKP      0.142500
@<TRIPOS>BOND
     1    1    2 1   
     2    1   30 1   
     3    1   44 1   
     4    2    5 1   
     5    2   14 1   
     6    2   45 1   
     7    3   12 1   
     8    3   13 1   
     9    4   14 1   
    10    5    6 1   
    11    5   46 1   
    12    5   47 1   
    13    6    7 1   
    14    6   11 1   
    15    7    8 1   
    16    7   48 1   
    17    8    9 1   
    18    9   10 1   
    19    9   49 1   
    20   10   50 1   
    21   11   51 1   
    22   12   52 1   
    23   12   53 1   
    24   14   33 1   
    25   15   20 1   
    26   15   30 1   
    27   16   17 1   
    28   16   21 1   
    29   17   55 1   
    30   18   19 1   
    31   18   27 1   
    32   19   56 1   
    33   20   24 1   
    34   21   22 1   
    35   21   23 1   
    36   21   57 1   
    37   22   58 1   
    38   22   59 1   
    39   22   60 1   
    40   23   61 1   
    41   23   62 1   
    42   23   63 1   
    43   24   25 1   
    44   24   26 1   
    45   24   64 1   
    46   25   65 1   
    47   25   66 1   
    48   25   67 1   
    49   26   68 1   
    50   26   69 1   
    51   26   70 1   
    52   27   28 1   
    53   27   29 1   
    54   27   71 1   
    55   28   72 1   
    56   28   73 1   
    57   28   74 1   
    58   29   75 1   
    59   29   76 1   
    60   29   77 1   
    61   30   31 1   
    62   30   32 1   
    63   33   34 1   
    64   33   38 1   
    65   34   35 1   
    66   34   78 1   
    67   34   79 1   
    68   35   36 1   
    69   35   80 1   
    70   35   81 1   
    71   36   37 1   
    72   36   39 1   
    73   37   38 1   
    74   37   82 1   
    75   37   83 1   
    76   38   84 1   
    77   38   85 1   
    78   39   40 1   
    79   39   41 1   
    80   41   42 1   
    81   41   86 1   
    82   41   87 1   
    83   42   43 1   
    84   42   88 1   
    85   42   89 1   
    86   43   90 1   
    87   43   91 1   
@<TRIPOS>SUBSTRUCTURE
     1 UKP         1 TEMP              0 ****  ****    0 ROOT
