@<TRIPOS>MOLECULE
UKP
   94    95     1     0     0
SMALL
bcc


@<TRIPOS>ATOM
      1 N           1.2760    1.0770   -1.0130 n8        1 UKP     -0.987800
      2 CA          2.6560    0.9670   -0.5260 c3        1 UKP      0.087500
      3 CX          0.6670    3.3080    4.9430 ce        1 UKP      0.579800
      4 O           2.2590   -1.4080   -0.5240 o         1 UKP     -0.611100
      5 CB          2.8820    1.6610    0.8260 c3        1 UKP     -0.048100
      6 CG1         1.8960    1.4140    1.9170 ca        1 UKP     -0.095300
      7 CD1         1.6530    2.4490    2.8340 ca        1 UKP     -0.081000
      8 CE1         0.8200    2.2330    3.9370 ca        1 UKP     -0.242900
      9 CZ          0.2070    0.9890    4.1300 ca        1 UKP     -0.094000
     10 CE2         0.4350   -0.0330    3.2120 ca        1 UKP     -0.099000
     11 CD2         1.2770    0.1740    2.1170 ca        1 UKP     -0.099000
     12 NX1        -0.7650    3.7300    5.1350 nz        1 UKP     -0.821600
     13 NX2         1.5330    3.9140    5.6590 n2        1 UKP     -0.691100
     14 C           3.1290   -0.5090   -0.4790 c         1 UKP      0.632100
     15 C6         -0.0080    2.6170   -3.3150 ca        1 UKP     -0.627500
     16 C7         -1.1560    1.7630   -3.2330 ca        1 UKP      0.094200
     17 C8         -1.7140    1.2040   -4.3750 ca        1 UKP     -0.169000
     18 C9         -1.2120    1.4860   -5.6520 ca        1 UKP      0.115700
     19 C10        -0.1470    2.3960   -5.7600 ca        1 UKP     -0.169000
     20 C11         0.4330    2.9720   -4.6430 ca        1 UKP      0.094200
     21 C12        -1.8420    1.4360   -1.9330 c3        1 UKP     -0.079400
     22 C13        -3.2360    2.0470   -1.9220 c3        1 UKP     -0.093600
     23 C14        -1.9270   -0.0650   -1.7140 c3        1 UKP     -0.093600
     24 C15         1.4860    4.0330   -4.8270 c3        1 UKP     -0.079400
     25 C16         1.9700    4.1870   -6.2580 c3        1 UKP     -0.093600
     26 C17         0.9540    5.3750   -4.3440 c3        1 UKP     -0.093600
     27 C18        -1.8220    0.8600   -6.8650 c3        1 UKP     -0.059400
     28 C19        -2.4580    1.9190   -7.7500 c3        1 UKP     -0.096100
     29 C20        -0.7880    0.0650   -7.6420 c3        1 UKP     -0.096100
     30 S           0.7270    3.1760   -2.0630 s4        1 UKP      1.695300
     31 OS1         2.0570    3.4740   -2.1090 o         1 UKP     -0.459400
     32 OS2         0.0290    3.5850   -0.9700 o         1 UKP     -0.459400
     33 N1          4.4610   -0.8360   -0.3700 n         1 UKP     -0.454800
     34 C1          4.8480   -2.2320   -0.2440 c3        1 UKP      0.070500
     35 C2          5.9130   -2.6590   -1.2720 c3        1 UKP      0.075500
     36 N2          7.0330   -1.7370   -1.3410 n         1 UKP     -0.466800
     37 C4          6.6870   -0.3430   -1.4310 c3        1 UKP      0.075500
     38 C5          5.5630    0.0900   -0.4470 c3        1 UKP      0.070500
     39 C21         8.3190   -2.2340   -1.3580 c         1 UKP      0.668100
     40 O1          8.5340   -3.4560   -1.2300 o         1 UKP     -0.580100
     41 C22         9.5090   -1.2960   -1.5580 c3        1 UKP     -0.181400
     42 C23        10.7470   -2.1790   -1.7170 c3        1 UKP      0.099800
     43 N24        12.0100   -1.4150   -1.9100 nz        1 UKP     -0.836600
     44 HN1         1.0990    0.3350   -1.6780 hn        1 UKP      0.405800
     45 HA1         3.2890    1.5140   -1.2940 h1        1 UKP      0.105700
     46 HCB1        2.9320    2.7690    0.6240 hc        1 UKP      0.082700
     47 HCB2        3.8970    1.3540    1.2050 hc        1 UKP      0.082700
     48 HD11        2.1330    3.4310    2.6890 ha        1 UKP      0.152000
     49 HZ1        -0.4230    0.7930    5.0130 ha        1 UKP      0.151000
     50 HE21       -0.0360   -1.0200    3.3610 ha        1 UKP      0.179000
     51 HD21        1.4620   -0.6660    1.4230 ha        1 UKP      0.178000
     52 HX11       -1.1040    4.1470    4.2620 hn        1 UKP      0.475800
     53 HX12       -0.8630    4.4160    5.8990 hn        1 UKP      0.475800
     54 HX21        2.4960    3.6580    5.5800 hn        1 UKP      0.491400
     55 H81        -2.5870    0.5320   -4.2820 ha        1 UKP      0.181500
     56 H101        0.2010    2.6560   -6.7770 ha        1 UKP      0.181500
     57 H121       -1.2900    1.8760   -1.0560 hc        1 UKP      0.063200
     58 H131       -3.1800    3.1580   -2.0230 hc        1 UKP      0.055950
     59 H132       -3.7420    1.8000   -0.9570 hc        1 UKP      0.055950
     60 H133       -3.8560    1.6430   -2.7580 hc        1 UKP      0.055950
     61 H141       -0.9320   -0.5510   -1.8430 hc        1 UKP      0.055950
     62 H142       -2.6430   -0.5360   -2.4310 hc        1 UKP      0.055950
     63 H143       -2.2980   -0.2700   -0.6790 hc        1 UKP      0.055950
     64 H151        2.4000    3.7480   -4.2250 hc        1 UKP      0.063200
     65 H161        2.8140    4.9210   -6.2800 hc        1 UKP      0.055950
     66 H162        1.1610    4.5760   -6.9220 hc        1 UKP      0.055950
     67 H163        2.3420    3.2140   -6.6590 hc        1 UKP      0.055950
     68 H171        0.6360    5.3120   -3.2710 hc        1 UKP      0.055950
     69 H172        1.7540    6.1520   -4.4270 hc        1 UKP      0.055950
     70 H173        0.0780    5.7020   -4.9540 hc        1 UKP      0.055950
     71 H181       -2.6350    0.1480   -6.5350 hc        1 UKP      0.080700
     72 H191       -1.6900    2.6340   -8.1310 hc        1 UKP      0.056033
     73 H192       -2.9450    1.4240   -8.6270 hc        1 UKP      0.056033
     74 H193       -3.2360    2.4890   -7.1890 hc        1 UKP      0.056033
     75 H201        0.0240    0.7300   -8.0230 hc        1 UKP      0.056033
     76 H202       -0.3350   -0.7280   -7.0000 hc        1 UKP      0.056033
     77 H203       -1.2810   -0.4260   -8.5170 hc        1 UKP      0.056033
     78 H11         3.9490   -2.9000   -0.3860 h1        1 UKP      0.076200
     79 H12         5.2460   -2.3860    0.8000 h1        1 UKP      0.076200
     80 H21         5.4460   -2.7240   -2.2960 h1        1 UKP      0.074700
     81 H22         6.2790   -3.6870   -0.9830 h1        1 UKP      0.074700
     82 H41         6.3450   -0.1220   -2.4850 h1        1 UKP      0.074700
     83 H42         7.5810    0.3020   -1.2060 h1        1 UKP      0.074700
     84 H51         6.0110    0.1870    0.5860 h1        1 UKP      0.076200
     85 H52         5.2150    1.1070   -0.7760 h1        1 UKP      0.076200
     86 H221        9.6060   -0.6260   -0.6630 hc        1 UKP      0.086700
     87 H222        9.3470   -0.6630   -2.4690 hc        1 UKP      0.086700
     88 H231       10.6100   -2.8650   -2.6070 hx        1 UKP      0.141200
     89 H232       10.8650   -2.8330   -0.7990 hx        1 UKP      0.141200
     90 H241       12.1920   -0.8070   -1.1040 hn        1 UKP      0.467133
     91 H242       11.9570   -0.8350   -2.7540 hn        1 UKP      0.467133
     92 H2          0.6330    0.9500   -0.2440 hn        1 UKP      0.405800
     93 HX13       -1.3230    2.8980    5.3540 hn        1 UKP      0.475800
     94 H243       12.7930   -2.0740   -2.0100 hn        1 UKP      0.467133
@<TRIPOS>BOND
     1    1    2 1   
     2    1   44 1   
     3    1   92 1   
     4    2    5 1   
     5    2   14 1   
     6    2   45 1   
     7    3    8 1   
     8    3   12 1   
     9    3   13 2   
    10    4   14 2   
    11    5    6 1   
    12    5   46 1   
    13    5   47 1   
    14    6    7 ar  
    15    6   11 ar  
    16    7    8 ar  
    17    7   48 1   
    18    8    9 ar  
    19    9   10 ar  
    20    9   49 1   
    21   10   11 ar  
    22   10   50 1   
    23   11   51 1   
    24   12   52 1   
    25   12   53 1   
    26   12   93 1   
    27   13   54 1   
    28   14   33 1   
    29   15   16 ar  
    30   15   20 ar  
    31   15   30 1   
    32   16   17 ar  
    33   16   21 1   
    34   17   18 ar  
    35   17   55 1   
    36   18   19 ar  
    37   18   27 1   
    38   19   20 ar  
    39   19   56 1   
    40   20   24 1   
    41   21   22 1   
    42   21   23 1   
    43   21   57 1   
    44   22   58 1   
    45   22   59 1   
    46   22   60 1   
    47   23   61 1   
    48   23   62 1   
    49   23   63 1   
    50   24   25 1   
    51   24   26 1   
    52   24   64 1   
    53   25   65 1   
    54   25   66 1   
    55   25   67 1   
    56   26   68 1   
    57   26   69 1   
    58   26   70 1   
    59   27   28 1   
    60   27   29 1   
    61   27   71 1   
    62   28   72 1   
    63   28   73 1   
    64   28   74 1   
    65   29   75 1   
    66   29   76 1   
    67   29   77 1   
    68   30   31 1   
    69   30   32 1   
    70   33   34 1   
    71   33   38 1   
    72   34   35 1   
    73   34   78 1   
    74   34   79 1   
    75   35   36 1   
    76   35   80 1   
    77   35   81 1   
    78   36   37 1   
    79   36   39 1   
    80   37   38 1   
    81   37   82 1   
    82   37   83 1   
    83   38   84 1   
    84   38   85 1   
    85   39   40 2   
    86   39   41 1   
    87   41   42 1   
    88   41   86 1   
    89   41   87 1   
    90   42   43 1   
    91   42   88 1   
    92   42   89 1   
    93   43   90 1   
    94   43   91 1   
    95   43   94 1   
@<TRIPOS>SUBSTRUCTURE
     1 UKP         1 TEMP              0 ****  ****    0 ROOT
