@<TRIPOS>MOLECULE
UKP
   94    95     1     0     0
SMALL
bcc


@<TRIPOS>ATOM
      1 N           1.2910    1.0860   -1.0260 n3        1 UKP     -0.987800
      2 CA          2.6660    0.9530   -0.5310 c3        1 UKP      0.087500
      3 CX          0.6810    3.3040    4.9350 ce        1 UKP      0.579800
      4 O           2.2330   -1.4160   -0.5410 o         1 UKP     -0.611100
      5 CB          2.8950    1.6390    0.8250 c3        1 UKP     -0.048100
      6 CG1         1.8990    1.4020    1.9090 ca        1 UKP     -0.095300
      7 CD1         1.6670    2.4370    2.8280 ca        1 UKP     -0.081000
      8 CE1         0.8230    2.2300    3.9260 ca        1 UKP     -0.242900
      9 CZ          0.1910    0.9950    4.1110 ca        1 UKP     -0.094000
     10 CE2         0.4090   -0.0270    3.1900 ca        1 UKP     -0.099000
     11 CD2         1.2600    0.1710    2.1010 ca        1 UKP     -0.099000
     12 NX1        -0.7460    3.7470    5.1210 n4        1 UKP     -0.821600
     13 NX2         1.5520    3.8940    5.6570 n2        1 UKP     -0.691100
     14 C           3.1160   -0.5310   -0.4870 c         1 UKP      0.632100
     15 C6          0.0440    2.6530   -3.3290 ca        1 UKP     -0.627500
     16 C7         -1.1190    1.8180   -3.2550 ca        1 UKP      0.094200
     17 C8         -1.6810    1.2710   -4.4020 ca        1 UKP     -0.169000
     18 C9         -1.1680    1.5490   -5.6760 ca        1 UKP      0.115700
     19 C10        -0.0870    2.4410   -5.7760 ca        1 UKP     -0.169000
     20 C11         0.4970    3.0040   -4.6540 ca        1 UKP      0.094200
     21 C12        -1.8160    1.4980   -1.9590 c3        1 UKP     -0.079400
     22 C13        -3.2000    2.1320   -1.9530 c3        1 UKP     -0.093600
     23 C14        -1.9270   -0.0010   -1.7450 c3        1 UKP     -0.093600
     24 C15         1.5680    4.0480   -4.8300 c3        1 UKP     -0.079400
     25 C16         2.0620    4.1970   -6.2580 c3        1 UKP     -0.093600
     26 C17         1.0570    5.3970   -4.3460 c3        1 UKP     -0.093600
     27 C18        -1.7830    0.9370   -6.8930 c3        1 UKP     -0.059400
     28 C19        -2.3980    2.0080   -7.7770 c3        1 UKP     -0.096100
     29 C20        -0.7580    0.1280   -7.6680 c3        1 UKP     -0.096100
     30 S           0.7820    3.1970   -2.0730 s4        1 UKP      1.695300
     31 OS1         2.1160    3.4720   -2.1110 o         1 UKP     -0.459400
     32 OS2         0.0850    3.6140   -0.9810 o         1 UKP     -0.459400
     33 N1          4.4420   -0.8780   -0.3720 n         1 UKP     -0.454800
     34 C1          4.8080   -2.2810   -0.2490 c3        1 UKP      0.070500
     35 C2          5.8720   -2.7190   -1.2720 c3        1 UKP      0.075500
     36 N2          7.0060   -1.8150   -1.3320 n         1 UKP     -0.466800
     37 C4          6.6820   -0.4160   -1.4190 c3        1 UKP      0.075500
     38 C5          5.5590    0.0310   -0.4380 c3        1 UKP      0.070500
     39 C21         8.2850   -2.3310   -1.3430 c         1 UKP      0.668100
     40 O1          8.4800   -3.5570   -1.2170 o         1 UKP     -0.580100
     41 C22         9.4890   -1.4110   -1.5330 c3        1 UKP     -0.181400
     42 C23        10.7150   -2.3120   -1.6880 c3        1 UKP      0.099800
     43 N24        11.9900   -1.5670   -1.8720 n4        1 UKP     -0.836600
     44 HN1         1.1070    0.3490   -1.6940 hn        1 UKP      0.405800
     45 HA1         3.3120    1.4930   -1.2940 h1        1 UKP      0.105700
     46 HCB1        2.9630    2.7460    0.6270 hc        1 UKP      0.082700
     47 HCB2        3.9030    1.3140    1.2090 hc        1 UKP      0.082700
     48 HD11        2.1630    3.4120    2.6900 ha        1 UKP      0.152000
     49 HZ1        -0.4480    0.8060    4.9890 ha        1 UKP      0.151000
     50 HE21       -0.0780   -1.0080    3.3320 ha        1 UKP      0.179000
     51 HD21        1.4370   -0.6690    1.4040 ha        1 UKP      0.178000
     52 HX11       -1.0730    4.1710    4.2470 hn        1 UKP      0.475800
     53 HX12       -0.8380    4.4310    5.8860 hn        1 UKP      0.475800
     54 HX21        2.5120    3.6240    5.5830 hn        1 UKP      0.491400
     55 H81        -2.5650    0.6140   -4.3140 ha        1 UKP      0.181500
     56 H101        0.2690    2.6990   -6.7900 ha        1 UKP      0.181500
     57 H121       -1.2610    1.9270   -1.0790 hc        1 UKP      0.063200
     58 H131       -3.7150    1.8910   -0.9910 hc        1 UKP      0.055950
     59 H132       -3.1250    3.2420   -2.0510 hc        1 UKP      0.055950
     60 H133       -3.8230    1.7400   -2.7930 hc        1 UKP      0.055950
     61 H141       -2.6460   -0.4590   -2.4670 hc        1 UKP      0.055950
     62 H142       -0.9390   -0.5040   -1.8700 hc        1 UKP      0.055950
     63 H143       -2.3060   -0.2030   -0.7130 hc        1 UKP      0.055950
     64 H151        2.4740    3.7460   -4.2240 hc        1 UKP      0.063200
     65 H161        1.2630    4.6020   -6.9250 hc        1 UKP      0.055950
     66 H162        2.4190    3.2190   -6.6610 hc        1 UKP      0.055950
     67 H163        2.9190    4.9160   -6.2740 hc        1 UKP      0.055950
     68 H171        1.8700    6.1600   -4.4230 hc        1 UKP      0.055950
     69 H172        0.1890    5.7410   -4.9600 hc        1 UKP      0.055950
     70 H173        0.7320    5.3370   -3.2750 hc        1 UKP      0.055950
     71 H181       -2.6080    0.2360   -6.5690 hc        1 UKP      0.080700
     72 H191       -1.6180    2.7130   -8.1520 hc        1 UKP      0.056033
     73 H192       -2.8890    1.5240   -8.6570 hc        1 UKP      0.056033
     74 H193       -3.1700    2.5880   -7.2160 hc        1 UKP      0.056033
     75 H201       -1.2560   -0.3530   -8.5470 hc        1 UKP      0.056033
     76 H202       -0.3200   -0.6740   -7.0270 hc        1 UKP      0.056033
     77 H203        0.0650    0.7810   -8.0440 hc        1 UKP      0.056033
     78 H11         3.8990   -2.9340   -0.3980 h1        1 UKP      0.076200
     79 H12         5.1970   -2.4450    0.7970 h1        1 UKP      0.076200
     80 H21         6.2200   -3.7550   -0.9860 h1        1 UKP      0.074700
     81 H22         5.4090   -2.7740   -2.3000 h1        1 UKP      0.074700
     82 H41         6.3490   -0.1850   -2.4730 h1        1 UKP      0.074700
     83 H42         7.5840    0.2150   -1.1870 h1        1 UKP      0.074700
     84 H51         5.2290    1.0550   -0.7660 h1        1 UKP      0.076200
     85 H52         6.0030    0.1170    0.5970 h1        1 UKP      0.076200
     86 H221        9.3430   -0.7730   -2.4430 hc        1 UKP      0.086700
     87 H222        9.5910   -0.7460   -0.6360 hc        1 UKP      0.086700
     88 H231       10.8180   -2.9700   -0.7710 hx        1 UKP      0.141200
     89 H232       10.5720   -2.9940   -2.5800 hx        1 UKP      0.141200
     90 H241       12.7640   -2.2370   -1.9690 hn        1 UKP      0.467133
     91 H242       12.1770   -0.9640   -1.0640 hn        1 UKP      0.467133
     92 H2          0.6420    0.9660   -0.2610 hn        1 UKP      0.405800
     93 HX13       -1.3170    2.9220    5.3330 hn        1 UKP      0.475800
     94 H243       11.9510   -0.9840   -2.7150 hn        1 UKP      0.467133
@<TRIPOS>BOND
     1    1    2 1   
     2    1   44 1   
     3    1   92 1   
     4    2    5 1   
     5    2   14 1   
     6    2   45 1   
     7    3    8 1   
     8    3   12 1   
     9    3   13 2   
    10    4   14 2   
    11    5    6 1   
    12    5   46 1   
    13    5   47 1   
    14    6    7 ar  
    15    6   11 ar  
    16    7    8 ar  
    17    7   48 1   
    18    8    9 ar  
    19    9   10 ar  
    20    9   49 1   
    21   10   11 ar  
    22   10   50 1   
    23   11   51 1   
    24   12   52 1   
    25   12   53 1   
    26   12   93 1   
    27   13   54 1   
    28   14   33 1   
    29   15   16 ar  
    30   15   20 ar  
    31   15   30 1   
    32   16   17 ar  
    33   16   21 1   
    34   17   18 ar  
    35   17   55 1   
    36   18   19 ar  
    37   18   27 1   
    38   19   20 ar  
    39   19   56 1   
    40   20   24 1   
    41   21   22 1   
    42   21   23 1   
    43   21   57 1   
    44   22   58 1   
    45   22   59 1   
    46   22   60 1   
    47   23   61 1   
    48   23   62 1   
    49   23   63 1   
    50   24   25 1   
    51   24   26 1   
    52   24   64 1   
    53   25   65 1   
    54   25   66 1   
    55   25   67 1   
    56   26   68 1   
    57   26   69 1   
    58   26   70 1   
    59   27   28 1   
    60   27   29 1   
    61   27   71 1   
    62   28   72 1   
    63   28   73 1   
    64   28   74 1   
    65   29   75 1   
    66   29   76 1   
    67   29   77 1   
    68   30   31 1   
    69   30   32 1   
    70   33   34 1   
    71   33   38 1   
    72   34   35 1   
    73   34   78 1   
    74   34   79 1   
    75   35   36 1   
    76   35   80 1   
    77   35   81 1   
    78   36   37 1   
    79   36   39 1   
    80   37   38 1   
    81   37   82 1   
    82   37   83 1   
    83   38   84 1   
    84   38   85 1   
    85   39   40 2   
    86   39   41 1   
    87   41   42 1   
    88   41   86 1   
    89   41   87 1   
    90   42   43 1   
    91   42   88 1   
    92   42   89 1   
    93   43   90 1   
    94   43   91 1   
    95   43   94 1   
@<TRIPOS>SUBSTRUCTURE
     1 UKP         1 TEMP              0 ****  ****    0 ROOT
