@<TRIPOS>MOLECULE
UKW
   32    32     1     0     0
SMALL
bcc


@<TRIPOS>ATOM
      1 O01        -0.2030   -0.6150    1.1860 o         1 UKW     -0.477100
      2 C02         0.8710   -0.0760    0.9040 c         1 UKW      0.531500
      3 N03         0.9700    1.0830   -0.0330 ne        1 UKW      0.034900
      4 O04         0.9910    0.9180   -1.1630 o         1 UKW     -0.008300
      5 C05         2.1480   -0.4430    1.6750 c3        1 UKW     -0.005500
      6 N06         1.8290   -0.7940    3.0970 ny        1 UKW     -0.676800
      7 C07         1.7680    0.4180    4.0210 c         1 UKW      0.583700
      8 O08         2.7510    1.1460    3.9780 o         1 UKW     -0.431100
      9 C09         0.5870    0.5170    4.8710 ca        1 UKW     -0.219600
     10 C10         0.7630    1.1010    6.1390 ca        1 UKW     -0.063500
     11 C11        -0.3210    1.2390    6.9970 ca        1 UKW     -0.118000
     12 C12        -1.6010    0.8110    6.5990 ca        1 UKW      0.136000
     13 C13        -1.7730    0.2490    5.3180 ca        1 UKW     -0.118000
     14 C14        -0.6910    0.1020    4.4610 ca        1 UKW     -0.063500
     15 C15        -2.6980    0.9500    7.4640 cg        1 UKW     -0.199000
     16 C16        -3.6340    1.0700    8.2040 c1        1 UKW     -0.018500
     17 C25         2.8360   -1.6460    0.9460 c3        1 UKW      0.140100
     18 C26         3.4170   -1.2040   -0.3790 c3        1 UKW     -0.150100
     19 O27         3.8030   -2.1920    1.8200 oh        1 UKW     -0.606800
     20 H05         2.8720    0.4280    1.7050 hx        1 UKW      0.143700
     21 HN06        2.5820   -1.4190    3.4360 hn        1 UKW      0.476800
     22 H10         1.7620    1.4500    6.4500 ha        1 UKW      0.158000
     23 H11        -0.1800    1.6910    7.9930 ha        1 UKW      0.173500
     24 H13        -2.7780   -0.0700    4.9950 ha        1 UKW      0.173500
     25 H14        -0.8730   -0.3040    3.4510 ha        1 UKW      0.158000
     26 H16        -4.4650    1.1770    8.8600 ha        1 UKW      0.188500
     27 H25         2.0750   -2.4680    0.8010 h1        1 UKW      0.105700
     28 H26         4.0930   -0.3240   -0.2530 hc        1 UKW      0.077367
     29 H26A        2.6060   -0.9450   -1.1020 hc        1 UKW      0.077367
     30 H26B        4.0120   -2.0470   -0.8150 hc        1 UKW      0.077367
     31 HO27        4.6780   -1.8530    1.5790 ho        1 UKW      0.443000
     32 H062        0.9400   -1.3090    3.1290 hn        1 UKW      0.476800
@<TRIPOS>BOND
     1    1    2 2   
     2    2    3 1   
     3    2    5 1   
     4    3    4 2   
     5    5    6 1   
     6    5   17 1   
     7    5   20 1   
     8    6    7 1   
     9    6   21 1   
    10    6   32 1   
    11    7    8 2   
    12    7    9 1   
    13    9   10 ar  
    14    9   14 ar  
    15   10   11 ar  
    16   10   22 1   
    17   11   12 ar  
    18   11   23 1   
    19   12   13 ar  
    20   12   15 1   
    21   13   14 ar  
    22   13   24 1   
    23   14   25 1   
    24   15   16 3   
    25   16   26 1   
    26   17   18 1   
    27   17   19 1   
    28   17   27 1   
    29   18   28 1   
    30   18   29 1   
    31   18   30 1   
    32   19   31 1   
@<TRIPOS>SUBSTRUCTURE
     1 UKW         1 TEMP              0 ****  ****    0 ROOT
