@<TRIPOS>MOLECULE
UKW
   31    31     1     0     0
SMALL
bcc


@<TRIPOS>ATOM
      1 O01         2.4880   -1.8680    0.6560 o         1 UKW     -0.503100
      2 C02         2.7610   -0.9440   -0.1170 c         1 UKW      0.536500
      3 N03         3.6380   -1.1650   -1.2960 ne        1 UKW     -0.005100
      4 O04         4.7810   -1.0920   -1.1930 o         1 UKW     -0.078300
      5 C05         2.0870    0.4370   -0.0120 c3        1 UKW     -0.015300
      6 N06         0.6740    0.3160    0.2350 n         1 UKW     -0.561900
      7 C07        -0.2650    0.5480   -0.7660 c         1 UKW      0.670700
      8 O08         0.0630    1.0940   -1.8360 o         1 UKW     -0.581100
      9 C09        -1.6780    0.1900   -0.4620 ca        1 UKW     -0.140600
     10 C10        -2.6860    1.0650   -0.8860 ca        1 UKW     -0.091500
     11 C11        -4.0220    0.7660   -0.6340 ca        1 UKW     -0.116500
     12 C12        -4.3650   -0.4190    0.0380 ca        1 UKW      0.052000
     13 C13        -3.3500   -1.3000    0.4470 ca        1 UKW     -0.116500
     14 C14        -2.0140   -0.9960    0.1990 ca        1 UKW     -0.091500
     15 C15        -5.7160   -0.7250    0.2950 cg        1 UKW     -0.139000
     16 C16        -6.8640   -0.9840    0.5130 c1        1 UKW     -0.114500
     17 C25         2.8180    1.2190    1.1210 c3        1 UKW      0.146100
     18 C26         4.3220    1.1810    0.9190 c3        1 UKW     -0.107100
     19 O27         2.4460    2.5850    1.0870 oh        1 UKW     -0.585800
     20 H05         2.2250    1.0190   -0.9760 h1        1 UKW      0.128700
     21 HN06        0.4140   -0.2570    1.0070 hn        1 UKW      0.318500
     22 H10        -2.4120    1.9840   -1.4290 ha        1 UKW      0.149500
     23 H11        -4.8120    1.4560   -0.9660 ha        1 UKW      0.147500
     24 H13        -3.6140   -2.2360    0.9630 ha        1 UKW      0.147500
     25 H14        -1.2360   -1.7090    0.5110 ha        1 UKW      0.149500
     26 H16        -7.8820   -1.2130    0.7050 ha        1 UKW      0.170500
     27 H25         2.5490    0.7720    2.1200 h1        1 UKW      0.046700
     28 H26         4.5900    1.5070   -0.1140 hc        1 UKW      0.056033
     29 H26A        4.8100    1.8770    1.6440 hc        1 UKW      0.056033
     30 H26B        4.7060    0.1470    1.0910 hc        1 UKW      0.056033
     31 HO27        1.4940    2.6320    1.2420 ho        1 UKW      0.413000
@<TRIPOS>BOND
     1    1    2 2   
     2    2    3 1   
     3    2    5 1   
     4    3    4 2   
     5    5    6 1   
     6    5   17 1   
     7    5   20 1   
     8    6    7 1   
     9    6   21 1   
    10    7    8 2   
    11    7    9 1   
    12    9   10 ar  
    13    9   14 ar  
    14   10   11 ar  
    15   10   22 1   
    16   11   12 ar  
    17   11   23 1   
    18   12   13 ar  
    19   12   15 1   
    20   13   14 ar  
    21   13   24 1   
    22   14   25 1   
    23   15   16 3   
    24   16   26 1   
    25   17   18 1   
    26   17   19 1   
    27   17   27 1   
    28   18   28 1   
    29   18   29 1   
    30   18   30 1   
    31   19   31 1   
@<TRIPOS>SUBSTRUCTURE
     1 UKW         1 TEMP              0 ****  ****    0 ROOT
