@<TRIPOS>MOLECULE
UKW
   32    32     1     0     0
SMALL
bcc


@<TRIPOS>ATOM
      1 O01        -0.2020   -0.5870    1.1720 o         1 UKW     -0.477100
      2 C02         0.8810   -0.0620    0.9000 c         1 UKW      0.531500
      3 N03         1.0030    1.1030   -0.0260 ne        1 UKW      0.034900
      4 O04         1.0270    0.9470   -1.1580 o         1 UKW     -0.008300
      5 C05         2.1490   -0.4550    1.6740 c3        1 UKW     -0.005500
      6 N06         1.8170   -0.8130    3.0920 n4        1 UKW     -0.676800
      7 C07         1.7690    0.3920    4.0260 c         1 UKW      0.583700
      8 O08         2.7630    1.1050    3.9940 o         1 UKW     -0.432100
      9 C09         0.5850    0.5020    4.8700 ca        1 UKW     -0.219600
     10 C10         0.7630    1.0720    6.1440 ca        1 UKW     -0.063500
     11 C11        -0.3230    1.2200    6.9970 ca        1 UKW     -0.118000
     12 C12        -1.6070    0.8150    6.5890 ca        1 UKW      0.136000
     13 C13        -1.7810    0.2650    5.3030 ca        1 UKW     -0.118000
     14 C14        -0.6970    0.1090    4.4500 ca        1 UKW     -0.063500
     15 C15        -2.7070    0.9630    7.4500 cg        1 UKW     -0.199000
     16 C16        -3.6440    1.0910    8.1850 c1        1 UKW     -0.018500
     17 C25         2.8220   -1.6620    0.9380 c3        1 UKW      0.140100
     18 C26         3.4170   -1.2180   -0.3790 c3        1 UKW     -0.150100
     19 O27         3.7760   -2.2310    1.8130 oh        1 UKW     -0.606800
     20 H05         2.8850    0.4050    1.7160 hx        1 UKW      0.143700
     21 HN06        2.5580   -1.4530    3.4290 hn        1 UKW      0.476800
     22 H10         1.7660    1.4050    6.4620 ha        1 UKW      0.158000
     23 H11        -0.1810    1.6620    7.9980 ha        1 UKW      0.173500
     24 H13        -2.7890   -0.0360    4.9720 ha        1 UKW      0.173500
     25 H14        -0.8800   -0.2870    3.4370 ha        1 UKW      0.158000
     26 H16        -4.4770    1.2050    8.8390 ha        1 UKW      0.188500
     27 H25         2.0490   -2.4710    0.7820 h1        1 UKW      0.105700
     28 H26         4.0020   -2.0660   -0.8190 hc        1 UKW      0.077367
     29 H26A        4.1060   -0.3490   -0.2420 hc        1 UKW      0.077367
     30 H26B        2.6150   -0.9400   -1.1040 hc        1 UKW      0.077367
     31 HO27        4.6570   -1.9030    1.5800 ho        1 UKW      0.443000
     32 H062        0.9190   -1.3150    3.1140 hn        1 UKW      0.476800
@<TRIPOS>BOND
     1    1    2 2   
     2    2    3 1   
     3    2    5 1   
     4    3    4 2   
     5    5    6 1   
     6    5   17 1   
     7    5   20 1   
     8    6    7 1   
     9    6   21 1   
    10    6   32 1   
    11    7    8 2   
    12    7    9 1   
    13    9   10 ar  
    14    9   14 ar  
    15   10   11 ar  
    16   10   22 1   
    17   11   12 ar  
    18   11   23 1   
    19   12   13 ar  
    20   12   15 1   
    21   13   14 ar  
    22   13   24 1   
    23   14   25 1   
    24   15   16 3   
    25   16   26 1   
    26   17   18 1   
    27   17   19 1   
    28   17   27 1   
    29   18   28 1   
    30   18   29 1   
    31   18   30 1   
    32   19   31 1   
@<TRIPOS>SUBSTRUCTURE
     1 UKW         1 TEMP              0 ****  ****    0 ROOT
