@<TRIPOS>MOLECULE
UKW
   32    32     1     0     0
SMALL
bcc


@<TRIPOS>ATOM
      1 O01         0.0820    0.3370    0.4950 o         1 UKW     -0.466100
      2 C02         1.3030    0.5000    0.5620 c         1 UKW      0.529500
      3 N03         2.0070    1.6280   -0.1170 ne        1 UKW      0.036900
      4 O04         2.3090    1.5470   -1.2160 o         1 UKW     -0.012300
      5 C05         2.1440   -0.3500    1.5290 c3        1 UKW     -0.007500
      6 N06         1.3760   -0.6320    2.7850 n4        1 UKW     -0.674800
      7 C07         1.5620    0.3980    3.8920 c         1 UKW      0.581700
      8 O08         2.5860    1.0660    3.8330 o         1 UKW     -0.436100
      9 C09         0.4910    0.4670    4.8790 ca        1 UKW     -0.218600
     10 C10         0.4160    1.6450    5.6470 ca        1 UKW     -0.059500
     11 C11        -0.5730    1.7870    6.6130 ca        1 UKW     -0.118000
     12 C12        -1.4990    0.7530    6.8380 ca        1 UKW      0.140000
     13 C13        -1.4100   -0.4310    6.0760 ca        1 UKW     -0.118000
     14 C14        -0.4270   -0.5730    5.1080 ca        1 UKW     -0.059500
     15 C15        -2.5010    0.8930    7.8120 cg        1 UKW     -0.201000
     16 C16        -3.3540    1.0140    8.6450 c1        1 UKW     -0.015500
     17 C25         2.5270   -1.6810    0.7990 c3        1 UKW      0.139100
     18 C26         3.5410   -1.4120   -0.2900 c3        1 UKW     -0.149100
     19 O27         2.9870   -2.5990    1.7710 oh        1 UKW     -0.610800
     20 H05         3.0930    0.1910    1.8270 hx        1 UKW      0.147700
     21 HN06        0.3730   -0.6960    2.5560 hn        1 UKW      0.477300
     22 H10         1.1470    2.4550    5.4800 ha        1 UKW      0.150000
     23 H11        -0.6300    2.7130    7.2090 ha        1 UKW      0.174000
     24 H13        -2.1280   -1.2480    6.2580 ha        1 UKW      0.174000
     25 H14        -0.3790   -1.5220    4.5530 ha        1 UKW      0.150000
     26 H16        -4.1120    1.1220    9.3850 ha        1 UKW      0.189500
     27 H25         1.5900   -2.1470    0.3750 h1        1 UKW      0.104700
     28 H26         4.4410   -0.8860    0.1130 hc        1 UKW      0.077033
     29 H26A        3.0920   -0.7970   -1.1070 hc        1 UKW      0.077033
     30 H26B        3.8700   -2.3880   -0.7310 hc        1 UKW      0.077033
     31 HO27        3.9550   -2.6090    1.7670 ho        1 UKW      0.443000
     32 H062        1.6900   -1.5490    3.1470 hn        1 UKW      0.477300
@<TRIPOS>BOND
     1    1    2 2   
     2    2    3 1   
     3    2    5 1   
     4    3    4 2   
     5    5    6 1   
     6    5   17 1   
     7    5   20 1   
     8    6    7 1   
     9    6   21 1   
    10    6   32 1   
    11    7    8 2   
    12    7    9 1   
    13    9   10 ar  
    14    9   14 ar  
    15   10   11 ar  
    16   10   22 1   
    17   11   12 ar  
    18   11   23 1   
    19   12   13 ar  
    20   12   15 1   
    21   13   14 ar  
    22   13   24 1   
    23   14   25 1   
    24   15   16 3   
    25   16   26 1   
    26   17   18 1   
    27   17   19 1   
    28   17   27 1   
    29   18   28 1   
    30   18   29 1   
    31   18   30 1   
    32   19   31 1   
@<TRIPOS>SUBSTRUCTURE
     1 UKW         1 TEMP              0 ****  ****    0 ROOT
