@<TRIPOS>MOLECULE
UKW
   31    27     1     0     0
SMALL
bcc


@<TRIPOS>ATOM
      1 O01         1.8180   -0.6210   -2.5920 o         1 UKW     -0.262000
      2 C02         1.5730   -1.5760   -1.8820 c1        1 UKW      0.127000
      3 N03         2.6110   -2.4670   -1.5080 n1        1 UKW      0.186000
      4 O04         3.7650   -2.2370   -1.8420 o         1 UKW     -0.128000
      5 C05         0.1590   -1.8160   -1.4010 c3        1 UKW     -0.051000
      6 N06        -0.2640   -0.7170   -0.6050 n         1 UKW     -0.363000
      7 C07         0.2090   -0.5820    0.7270 c2        1 UKW      0.340000
      8 O08         0.7780   -1.5100    1.2670 o         1 UKW     -0.350000
      9 C09         0.0100    0.7210    1.4730 c2        1 UKW     -0.121000
     10 C10         0.8050    1.8170    1.1750 c1        1 UKW     -0.097000
     11 C11         0.6620    2.9940    1.8950 c1        1 UKW     -0.118000
     12 C12        -0.2770    3.0730    2.9130 c1        1 UKW      0.058000
     13 C13        -1.0710    1.9770    3.2100 c2        1 UKW     -0.118000
     14 C14        -0.9280    0.8010    2.4900 c2        1 UKW     -0.079000
     15 C15        -0.4280    4.3550    3.7030 c1        1 UKW     -0.157500
     16 C16        -0.5480    5.3640    4.3260 c1        1 UKW     -0.157500
     17 C25        -0.7610   -1.9600   -2.5910 c3        1 UKW      0.022000
     18 C26        -0.2690   -3.0840   -3.4760 c3        1 UKW     -0.253000
     19 O27        -2.0640   -2.2500   -2.1450 oh        1 UKW     -0.322000
     20 H05         0.1320   -2.6350   -0.8670 h1        1 UKW      0.158000
     21 HN06       -0.8490   -0.1070   -0.9450 hn        1 UKW      0.236000
     22 H10         1.4660    1.7610    0.4590 ha        1 UKW      0.144000
     23 H11         1.2210    3.7650    1.6860 ha        1 UKW      0.147000
     24 H13        -1.7320    2.0340    3.9270 ha        1 UKW      0.148000
     25 H14        -1.4880    0.0290    2.7000 ha        1 UKW      0.157000
     26 H16        -0.6460    6.1910    4.8360 DU        1 UKW      0.228000
     27 H25        -0.7690   -1.1250   -3.0990 h1        1 UKW      0.133000
     28 H26         0.4810   -2.7660   -4.0220 hc        1 UKW      0.096333
     29 H26A        0.0280   -3.8330   -2.9180 hc        1 UKW      0.096333
     30 H26B       -0.9970   -3.3810   -4.0620 hc        1 UKW      0.096333
     31 HO27       -2.6270   -2.2180   -2.8330 ho        1 UKW      0.205000
@<TRIPOS>BOND
     1    1    2 1   
     2    2    5 1   
     3    3    4 1   
     4    5    6 1   
     5    5   17 1   
     6    5   20 1   
     7    6    7 1   
     8    6   21 1   
     9    7    8 1   
    10    7    9 1   
    11    9   10 1   
    12    9   14 1   
    13   10   22 1   
    14   11   12 1   
    15   11   23 1   
    16   12   13 1   
    17   13   14 1   
    18   13   24 1   
    19   14   25 1   
    20   15   16 1   
    21   17   18 1   
    22   17   19 1   
    23   17   27 1   
    24   18   28 1   
    25   18   29 1   
    26   18   30 1   
    27   19   31 1   
@<TRIPOS>SUBSTRUCTURE
     1 UKW         1 TEMP              0 ****  ****    0 ROOT
