@<TRIPOS>MOLECULE
UL4
   40    41     1     0     0
SMALL
bcc


@<TRIPOS>ATOM
      1 O4          0.8000    2.4200   -3.6220 o         1 UL4     -0.827800
      2 C16         2.0350    2.1750   -3.6840 c         1 UL4      0.913200
      3 O3          2.9060    2.9760   -4.1310 o         1 UL4     -0.827800
      4 C15         2.5220    0.8160   -3.1960 ca        1 UL4     -0.137600
      5 C14         1.6270   -0.1780   -2.7970 ca        1 UL4     -0.077000
      6 C13         2.0990   -1.4200   -2.3680 ca        1 UL4     -0.171000
      7 C12         3.4670   -1.6830   -2.3430 ca        1 UL4     -0.095000
      8 C17         3.8940    0.5570   -3.1610 ca        1 UL4     -0.085000
      9 C11         4.3700   -0.6940   -2.7520 ca        1 UL4     -0.184600
     10 C10         5.8260   -0.9900   -2.7250 c         1 UL4      0.688700
     11 O2          6.3540   -1.7290   -1.8720 o         1 UL4     -0.606100
     12 N           6.5750   -0.4060   -3.7530 ns        1 UL4     -0.468100
     13 C9          7.9600   -0.2340   -3.7760 ca        1 UL4      0.059600
     14 C8          8.8590   -1.1080   -3.1270 ca        1 UL4     -0.097000
     15 C5         10.2390   -0.8950   -3.2010 ca        1 UL4     -0.163600
     16 C6         11.1440   -1.8250   -2.4940 c         1 UL4      0.579700
     17 O1         10.8390   -3.0010   -2.2580 o         1 UL4     -0.535100
     18 C7         12.4680   -1.2700   -2.0630 c3        1 UL4     -0.198100
     19 C4         10.7540    0.1790   -3.9360 ca        1 UL4     -0.130000
     20 C3          9.8920    1.0470   -4.5940 ca        1 UL4     -0.133000
     21 C2          8.5100    0.8550   -4.5150 ca        1 UL4      0.064100
     22 O           7.6780    1.6770   -5.2620 os        1 UL4     -0.358900
     23 C1          7.1390    2.7850   -4.5090 c3        1 UL4      0.131400
     24 C           6.0050    3.3550   -5.3280 c3        1 UL4     -0.125100
     25 H2          0.5480    0.0460   -2.8270 ha        1 UL4      0.155000
     26 H3          1.3910   -2.1970   -2.0470 ha        1 UL4      0.115000
     27 H4          3.8490   -2.6570   -2.0020 ha        1 UL4      0.131000
     28 H5          4.5670    1.3810   -3.4560 ha        1 UL4      0.152000
     29 H6          6.0740    0.1690   -4.4040 hn        1 UL4      0.339500
     30 H7          8.4750   -1.9680   -2.5470 ha        1 UL4      0.189000
     31 H8         12.3370   -0.2530   -1.6240 hc        1 UL4      0.059033
     32 H9         13.1460   -1.1980   -2.9480 hc        1 UL4      0.059033
     33 H10        12.9410   -1.9400   -1.3050 hc        1 UL4      0.059033
     34 H11        11.8400    0.3380   -4.0010 ha        1 UL4      0.125000
     35 H12        10.2800    1.8900   -5.1840 ha        1 UL4      0.141000
     36 H13         6.7850    2.4320   -3.5060 h1        1 UL4      0.030200
     37 H14         7.9670    3.5290   -4.3640 h1        1 UL4      0.030200
     38 H15         6.1430    3.1150   -6.4100 hc        1 UL4      0.067033
     39 H16         5.0140    2.9490   -4.9920 hc        1 UL4      0.067033
     40 H17         5.9810    4.4640   -5.2050 hc        1 UL4      0.067033
@<TRIPOS>BOND
     1    1    2 1   
     2    2    3 1   
     3    2    4 1   
     4    4    5 ar  
     5    4    8 ar  
     6    5    6 ar  
     7    5   25 1   
     8    6    7 ar  
     9    6   26 1   
    10    7    9 ar  
    11    7   27 1   
    12    8    9 ar  
    13    8   28 1   
    14    9   10 1   
    15   10   11 2   
    16   10   12 1   
    17   12   13 1   
    18   12   29 1   
    19   13   14 ar  
    20   13   21 ar  
    21   14   15 ar  
    22   14   30 1   
    23   15   16 1   
    24   15   19 ar  
    25   16   17 2   
    26   16   18 1   
    27   18   31 1   
    28   18   32 1   
    29   18   33 1   
    30   19   20 ar  
    31   19   34 1   
    32   20   21 ar  
    33   20   35 1   
    34   21   22 1   
    35   22   23 1   
    36   23   24 1   
    37   23   36 1   
    38   23   37 1   
    39   24   38 1   
    40   24   39 1   
    41   24   40 1   
@<TRIPOS>SUBSTRUCTURE
     1 UL4         1 TEMP              0 ****  ****    0 ROOT
