@<TRIPOS>MOLECULE
UL4
   40    41     1     0     0
SMALL
bcc


@<TRIPOS>ATOM
      1 O4          0.8100    2.4480   -3.6310 o         1 UL4     -0.827800
      2 C16         2.0420    2.1890   -3.7040 c         1 UL4      0.913200
      3 O3          2.9070    2.9500   -4.2280 o         1 UL4     -0.827800
      4 C15         2.5320    0.8660   -3.1310 ca        1 UL4     -0.137600
      5 C14         1.6410   -0.0900   -2.6390 ca        1 UL4     -0.077000
      6 C13         2.1160   -1.3020   -2.1330 ca        1 UL4     -0.171000
      7 C12         3.4830   -1.5730   -2.1220 ca        1 UL4     -0.095000
      8 C17         3.9030    0.6000   -3.1100 ca        1 UL4     -0.085000
      9 C11         4.3810   -0.6220   -2.6230 ca        1 UL4     -0.184600
     10 C10         5.8360   -0.9260   -2.6090 c         1 UL4      0.688700
     11 O2          6.3810   -1.6060   -1.7180 o         1 UL4     -0.606100
     12 N           6.5630   -0.4240   -3.6940 n         1 UL4     -0.468100
     13 C9          7.9490   -0.2640   -3.7620 ca        1 UL4      0.059600
     14 C8          8.8580   -1.0960   -3.0730 ca        1 UL4     -0.097000
     15 C5         10.2360   -0.9000   -3.1950 ca        1 UL4     -0.163600
     16 C6         11.1530   -1.7840   -2.4450 c         1 UL4      0.579700
     17 O1         10.8470   -2.9380   -2.1170 o         1 UL4     -0.535100
     18 C7         12.4910   -1.2110   -2.0870 c3        1 UL4     -0.198100
     19 C4         10.7410    0.1140   -4.0180 ca        1 UL4     -0.130000
     20 C3          9.8680    0.9400   -4.7160 ca        1 UL4     -0.133000
     21 C2          8.4870    0.7640   -4.5900 ca        1 UL4      0.064100
     22 O           7.6420    1.5370   -5.3740 os        1 UL4     -0.358900
     23 C1          7.1280    2.7010   -4.6900 c3        1 UL4      0.131400
     24 C           5.9780    3.2200   -5.5200 c3        1 UL4     -0.125100
     25 H2          0.5630    0.1390   -2.6600 ha        1 UL4      0.155000
     26 H3          1.4120   -2.0480   -1.7410 ha        1 UL4      0.115000
     27 H4          3.8680   -2.5220   -1.7210 ha        1 UL4      0.131000
     28 H5          4.5740    1.3950   -3.4790 ha        1 UL4      0.152000
     29 H6          6.0510    0.1070   -4.3730 hn        1 UL4      0.339500
     30 H7          8.4830   -1.9090   -2.4250 ha        1 UL4      0.189000
     31 H8         13.1480   -1.2070   -2.9910 hc        1 UL4      0.059033
     32 H9         12.9780   -1.8280   -1.2940 hc        1 UL4      0.059033
     33 H10        12.3770   -0.1630   -1.7200 hc        1 UL4      0.059033
     34 H11        11.8250    0.2600   -4.1200 ha        1 UL4      0.125000
     35 H12        10.2470    1.7360   -5.3730 ha        1 UL4      0.141000
     36 H13         6.7960    2.4230   -3.6560 h1        1 UL4      0.030200
     37 H14         7.9640    3.4460   -4.6180 h1        1 UL4      0.030200
     38 H15         4.9930    2.8450   -5.1330 hc        1 UL4      0.067033
     39 H16         5.9630    4.3350   -5.4750 hc        1 UL4      0.067033
     40 H17         6.0890    2.9030   -6.5850 hc        1 UL4      0.067033
@<TRIPOS>BOND
     1    1    2 1   
     2    2    3 1   
     3    2    4 1   
     4    4    5 ar  
     5    4    8 ar  
     6    5    6 ar  
     7    5   25 1   
     8    6    7 ar  
     9    6   26 1   
    10    7    9 ar  
    11    7   27 1   
    12    8    9 ar  
    13    8   28 1   
    14    9   10 1   
    15   10   11 2   
    16   10   12 1   
    17   12   13 1   
    18   12   29 1   
    19   13   14 ar  
    20   13   21 ar  
    21   14   15 ar  
    22   14   30 1   
    23   15   16 1   
    24   15   19 ar  
    25   16   17 2   
    26   16   18 1   
    27   18   31 1   
    28   18   32 1   
    29   18   33 1   
    30   19   20 ar  
    31   19   34 1   
    32   20   21 ar  
    33   20   35 1   
    34   21   22 1   
    35   22   23 1   
    36   23   24 1   
    37   23   36 1   
    38   23   37 1   
    39   24   38 1   
    40   24   39 1   
    41   24   40 1   
@<TRIPOS>SUBSTRUCTURE
     1 UL4         1 TEMP              0 ****  ****    0 ROOT
