@<TRIPOS>MOLECULE
ULF
   35    32     1     0     0
SMALL
bcc


@<TRIPOS>ATOM
      1 F7'       -46.4220   55.0410  -92.2770 f         1 ULF     -0.102000
      2 C6'       -47.3460   54.3480  -92.8910 c1        1 ULF      0.072000
      3 C8'        62.5590  -63.6420  115.0070 c3        1 ULF     -0.198000
      4 C2'       -47.4450   54.5350  -94.3500 c3        1 ULF     -0.380000
      5 C3'        63.8560  -61.4650  115.1590 c1        1 ULF     -0.017000
      6 O3'        63.1050  -61.1160  114.1200 oh        1 ULF     -0.247000
      7 C1'       -49.2220   57.0400  -96.1870 c1        1 ULF     -0.007000
      8 O4'       -49.2670   57.1470  -94.9570 o         1 ULF     -0.474000
      9 C4'        63.3880  -62.6960  115.8430 c3        1 ULF     -0.267000
     10 C5'        64.5550  -63.3760  116.5220 c2        1 ULF      0.295000
     11 O5'        64.6810  -64.6130  116.5400 o         1 ULF     -0.427000
     12 P          64.8570  -64.4320  118.9610 p3        1 ULF      2.434000
     13 OP2        64.5930  -65.7210  119.6140 o         1 ULF     -1.128000
     14 OP1        66.2150  -63.8760  118.8460 o         1 ULF     -1.128000
     15 N1        -49.8450   58.1480  -96.9490 na        1 ULF     -0.284000
     16 C6        -50.4490   59.2440  -96.4070 c2        1 ULF      0.069000
     17 C5        -51.0110   60.2470  -97.1520 c2        1 ULF     -0.437000
     18 C4        -50.9630   60.1450  -98.5840 c2        1 ULF      0.366000
     19 O4        -51.3950   60.9150  -99.4520 o         1 ULF     -0.374000
     20 N3        -49.2690   57.0760  -99.0870 n2        1 ULF     -0.323000
     21 C2        -49.7880   58.0250  -98.3680 c2        1 ULF      0.230000
     22 O2        -50.3540   59.0400  -99.1710 os        1 ULF     -0.228000
     23 H1         61.6320  -63.1340  114.6490 hc        1 ULF      0.074667
     24 H2         63.1410  -63.9870  114.1190 hc        1 ULF      0.074667
     25 H3         62.2820  -64.5370  115.6150 hc        1 ULF      0.074667
     26 H4        -47.7730   53.5750  -94.8180 hc        1 ULF      0.133667
     27 H5        -48.2610   55.3010  -94.5420 hc        1 ULF      0.133667
     28 H6         63.4860  -60.2930  113.7690 ho        1 ULF      0.233000
     29 H7        -46.5210   54.9040  -94.8570 hc        1 ULF      0.133667
     30 H8         62.7650  -62.3420  116.7340 hc        1 ULF      0.203000
     31 H9         65.3000  -62.6990  116.9980 h4        1 ULF      0.150000
     32 H12       -50.4550   59.2670  -95.2990 h4        1 ULF      0.157000
     33 H13       -51.4940   61.1210  -96.7100 ha        1 ULF      0.145000
     34 H14       -48.8590   56.3410  -98.5480 hn        1 ULF      0.169000
     35 OP3        63.7300  -63.5360  118.5710 o         1 ULF     -1.128000
@<TRIPOS>BOND
     1    1    2 1   
     2    2    4 1   
     3    3    9 1   
     4    3   23 1   
     5    3   24 1   
     6    3   25 1   
     7    4   26 1   
     8    4   27 1   
     9    4   29 1   
    10    5    6 1   
    11    5    9 1   
    12    6   28 1   
    13    7    8 1   
    14    7   15 1   
    15    9   10 1   
    16    9   30 1   
    17   10   11 1   
    18   10   31 1   
    19   12   13 1   
    20   12   14 1   
    21   12   35 1   
    22   15   16 1   
    23   15   21 1   
    24   16   17 1   
    25   16   32 1   
    26   17   18 1   
    27   17   33 1   
    28   18   19 1   
    29   18   22 1   
    30   20   21 1   
    31   20   34 1   
    32   21   22 1   
@<TRIPOS>SUBSTRUCTURE
     1 ULF         1 TEMP              0 ****  ****    0 ROOT
