@<TRIPOS>MOLECULE
ULF
   35    32     1     0     0
SMALL
bcc


@<TRIPOS>ATOM
      1 F7'       -84.1520   56.0890 -176.2190 f         1 ULF     -0.069000
      2 C6'       -83.0580   56.1050 -176.9170 c1        1 ULF      0.057000
      3 C8'       -81.0090   57.0010 -172.3080 c3        1 ULF     -0.167000
      4 C2'       -82.0960   57.2250 -176.7220 c3        1 ULF     -0.173000
      5 C3'       -79.8500   58.0640 -174.2710 c2        1 ULF     -0.117000
      6 O3'       -78.6100   58.1420 -173.6730 oh        1 ULF     -0.272000
      7 C1'       -82.2970   58.1040 -175.5480 c2        1 ULF     -0.307000
      8 O4'       -82.1890   57.4550 -174.3140 os        1 ULF     -0.142000
      9 C4'       -80.9510   57.5580 -173.6820 c2        1 ULF     -0.077000
     10 C5'       286.8550 -187.9890  592.6860 c2        1 ULF      0.164000
     11 O5'       287.5180 -188.7210  593.4210 o         1 ULF     -0.306000
     12 P         286.9710 -189.1350  595.8600 p3        1 ULF      2.415000
     13 OP2       286.7170 -190.5870  595.8500 o         1 ULF     -1.140000
     14 OP1       288.1740 -188.5910  596.5150 o         1 ULF     -1.140000
     15 N1        -82.6980   59.3940 -175.5870 n         1 ULF      0.045000
     16 C6        -82.9300   60.1150 -174.4940 c2        1 ULF     -0.248000
     17 C5        -83.3160   61.4990 -174.4350 c2        1 ULF     -0.275000
     18 C4        -83.4860   62.3540 -175.4250 c1        1 ULF      0.224000
     19 O4        -83.6690   63.2150 -176.2310 o         1 ULF     -0.172000
     20 N3        -81.8600   60.9500 -177.3550 n2        1 ULF     -0.463000
     21 C2        -82.7790   60.0780 -177.0350 c2        1 ULF      0.304000
     22 O2        -83.7610   59.6420 -177.6840 o         1 ULF     -0.443000
     23 H1        -82.0390   56.6310 -172.0820 hc        1 ULF      0.078000
     24 H2        -80.2920   56.1490 -172.2050 hc        1 ULF      0.078000
     25 H3        -80.7400   57.7890 -171.5610 hc        1 ULF      0.078000
     26 H4        -81.0750   56.7530 -176.6560 hc        1 ULF      0.135000
     27 H5        -82.1370   57.8150 -177.6860 hc        1 ULF      0.135000
     28 H6        -78.6840   57.8000 -172.7720 ho        1 ULF      0.190000
     29 H7        -79.8150   58.4840 -175.2870 h4        1 ULF      0.186000
     30 H8        285.9560 -187.4460  593.0450 h4        1 ULF      0.074000
     31 H9        287.1400 -187.8450  591.6190 h4        1 ULF      0.074000
     32 H12       -82.8450   59.6150 -173.5130 h4        1 ULF      0.137000
     33 H13       -83.5060   61.8840 -173.4190 ha        1 ULF      0.152000
     34 H14       -81.1620   61.1390 -176.6750 hn        1 ULF      0.126000
     35 OP3       285.9440 -188.2090  595.3320 o         1 ULF     -1.140000
@<TRIPOS>BOND
     1    1    2 1   
     2    2    4 1   
     3    3    9 1   
     4    3   23 1   
     5    3   24 1   
     6    3   25 1   
     7    4    7 1   
     8    4   26 1   
     9    4   27 1   
    10    5    6 1   
    11    5    9 1   
    12    5   29 1   
    13    6   28 1   
    14    7    8 1   
    15    7   15 1   
    16    8    9 1   
    17   10   11 1   
    18   10   30 1   
    19   10   31 1   
    20   12   13 1   
    21   12   14 1   
    22   12   35 1   
    23   15   16 1   
    24   15   21 1   
    25   16   17 1   
    26   16   32 1   
    27   17   18 1   
    28   17   33 1   
    29   18   19 1   
    30   20   21 1   
    31   20   34 1   
    32   21   22 1   
@<TRIPOS>SUBSTRUCTURE
     1 ULF         1 TEMP              0 ****  ****    0 ROOT
