@<TRIPOS>MOLECULE
ULF
   35    37     1     0     0
SMALL
bcc


@<TRIPOS>ATOM
      1 F7'         0.6690    3.5680    0.7140 f         1 ULF     -0.284300
      2 C6'         0.2550    2.7710   -0.3420 c3        1 ULF      0.168600
      3 C8'        -1.0420    1.9700   -0.0240 c3        1 ULF     -0.086400
      4 C2'         1.2740    1.6790   -0.7460 c3        1 ULF     -0.255700
      5 C3'         0.3090    0.7480   -1.6600 c3        1 ULF      0.433800
      6 O3'        -0.1780    1.3040   -2.7180 o         1 ULF     -0.816500
      7 C1'         1.4790    0.7720    0.4860 c3        1 ULF      0.311500
      8 O4'         0.2400    0.0730    0.6610 os        1 ULF     -0.427600
      9 C4'        -0.6710    0.5290   -0.3960 c3        1 ULF      0.010800
     10 C5'        -1.7820   -0.4810   -0.5600 c3        1 ULF      0.229400
     11 O5'        -2.7560   -0.3810    0.4350 os        1 ULF     -0.582200
     12 P          -4.3290   -0.2950   -0.0460 p5        1 ULF      1.429800
     13 OP2        -5.1900   -0.3360    1.1530 o         1 ULF     -0.848000
     14 OP1        -4.3190    1.2140   -0.6750 oh        1 ULF     -0.786400
     15 N1          2.5740   -0.2220    0.3450 n         1 ULF     -0.349000
     16 C6          2.3390   -1.4760   -0.1660 cc        1 ULF      0.113600
     17 C5          3.3290   -2.4100   -0.3180 cd        1 ULF     -0.403200
     18 C4          4.6990   -2.0970    0.0570 c         1 ULF      0.722700
     19 O4          5.6810   -2.8650   -0.0460 o         1 ULF     -0.693500
     20 N3          4.9130   -0.8140    0.5890 n         1 ULF     -0.598500
     21 C2          3.8780    0.1320    0.7540 c         1 ULF      0.799500
     22 O2          4.1630    1.2380    1.2700 o         1 ULF     -0.667500
     23 H1          0.0850    3.4320   -1.2360 h1        1 ULF      0.063700
     24 H2         -1.3240    2.0570    1.0510 hc        1 ULF      0.063200
     25 H3         -1.8880    2.3160   -0.6630 hc        1 ULF      0.063200
     26 H4          2.1880    2.0510   -1.2280 hc        1 ULF      0.061700
     27 H5          0.8570   -0.2320   -1.8330 h1        1 ULF     -0.089300
     28 H6         -3.9470    1.2400   -1.5490 ho        1 ULF      0.427000
     29 H7          1.6960    1.3400    1.4360 h2        1 ULF      0.077700
     30 H8         -2.2430   -0.3330   -1.5780 h1        1 ULF      0.030200
     31 H9         -1.3210   -1.5110   -0.5080 h1        1 ULF      0.030200
     32 H12         1.2770   -1.6790   -0.4360 h4        1 ULF      0.211000
     33 H13         3.1320   -3.4050   -0.7250 ha        1 ULF      0.161000
     34 H14         5.8260   -0.5370    0.8670 hn        1 ULF      0.326500
     35 OP3        -4.4770   -1.1700   -1.2330 o         1 ULF     -0.848000
@<TRIPOS>BOND
     1    1    2 1   
     2    2    3 1   
     3    2    4 1   
     4    2   23 1   
     5    3    9 1   
     6    3   24 1   
     7    3   25 1   
     8    4    5 1   
     9    4    7 1   
    10    4   26 1   
    11    5    6 1   
    12    5    9 1   
    13    5   27 1   
    14    7    8 1   
    15    7   15 1   
    16    7   29 1   
    17    8    9 1   
    18    9   10 1   
    19   10   11 1   
    20   10   30 1   
    21   10   31 1   
    22   11   12 1   
    23   12   13 1   
    24   12   14 1   
    25   12   35 1   
    26   14   28 1   
    27   15   16 1   
    28   15   21 1   
    29   16   17 2   
    30   16   32 1   
    31   17   18 1   
    32   17   33 1   
    33   18   19 2   
    34   18   20 1   
    35   20   21 1   
    36   20   34 1   
    37   21   22 2   
@<TRIPOS>SUBSTRUCTURE
     1 ULF         1 TEMP              0 ****  ****    0 ROOT
