@<TRIPOS>MOLECULE
ULI
  122   121     1     0     0
SMALL
bcc


@<TRIPOS>ATOM
      1 CAA        24.3660    0.3870    0.0300 c3        1 ULI     -0.092100
      2 CAB        23.1180   -0.4550   -0.0360 c3        1 ULI     -0.080400
      3 CAC        21.8690    0.3970    0.0310 c3        1 ULI     -0.079400
      4 CAD        20.6180   -0.4520   -0.0360 c3        1 ULI     -0.079400
      5 CAE        19.3690    0.4010    0.0320 c3        1 ULI     -0.079400
      6 CAF        18.1190   -0.4490   -0.0360 c3        1 ULI     -0.079400
      7 CAG        16.8700    0.4040    0.0320 c3        1 ULI     -0.079400
      8 CAH        15.6190   -0.4460   -0.0350 c3        1 ULI     -0.079400
      9 CAI        14.3710    0.4070    0.0320 c3        1 ULI     -0.079400
     10 CAJ        13.1200   -0.4430   -0.0350 c3        1 ULI     -0.079400
     11 CAK        11.8720    0.4100    0.0320 c3        1 ULI     -0.079400
     12 CAL        10.6210   -0.4400   -0.0350 c3        1 ULI     -0.079400
     13 CAM         9.3730    0.4140    0.0330 c3        1 ULI     -0.079400
     14 CAN         8.1220   -0.4360   -0.0350 c3        1 ULI     -0.079400
     15 CAO         6.8730    0.4170    0.0330 c3        1 ULI     -0.079400
     16 CAP         5.6230   -0.4330   -0.0340 c3        1 ULI     -0.079400
     17 CAQ         4.3740    0.4200    0.0330 c3        1 ULI     -0.079400
     18 CAR         3.1230   -0.4300   -0.0340 c3        1 ULI     -0.079400
     19 CAS         1.8750    0.4230    0.0330 c3        1 ULI     -0.079400
     20 CAT         0.6240   -0.4270   -0.0340 c3        1 ULI     -0.079400
     21 CAU        -0.6240    0.4270    0.0340 c3        1 ULI     -0.079400
     22 CAV        -1.8750   -0.4230   -0.0330 c3        1 ULI     -0.079400
     23 CAW        -3.1230    0.4300    0.0340 c3        1 ULI     -0.079400
     24 CAX       -23.1180    0.4550    0.0360 c3        1 ULI     -0.080400
     25 CAY       -21.8690   -0.3970   -0.0310 c3        1 ULI     -0.079400
     26 CAZ       -20.6180    0.4520    0.0360 c3        1 ULI     -0.079400
     27 CBA       -19.3690   -0.4010   -0.0320 c3        1 ULI     -0.079400
     28 CBB       -18.1190    0.4490    0.0360 c3        1 ULI     -0.079400
     29 CBC       -16.8700   -0.4040   -0.0320 c3        1 ULI     -0.079400
     30 CBD       -15.6190    0.4460    0.0350 c3        1 ULI     -0.079400
     31 CBE       -14.3710   -0.4070   -0.0320 c3        1 ULI     -0.079400
     32 CBF       -13.1200    0.4430    0.0350 c3        1 ULI     -0.079400
     33 CBG       -11.8720   -0.4100   -0.0320 c3        1 ULI     -0.079400
     34 CBH       -10.6210    0.4400    0.0350 c3        1 ULI     -0.079400
     35 CBI        -9.3730   -0.4140   -0.0330 c3        1 ULI     -0.079400
     36 CBJ        -8.1220    0.4360    0.0350 c3        1 ULI     -0.079400
     37 CBK        -6.8730   -0.4170   -0.0330 c3        1 ULI     -0.079400
     38 CBL        -5.6230    0.4330    0.0340 c3        1 ULI     -0.079400
     39 CBM        -4.3740   -0.4200   -0.0330 c3        1 ULI     -0.079400
     40 HAA        24.4000    0.9680    0.9840 hc        1 ULI      0.032700
     41 HAAA       25.2750   -0.2600   -0.0210 hc        1 ULI      0.032700
     42 HAAB       24.4000    1.1100   -0.8200 hc        1 ULI      0.032700
     43 HAB        23.1140   -1.0480   -0.9880 hc        1 ULI      0.038700
     44 HABA       23.1140   -1.1900    0.8110 hc        1 ULI      0.038700
     45 HAC        21.8700    0.9910    0.9830 hc        1 ULI      0.039700
     46 HACA       21.8700    1.1330   -0.8160 hc        1 ULI      0.039700
     47 HAD        20.6170   -1.0460   -0.9880 hc        1 ULI      0.039700
     48 HADA       20.6170   -1.1880    0.8110 hc        1 ULI      0.039700
     49 HAE        19.3700    0.9940    0.9840 hc        1 ULI      0.039700
     50 HAEA       19.3700    1.1360   -0.8160 hc        1 ULI      0.039700
     51 HAF        18.1180   -1.0430   -0.9880 hc        1 ULI      0.039700
     52 HAFA       18.1180   -1.1850    0.8120 hc        1 ULI      0.039700
     53 HAG        16.8710    0.9970    0.9840 hc        1 ULI      0.039700
     54 HAGA       16.8710    1.1390   -0.8160 hc        1 ULI      0.039700
     55 HAH        15.6180   -1.0390   -0.9880 hc        1 ULI      0.039700
     56 HAHA       15.6190   -1.1810    0.8120 hc        1 ULI      0.039700
     57 HAI        14.3720    1.0000    0.9840 hc        1 ULI      0.039700
     58 HAIA       14.3720    1.1430   -0.8150 hc        1 ULI      0.039700
     59 HAJ        13.1190   -1.0360   -0.9870 hc        1 ULI      0.039700
     60 HAJA       13.1190   -1.1780    0.8120 hc        1 ULI      0.039700
     61 HAK        11.8730    1.0040    0.9850 hc        1 ULI      0.039700
     62 HAKA       11.8730    1.1460   -0.8150 hc        1 ULI      0.039700
     63 HAL        10.6200   -1.0330   -0.9870 hc        1 ULI      0.039700
     64 HALA       10.6200   -1.1750    0.8130 hc        1 ULI      0.039700
     65 HAM         9.3730    1.0070    0.9850 hc        1 ULI      0.039700
     66 HAMA        9.3730    1.1490   -0.8150 hc        1 ULI      0.039700
     67 HAN         8.1210   -1.0300   -0.9870 hc        1 ULI      0.039700
     68 HANA        8.1210   -1.1720    0.8130 hc        1 ULI      0.039700
     69 HAO         6.8740    1.0100    0.9850 hc        1 ULI      0.039700
     70 HAOA        6.8740    1.1520   -0.8150 hc        1 ULI      0.039700
     71 HAP         5.6220   -1.0260   -0.9860 hc        1 ULI      0.039700
     72 HAPA        5.6220   -1.1680    0.8130 hc        1 ULI      0.039700
     73 HAQ         4.3750    1.0140    0.9850 hc        1 ULI      0.039700
     74 HAQA        4.3750    1.1550   -0.8140 hc        1 ULI      0.039700
     75 HAR         3.1230   -1.0230   -0.9860 hc        1 ULI      0.039700
     76 HARA        3.1230   -1.1650    0.8130 hc        1 ULI      0.039700
     77 HAS         1.8760    1.0170    0.9860 hc        1 ULI      0.039700
     78 HASA        1.8760    1.1590   -0.8140 hc        1 ULI      0.039700
     79 HAT         0.6230   -1.0200   -0.9860 hc        1 ULI      0.039700
     80 HATA        0.6230   -1.1620    0.8140 hc        1 ULI      0.039700
     81 HAU        -0.6230    1.0200    0.9860 hc        1 ULI      0.039700
     82 HAUA       -0.6230    1.1620   -0.8140 hc        1 ULI      0.039700
     83 HAV        -1.8760   -1.0170   -0.9860 hc        1 ULI      0.039700
     84 HAVA       -1.8760   -1.1590    0.8140 hc        1 ULI      0.039700
     85 HAW        -3.1230    1.0230    0.9860 hc        1 ULI      0.039700
     86 HAWA       -3.1230    1.1650   -0.8130 hc        1 ULI      0.039700
     87 HAX       -23.1140    1.0480    0.9880 hc        1 ULI      0.038700
     88 HAXA      -23.1140    1.1900   -0.8110 hc        1 ULI      0.038700
     89 HAY       -21.8700   -1.1330    0.8160 hc        1 ULI      0.039700
     90 HAZ       -20.6170    1.1880   -0.8110 hc        1 ULI      0.039700
     91 HAZA      -20.6170    1.0460    0.9880 hc        1 ULI      0.039700
     92 HBA       -19.3700   -1.1360    0.8160 hc        1 ULI      0.039700
     93 HBAA      -19.3700   -0.9940   -0.9840 hc        1 ULI      0.039700
     94 HBB       -18.1180    1.1850   -0.8120 hc        1 ULI      0.039700
     95 HBBA      -18.1180    1.0430    0.9880 hc        1 ULI      0.039700
     96 HBC       -16.8710   -1.1390    0.8160 hc        1 ULI      0.039700
     97 HBCA      -16.8710   -0.9970   -0.9840 hc        1 ULI      0.039700
     98 HBD       -15.6190    1.1810   -0.8120 hc        1 ULI      0.039700
     99 HBDA      -15.6180    1.0390    0.9880 hc        1 ULI      0.039700
    100 HBE       -14.3720   -1.1430    0.8150 hc        1 ULI      0.039700
    101 HBEA      -14.3720   -1.0000   -0.9840 hc        1 ULI      0.039700
    102 HBF       -13.1190    1.1780   -0.8120 hc        1 ULI      0.039700
    103 HBFA      -13.1190    1.0360    0.9870 hc        1 ULI      0.039700
    104 HBG       -11.8730   -1.1460    0.8150 hc        1 ULI      0.039700
    105 HBGA      -11.8730   -1.0040   -0.9850 hc        1 ULI      0.039700
    106 HBH       -10.6200    1.1750   -0.8130 hc        1 ULI      0.039700
    107 HBHA      -10.6200    1.0330    0.9870 hc        1 ULI      0.039700
    108 HBI        -9.3730   -1.1490    0.8150 hc        1 ULI      0.039700
    109 HBIA       -9.3730   -1.0070   -0.9850 hc        1 ULI      0.039700
    110 HBJ        -8.1210    1.1720   -0.8130 hc        1 ULI      0.039700
    111 HBJA       -8.1210    1.0300    0.9870 hc        1 ULI      0.039700
    112 HBK        -6.8740   -1.1520    0.8150 hc        1 ULI      0.039700
    113 HBKA       -6.8740   -1.0100   -0.9850 hc        1 ULI      0.039700
    114 HBL        -5.6220    1.1680   -0.8130 hc        1 ULI      0.039700
    115 HBLA       -5.6220    1.0260    0.9860 hc        1 ULI      0.039700
    116 HBM        -4.3750   -1.0140   -0.9850 hc        1 ULI      0.039700
    117 HBMA       -4.3750   -1.1550    0.8140 hc        1 ULI      0.039700
    118 C40       -24.3660   -0.3870   -0.0300 c3        1 ULI     -0.092100
    119 H79       -21.8700   -0.9910   -0.9830 hc        1 ULI      0.039700
    120 H80       -24.4000   -1.1100    0.8200 hc        1 ULI      0.032700
    121 H81       -25.2750    0.2600    0.0210 hc        1 ULI      0.032700
    122 H82       -24.4000   -0.9680   -0.9840 hc        1 ULI      0.032700
@<TRIPOS>BOND
     1    1    2 1   
     2    1   40 1   
     3    1   41 1   
     4    1   42 1   
     5    2    3 1   
     6    2   43 1   
     7    2   44 1   
     8    3    4 1   
     9    3   45 1   
    10    3   46 1   
    11    4    5 1   
    12    4   47 1   
    13    4   48 1   
    14    5    6 1   
    15    5   49 1   
    16    5   50 1   
    17    6    7 1   
    18    6   51 1   
    19    6   52 1   
    20    7    8 1   
    21    7   53 1   
    22    7   54 1   
    23    8    9 1   
    24    8   55 1   
    25    8   56 1   
    26    9   10 1   
    27    9   57 1   
    28    9   58 1   
    29   10   11 1   
    30   10   59 1   
    31   10   60 1   
    32   11   12 1   
    33   11   61 1   
    34   11   62 1   
    35   12   13 1   
    36   12   63 1   
    37   12   64 1   
    38   13   14 1   
    39   13   65 1   
    40   13   66 1   
    41   14   15 1   
    42   14   67 1   
    43   14   68 1   
    44   15   16 1   
    45   15   69 1   
    46   15   70 1   
    47   16   17 1   
    48   16   71 1   
    49   16   72 1   
    50   17   18 1   
    51   17   73 1   
    52   17   74 1   
    53   18   19 1   
    54   18   75 1   
    55   18   76 1   
    56   19   20 1   
    57   19   77 1   
    58   19   78 1   
    59   20   21 1   
    60   20   79 1   
    61   20   80 1   
    62   21   22 1   
    63   21   81 1   
    64   21   82 1   
    65   22   23 1   
    66   22   83 1   
    67   22   84 1   
    68   23   39 1   
    69   23   85 1   
    70   23   86 1   
    71   24   25 1   
    72   24   87 1   
    73   24   88 1   
    74   24  118 1   
    75   25   26 1   
    76   25   89 1   
    77   25  119 1   
    78   26   27 1   
    79   26   90 1   
    80   26   91 1   
    81   27   28 1   
    82   27   92 1   
    83   27   93 1   
    84   28   29 1   
    85   28   94 1   
    86   28   95 1   
    87   29   30 1   
    88   29   96 1   
    89   29   97 1   
    90   30   31 1   
    91   30   98 1   
    92   30   99 1   
    93   31   32 1   
    94   31  100 1   
    95   31  101 1   
    96   32   33 1   
    97   32  102 1   
    98   32  103 1   
    99   33   34 1   
   100   33  104 1   
   101   33  105 1   
   102   34   35 1   
   103   34  106 1   
   104   34  107 1   
   105   35   36 1   
   106   35  108 1   
   107   35  109 1   
   108   36   37 1   
   109   36  110 1   
   110   36  111 1   
   111   37   38 1   
   112   37  112 1   
   113   37  113 1   
   114   38   39 1   
   115   38  114 1   
   116   38  115 1   
   117   39  116 1   
   118   39  117 1   
   119  118  120 1   
   120  118  121 1   
   121  118  122 1   
@<TRIPOS>SUBSTRUCTURE
     1 ULI         1 TEMP              0 ****  ****    0 ROOT
