@<TRIPOS>MOLECULE
ULI
  122   121     1     0     0
SMALL
bcc


@<TRIPOS>ATOM
      1 CAA       -19.9240   -0.2060  -13.5430 c3        1 ULI     -0.092100
      2 CAB       -18.4110   -0.2060  -13.5430 c3        1 ULI     -0.080400
      3 CAC       -17.9060   -0.2060  -12.1170 c3        1 ULI     -0.079400
      4 CAD       -16.3940   -0.2150  -12.1170 c3        1 ULI     -0.079400
      5 CAE       -15.8890   -0.1960  -10.6910 c3        1 ULI     -0.079400
      6 CAF       -14.3760   -0.2170  -10.6910 c3        1 ULI     -0.079400
      7 CAG       -13.8720   -0.1790   -9.2650 c3        1 ULI     -0.079400
      8 CAH       -12.3590   -0.2080   -9.2640 c3        1 ULI     -0.079400
      9 CAI       -11.8540   -0.1570   -7.8390 c3        1 ULI     -0.079400
     10 CAJ       -10.3420   -0.1900   -7.8390 c3        1 ULI     -0.079400
     11 CAK        -9.8360   -0.1340   -6.4140 c3        1 ULI     -0.079400
     12 CAL        -8.3240   -0.1620   -6.4130 c3        1 ULI     -0.079400
     13 CAM        -7.8190   -0.1090   -4.9880 c3        1 ULI     -0.079400
     14 CAN        -6.3060   -0.1270   -4.9880 c3        1 ULI     -0.079400
     15 CAO        -5.8010   -0.0850   -3.5620 c3        1 ULI     -0.079400
     16 CAP        -4.2880   -0.0910   -3.5630 c3        1 ULI     -0.079400
     17 CAQ        -3.7830   -0.0600   -2.1370 c3        1 ULI     -0.079400
     18 CAR        -2.2700   -0.0550   -2.1380 c3        1 ULI     -0.079400
     19 CAS        -1.7660   -0.0320   -0.7120 c3        1 ULI     -0.079400
     20 CAT        -0.2530   -0.0240   -0.7120 c3        1 ULI     -0.079400
     21 CAU         0.2520   -0.0010    0.7140 c3        1 ULI     -0.079400
     22 CAV         1.7650    0.0010    0.7130 c3        1 ULI     -0.079400
     23 CAW         2.2700    0.0340    2.1390 c3        1 ULI     -0.079400
     24 CAX        18.4130    0.3010   13.5400 c3        1 ULI     -0.080400
     25 CAY        17.9080    0.2550   12.1140 c3        1 ULI     -0.079400
     26 CAZ        16.3950    0.2650   12.1150 c3        1 ULI     -0.079400
     27 CBA        15.8900    0.2160   10.6900 c3        1 ULI     -0.079400
     28 CBB        14.3770    0.2290   10.6900 c3        1 ULI     -0.079400
     29 CBC        13.8720    0.1780    9.2650 c3        1 ULI     -0.079400
     30 CBD        12.3590    0.1960    9.2650 c3        1 ULI     -0.079400
     31 CBE        11.8540    0.1400    7.8400 c3        1 ULI     -0.079400
     32 CBF        10.3410    0.1660    7.8400 c3        1 ULI     -0.079400
     33 CBG         9.8360    0.1040    6.4150 c3        1 ULI     -0.079400
     34 CBH         8.3230    0.1360    6.4140 c3        1 ULI     -0.079400
     35 CBI         7.8180    0.0720    4.9900 c3        1 ULI     -0.079400
     36 CBJ         6.3060    0.1040    4.9890 c3        1 ULI     -0.079400
     37 CBK         5.8000    0.0460    3.5640 c3        1 ULI     -0.079400
     38 CBL         4.2880    0.0690    3.5640 c3        1 ULI     -0.079400
     39 CBM         3.7830    0.0230    2.1390 c3        1 ULI     -0.079400
     40 HAA       -20.2490   -1.0040  -13.0860 hc        1 ULI      0.032700
     41 HAAA      -20.2490   -0.2020  -14.4640 hc        1 ULI      0.032700
     42 HAAB      -20.2490    0.5900  -13.0800 hc        1 ULI      0.032700
     43 HAB       -18.0850    0.5910  -14.0040 hc        1 ULI      0.038700
     44 HABA      -18.0850   -1.0030  -14.0040 hc        1 ULI      0.038700
     45 HAC       -18.2370   -0.9990  -11.6550 hc        1 ULI      0.039700
     46 HACA      -18.2270    0.5950  -11.6590 hc        1 ULI      0.039700
     47 HAD       -16.0730   -1.0220  -12.5640 hc        1 ULI      0.039700
     48 HADA      -16.0630    0.5720  -12.5900 hc        1 ULI      0.039700
     49 HAE       -16.2250   -0.9790  -10.2160 hc        1 ULI      0.039700
     50 HAEA      -16.2030    0.6140  -10.2460 hc        1 ULI      0.039700
     51 HAF       -14.0620   -1.0320  -11.1260 hc        1 ULI      0.039700
     52 HAFA      -14.0400    0.5610  -11.1750 hc        1 ULI      0.039700
     53 HAG       -14.2120   -0.9540   -8.7790 hc        1 ULI      0.039700
     54 HAGA      -14.1810    0.6390   -8.8320 hc        1 ULI      0.039700
     55 HAH       -12.0180    0.5620   -9.7580 hc        1 ULI      0.039700
     56 HAHA      -12.0490   -1.0300   -9.6900 hc        1 ULI      0.039700
     57 HAI       -12.1960   -0.9270   -7.3450 hc        1 ULI      0.039700
     58 HAIA      -12.1620    0.6660   -7.4140 hc        1 ULI      0.039700
     59 HAJ       -10.0340   -1.0140   -8.2610 hc        1 ULI      0.039700
     60 HAJA       -9.9990    0.5770   -8.3360 hc        1 ULI      0.039700
     61 HAK       -10.1760   -0.9020   -5.9170 hc        1 ULI      0.039700
     62 HAKA      -10.1470    0.6900   -5.9910 hc        1 ULI      0.039700
     63 HAL        -8.0140   -0.9840   -6.8380 hc        1 ULI      0.039700
     64 HALA       -7.9840    0.6080   -6.9070 hc        1 ULI      0.039700
     65 HAM        -8.1540   -0.8830   -4.4950 hc        1 ULI      0.039700
     66 HAMA       -8.1340    0.7100   -4.5610 hc        1 ULI      0.039700
     67 HAN        -5.9710    0.6490   -5.4750 hc        1 ULI      0.039700
     68 HANA       -5.9900   -0.9440   -5.4210 hc        1 ULI      0.039700
     69 HAO        -6.1230    0.7270   -3.1270 hc        1 ULI      0.039700
     70 HAOA       -6.1290   -0.8660   -3.0780 hc        1 ULI      0.039700
     71 HAP        -3.9660   -0.8990   -4.0050 hc        1 ULI      0.039700
     72 HAPA       -3.9600    0.6950   -4.0410 hc        1 ULI      0.039700
     73 HAQ        -4.1110    0.7460   -1.6930 hc        1 ULI      0.039700
     74 HAQA       -4.1060   -0.8480   -1.6600 hc        1 ULI      0.039700
     75 HAR        -1.9430   -0.8580   -2.5860 hc        1 ULI      0.039700
     76 HARA       -1.9480    0.7360   -2.6100 hc        1 ULI      0.039700
     77 HAS        -2.0950    0.7700   -0.2630 hc        1 ULI      0.039700
     78 HASA       -2.0870   -0.8240   -0.2400 hc        1 ULI      0.039700
     79 HAT         0.0770   -0.8260   -1.1610 hc        1 ULI      0.039700
     80 HATA        0.0680    0.7680   -1.1840 hc        1 ULI      0.039700
     81 HAU        -0.0720   -0.7910    1.1860 hc        1 ULI      0.039700
     82 HAUA       -0.0740    0.8030    1.1610 hc        1 ULI      0.039700
     83 HAV         2.0910   -0.8050    0.2710 hc        1 ULI      0.039700
     84 HAVA        2.0890    0.7880    0.2350 hc        1 ULI      0.039700
     85 HAW         1.9390   -0.7490    2.6190 hc        1 ULI      0.039700
     86 HAWA        1.9500    0.8440    2.5790 hc        1 ULI      0.039700
     87 HAX        18.0910    1.1150   13.9730 hc        1 ULI      0.038700
     88 HAXA       18.0840   -0.4780   14.0270 hc        1 ULI      0.038700
     89 HAY        18.2380    1.0340   11.6270 hc        1 ULI      0.039700
     90 HAZ        16.0750    1.0800   12.5460 hc        1 ULI      0.039700
     91 HAZA       16.0640   -0.5130   12.6040 hc        1 ULI      0.039700
     92 HBA        16.2220    0.9930   10.2000 hc        1 ULI      0.039700
     93 HBAA       16.2080   -0.6000   10.2590 hc        1 ULI      0.039700
     94 HBB        14.0580    1.0460   11.1180 hc        1 ULI      0.039700
     95 HBBA       14.0450   -0.5460   11.1810 hc        1 ULI      0.039700
     96 HBC        14.1870   -0.6410    8.8370 hc        1 ULI      0.039700
     97 HBCA       14.2070    0.9510    8.7730 hc        1 ULI      0.039700
     98 HBD        12.0240   -0.5760    9.7600 hc        1 ULI      0.039700
     99 HBDA       12.0440    1.0170    9.6890 hc        1 ULI      0.039700
    100 HBE        12.1650   -0.6830    7.4170 hc        1 ULI      0.039700
    101 HBEA       12.1930    0.9090    7.3440 hc        1 ULI      0.039700
    102 HBF        10.0020   -0.6020    8.3390 hc        1 ULI      0.039700
    103 HBFA       10.0300    0.9900    8.2600 hc        1 ULI      0.039700
    104 HBG        10.1440   -0.7220    5.9960 hc        1 ULI      0.039700
    105 HBGA       10.1780    0.8690    5.9150 hc        1 ULI      0.039700
    106 HBH         7.9820   -0.6290    6.9150 hc        1 ULI      0.039700
    107 HBHA        8.0150    0.9620    6.8320 hc        1 ULI      0.039700
    108 HBI         8.1270   -0.7540    4.5710 hc        1 ULI      0.039700
    109 HBIA        8.1600    0.8380    4.4890 hc        1 ULI      0.039700
    110 HBJ         5.9970    0.9280    5.4110 hc        1 ULI      0.039700
    111 HBJA        5.9640   -0.6640    5.4870 hc        1 ULI      0.039700
    112 HBK         6.1380    0.8160    3.0680 hc        1 ULI      0.039700
    113 HBKA        6.1130   -0.7760    3.1410 hc        1 ULI      0.039700
    114 HBL         3.9500   -0.7050    4.0540 hc        1 ULI      0.039700
    115 HBLA        3.9750    0.8880    3.9940 hc        1 ULI      0.039700
    116 HBM         4.1020   -0.7910    1.7060 hc        1 ULI      0.039700
    117 HBMA        4.1130    0.8020    1.6510 hc        1 ULI      0.039700
    118 C40        19.9250    0.2940   13.5390 c3        1 ULI     -0.092100
    119 H79        18.2280   -0.5590   11.6820 hc        1 ULI      0.039700
    120 H80        20.2510    0.3220   14.4590 hc        1 ULI      0.032700
    121 H81        20.2550    1.0740   13.0530 hc        1 ULI      0.032700
    122 H82        20.2470   -0.5200   13.1060 hc        1 ULI      0.032700
@<TRIPOS>BOND
     1    1    2 1   
     2    1   40 1   
     3    1   41 1   
     4    1   42 1   
     5    2    3 1   
     6    2   43 1   
     7    2   44 1   
     8    3    4 1   
     9    3   45 1   
    10    3   46 1   
    11    4    5 1   
    12    4   47 1   
    13    4   48 1   
    14    5    6 1   
    15    5   49 1   
    16    5   50 1   
    17    6    7 1   
    18    6   51 1   
    19    6   52 1   
    20    7    8 1   
    21    7   53 1   
    22    7   54 1   
    23    8    9 1   
    24    8   55 1   
    25    8   56 1   
    26    9   10 1   
    27    9   57 1   
    28    9   58 1   
    29   10   11 1   
    30   10   59 1   
    31   10   60 1   
    32   11   12 1   
    33   11   61 1   
    34   11   62 1   
    35   12   13 1   
    36   12   63 1   
    37   12   64 1   
    38   13   14 1   
    39   13   65 1   
    40   13   66 1   
    41   14   15 1   
    42   14   67 1   
    43   14   68 1   
    44   15   16 1   
    45   15   69 1   
    46   15   70 1   
    47   16   17 1   
    48   16   71 1   
    49   16   72 1   
    50   17   18 1   
    51   17   73 1   
    52   17   74 1   
    53   18   19 1   
    54   18   75 1   
    55   18   76 1   
    56   19   20 1   
    57   19   77 1   
    58   19   78 1   
    59   20   21 1   
    60   20   79 1   
    61   20   80 1   
    62   21   22 1   
    63   21   81 1   
    64   21   82 1   
    65   22   23 1   
    66   22   83 1   
    67   22   84 1   
    68   23   39 1   
    69   23   85 1   
    70   23   86 1   
    71   24   25 1   
    72   24   87 1   
    73   24   88 1   
    74   24  118 1   
    75   25   26 1   
    76   25   89 1   
    77   25  119 1   
    78   26   27 1   
    79   26   90 1   
    80   26   91 1   
    81   27   28 1   
    82   27   92 1   
    83   27   93 1   
    84   28   29 1   
    85   28   94 1   
    86   28   95 1   
    87   29   30 1   
    88   29   96 1   
    89   29   97 1   
    90   30   31 1   
    91   30   98 1   
    92   30   99 1   
    93   31   32 1   
    94   31  100 1   
    95   31  101 1   
    96   32   33 1   
    97   32  102 1   
    98   32  103 1   
    99   33   34 1   
   100   33  104 1   
   101   33  105 1   
   102   34   35 1   
   103   34  106 1   
   104   34  107 1   
   105   35   36 1   
   106   35  108 1   
   107   35  109 1   
   108   36   37 1   
   109   36  110 1   
   110   36  111 1   
   111   37   38 1   
   112   37  112 1   
   113   37  113 1   
   114   38   39 1   
   115   38  114 1   
   116   38  115 1   
   117   39  116 1   
   118   39  117 1   
   119  118  120 1   
   120  118  121 1   
   121  118  122 1   
@<TRIPOS>SUBSTRUCTURE
     1 ULI         1 TEMP              0 ****  ****    0 ROOT
