@<TRIPOS>MOLECULE
UM0
   48    48     1     0     0
SMALL
bcc


@<TRIPOS>ATOM
      1 O1         -1.5670   -0.8420   -3.4140 oh        1 UM0     -0.612800
      2 C1         -0.1680   -0.8530   -3.4100 c3        1 UM0      0.302900
      3 C2          0.3140   -0.8880   -1.9880 c3        1 UM0      0.102700
      4 N2         -0.3510   -1.9870   -1.2890 n         1 UM0     -0.557900
      5 CBC         0.1460   -3.3430   -1.4300 c         1 UM0      0.670100
      6 CBE        -0.5450   -4.4950   -0.6860 c3        1 UM0     -0.182100
      7 OBD         1.1190   -3.5680   -2.1350 o         1 UM0     -0.686100
      8 O5          0.3170    0.3290   -4.1410 os        1 UM0     -0.468600
      9 C5          0.0420    1.5850   -3.4390 c3        1 UM0      0.108100
     10 C6          0.7220    2.6990   -4.1630 c3        1 UM0      0.139400
     11 O6          0.4900    2.5640   -5.5720 oh        1 UM0     -0.609800
     12 C4          0.5260    1.5620   -1.9920 c3        1 UM0      0.113100
     13 O4          0.0630    2.7630   -1.3200 oh        1 UM0     -0.612800
     14 C3          0.0360    0.3890   -1.2600 c3        1 UM0      0.097100
     15 O3          0.6970    0.3390    0.0560 os        1 UM0     -0.401600
     16 CBN        -0.1760    0.5890    1.1500 c3        1 UM0      0.031100
     17 CBQ        -0.3360    2.0620    1.3300 c3        1 UM0     -0.124100
     18 CBO         0.4150   -0.0210    2.4250 c         1 UM0      0.648100
     19 OBP         1.4580   -0.6510    2.3720 o         1 UM0     -0.559100
     20 N          -0.3070    0.0760    3.6730 n         1 UM0     -0.484900
     21 CBA         0.3370   -0.2700    4.9030 c3        1 UM0     -0.068300
     22 CBB         0.1160    0.8230    5.9040 c3        1 UM0     -0.073100
     23 C          -0.2460   -1.5580    5.4270 c         1 UM0      0.894600
     24 O          -1.4930   -1.6430    5.6520 o         1 UM0     -0.847800
     25 OXT         0.4940   -2.5840    5.5550 o         1 UM0     -0.847800
     26 HO1        -1.8600   -1.3510   -4.0600 ho        1 UM0      0.404000
     27 H1          0.1520   -1.6790   -3.8800 h2        1 UM0      0.110700
     28 H2          1.3030   -1.0530   -1.9870 h1        1 UM0      0.074700
     29 HN2        -1.0620   -1.8150   -0.7410 hn        1 UM0      0.372500
     30 HBE        -0.9960   -4.1450    0.1190 hc        1 UM0      0.082033
     31 HBEA        0.1340   -5.1690   -0.4170 hc        1 UM0      0.082033
     32 HBEB       -1.2100   -4.9170   -1.2790 hc        1 UM0      0.082033
     33 H5         -0.9130    1.7460   -3.4480 h1        1 UM0      0.071700
     34 H6          1.6870    2.6650   -3.9860 h1        1 UM0      0.055700
     35 H6A         0.3630    3.5570   -3.8540 h1        1 UM0      0.055700
     36 HO6         0.9000    3.2380   -6.0120 ho        1 UM0      0.410000
     37 H4          1.5150    1.5530   -1.9850 h1        1 UM0      0.059700
     38 HO4         0.6750    3.4090   -1.4090 ho        1 UM0      0.423000
     39 H3         -0.9400    0.4770   -1.1270 h1        1 UM0      0.079700
     40 HBN        -1.0440    0.1890    0.9710 h1        1 UM0      0.106700
     41 HBQ        -0.6890    2.2470    2.2240 hc        1 UM0      0.044033
     42 HBQA        0.5240    2.4940    1.2270 hc        1 UM0      0.044033
     43 HBQB       -0.9560    2.4070    0.6580 hc        1 UM0      0.044033
     44 HN         -1.2010    0.2820    3.6690 hn        1 UM0      0.259500
     45 HBA         1.3050   -0.3840    4.7490 h1        1 UM0      0.074700
     46 HBB         0.5570    1.6310    5.6030 hc        1 UM0      0.031033
     47 HBBA        0.4820    0.5540    6.7650 hc        1 UM0      0.031033
     48 HBBB       -0.8290    0.9880    5.9950 hc        1 UM0      0.031033
@<TRIPOS>BOND
     1    1    2 1   
     2    1   26 1   
     3    2    3 1   
     4    2    8 1   
     5    2   27 1   
     6    3    4 1   
     7    3   14 1   
     8    3   28 1   
     9    4    5 1   
    10    4   29 1   
    11    5    6 1   
    12    5    7 2   
    13    6   30 1   
    14    6   31 1   
    15    6   32 1   
    16    8    9 1   
    17    9   10 1   
    18    9   12 1   
    19    9   33 1   
    20   10   11 1   
    21   10   34 1   
    22   10   35 1   
    23   11   36 1   
    24   12   13 1   
    25   12   14 1   
    26   12   37 1   
    27   13   38 1   
    28   14   15 1   
    29   14   39 1   
    30   15   16 1   
    31   16   17 1   
    32   16   18 1   
    33   16   40 1   
    34   17   41 1   
    35   17   42 1   
    36   17   43 1   
    37   18   19 2   
    38   18   20 1   
    39   20   21 1   
    40   20   44 1   
    41   21   22 1   
    42   21   23 1   
    43   21   45 1   
    44   22   46 1   
    45   22   47 1   
    46   22   48 1   
    47   23   24 1   
    48   23   25 1   
@<TRIPOS>SUBSTRUCTURE
     1 UM0         1 TEMP              0 ****  ****    0 ROOT
