@<TRIPOS>MOLECULE
UM0
   50    51     1     0     0
SMALL
bcc


@<TRIPOS>ATOM
      1 O1          0.0770   -0.8440    1.0430 oh        1 UM0     -0.647800
      2 C1          1.2510   -0.3200    0.4730 c3        1 UM0      0.330900
      3 C2          2.2340   -0.0070    1.6360 c3        1 UM0      0.099500
      4 N2          2.4860   -1.1920    2.5090 n4        1 UM0     -0.681800
      5 CBC         3.2480   -2.3220    1.8780 c         1 UM0      0.561100
      6 CBE         3.5390   -3.4640    2.7950 c3        1 UM0     -0.190100
      7 OBD         3.5610   -2.2140    0.7010 o         1 UM0     -0.434100
      8 O5          0.9080    0.8250   -0.2630 os        1 UM0     -0.428600
      9 C5          0.3780    1.9240    0.4890 c3        1 UM0      0.092100
     10 C6          0.1210    3.0410   -0.5300 c3        1 UM0      0.142400
     11 O6         -0.9430    2.6970   -1.3840 oh        1 UM0     -0.577800
     12 C4          1.3980    2.3580    1.5520 c3        1 UM0      0.114100
     13 O4          0.8130    3.4010    2.3060 oh        1 UM0     -0.575800
     14 C3          1.6670    1.1580    2.4820 c3        1 UM0      0.077100
     15 O3          2.6670    1.5270    3.4290 os        1 UM0     -0.411600
     16 CBN         2.2160    1.6400    4.7820 c3        1 UM0      0.127100
     17 CBQ         3.2630    2.4750    5.4950 c3        1 UM0     -0.113100
     18 CBO         2.1390    0.2060    5.3750 c3        1 UM0      0.700500
     19 OBP         3.1100   -0.6100    5.2500 o         1 UM0     -0.697500
     20 N           1.7620    0.3210    6.9960 n4        1 UM0     -0.896000
     21 CBA         0.5030   -0.4440    7.1870 c3        1 UM0      0.046500
     22 CBB        -0.6080    0.3330    7.8750 c3        1 UM0     -0.120100
     23 C           0.0710   -0.8770    5.7870 c         1 UM0      0.727600
     24 O           0.9400   -0.4470    4.8240 os        1 UM0     -0.525900
     25 OXT        -0.8960   -1.5300    5.4290 o         1 UM0     -0.523500
     26 HO1        -0.6000   -0.8910    0.3510 ho        1 UM0      0.458000
     27 H1          1.7170   -1.0230   -0.2790 h2        1 UM0      0.114700
     28 H2          3.2220    0.3010    1.1780 hx        1 UM0      0.130700
     29 HN2         1.5780   -1.5380    2.8590 hn        1 UM0      0.497300
     30 HBE         2.6110   -4.0750    2.9420 hc        1 UM0      0.112367
     31 HBEA        3.9050   -3.1100    3.7930 hc        1 UM0      0.112367
     32 HBEB        4.3250   -4.1100    2.3230 hc        1 UM0      0.112367
     33 H5         -0.5860    1.6100    0.9770 h1        1 UM0      0.088700
     34 H6          1.0560    3.2560   -1.1090 h1        1 UM0      0.073200
     35 H6A        -0.2210    3.9570    0.0250 h1        1 UM0      0.073200
     36 HO6        -0.6270    1.9980   -1.9720 ho        1 UM0      0.411000
     37 H4          2.3550    2.6950    1.0690 h1        1 UM0      0.073700
     38 HO4         1.5350    3.8390    2.7760 ho        1 UM0      0.419000
     39 H3          0.7040    0.8470    2.9790 h1        1 UM0      0.114700
     40 HBN         1.2020    2.1270    4.8060 h1        1 UM0      0.073700
     41 HBQ         4.1420    1.8430    5.7740 hc        1 UM0      0.067700
     42 HBQA        3.6210    3.2890    4.8170 hc        1 UM0      0.067700
     43 HBQB        2.8280    2.9430    6.4090 hc        1 UM0      0.067700
     44 HN          1.6530    1.2890    7.2710 hn        1 UM0      0.437800
     45 HBA         0.7260   -1.3810    7.7820 hx        1 UM0      0.127700
     46 HBB        -0.3310    0.5660    8.9310 hc        1 UM0      0.078700
     47 HBBA       -1.5310   -0.3020    7.8770 hc        1 UM0      0.078700
     48 HBBB       -0.8400    1.2850    7.3390 hc        1 UM0      0.078700
     49 H22         3.0310   -0.8630    3.3400 hn        1 UM0      0.497300
     50 HN3         2.5340   -0.1060    7.5030 hn        1 UM0      0.437800
@<TRIPOS>BOND
     1    1    2 1   
     2    1   26 1   
     3    2    3 1   
     4    2    8 1   
     5    2   27 1   
     6    3    4 1   
     7    3   14 1   
     8    3   28 1   
     9    4    5 1   
    10    4   29 1   
    11    4   49 1   
    12    5    6 1   
    13    5    7 2   
    14    6   30 1   
    15    6   31 1   
    16    6   32 1   
    17    8    9 1   
    18    9   10 1   
    19    9   12 1   
    20    9   33 1   
    21   10   11 1   
    22   10   34 1   
    23   10   35 1   
    24   11   36 1   
    25   12   13 1   
    26   12   14 1   
    27   12   37 1   
    28   13   38 1   
    29   14   15 1   
    30   14   39 1   
    31   15   16 1   
    32   16   17 1   
    33   16   18 1   
    34   16   40 1   
    35   17   41 1   
    36   17   42 1   
    37   17   43 1   
    38   18   19 1   
    39   18   20 1   
    40   18   24 1   
    41   20   21 1   
    42   20   44 1   
    43   20   50 1   
    44   21   22 1   
    45   21   23 1   
    46   21   45 1   
    47   22   46 1   
    48   22   47 1   
    49   22   48 1   
    50   23   24 1   
    51   23   25 2   
@<TRIPOS>SUBSTRUCTURE
     1 UM0         1 TEMP              0 ****  ****    0 ROOT
