@<TRIPOS>MOLECULE
UM0
   48    48     1     0     0
SMALL
bcc


@<TRIPOS>ATOM
      1 O1          2.5840   -1.3890   -1.7680 oh        1 UM0     -0.612800
      2 C1          2.6680   -1.5080   -0.3700 c3        1 UM0      0.302900
      3 C2          1.4120   -0.8680    0.2950 c3        1 UM0      0.102700
      4 N2          0.2000   -1.5680   -0.0240 n         1 UM0     -0.557900
      5 CBC         0.0040   -2.8750    0.3730 c         1 UM0      0.670100
      6 CBE        -1.3210   -3.5170    0.0550 c3        1 UM0     -0.182100
      7 OBD         0.9220   -3.5120    0.9470 o         1 UM0     -0.686100
      8 O5          3.8730   -0.8510   -0.0100 os        1 UM0     -0.468600
      9 C5          3.9050    0.5500   -0.2880 c3        1 UM0      0.108100
     10 C6          5.2400    1.0560    0.2610 c3        1 UM0      0.139400
     11 O6          6.3350    0.4510   -0.3950 oh        1 UM0     -0.609800
     12 C4          2.7270    1.2550    0.3950 c3        1 UM0      0.113100
     13 O4          2.7890    2.6280    0.0420 oh        1 UM0     -0.612800
     14 C3          1.4000    0.6300   -0.0840 c3        1 UM0      0.097100
     15 O3          0.3750    1.3270    0.6210 os        1 UM0     -0.401600
     16 CBN        -0.7030    1.7690   -0.2100 c3        1 UM0      0.031100
     17 CBQ        -0.3920    3.1310   -0.7950 c3        1 UM0     -0.124100
     18 CBO        -1.9440    1.8330    0.6990 c         1 UM0      0.648100
     19 OBP        -1.8410    1.9530    1.9280 o         1 UM0     -0.559100
     20 N          -3.1950    1.8100    0.0420 n         1 UM0     -0.484900
     21 CBA        -4.0600    0.6900    0.4210 c3        1 UM0     -0.068300
     22 CBB        -5.5000    0.9090   -0.0220 c3        1 UM0     -0.073100
     23 C          -3.5570   -0.6710   -0.1580 c         1 UM0      0.894600
     24 O          -2.5400   -0.6650   -0.9220 o         1 UM0     -0.847800
     25 OXT        -4.1660   -1.7200    0.1780 o         1 UM0     -0.847800
     26 HO1         3.2830   -1.9370   -2.1430 ho        1 UM0      0.404000
     27 H1          2.8060   -2.5710   -0.0190 h2        1 UM0      0.110700
     28 H2          1.5950   -0.9510    1.4120 h1        1 UM0      0.074700
     29 HN2        -0.5660   -1.0590   -0.4210 hn        1 UM0      0.372500
     30 HBE        -1.2480   -3.9970   -0.9510 hc        1 UM0      0.082033
     31 HBEA       -1.5300   -4.3000    0.8210 hc        1 UM0      0.082033
     32 HBEB       -2.1700   -2.7780    0.0320 hc        1 UM0      0.082033
     33 H5          3.8520    0.7040   -1.4010 h1        1 UM0      0.071700
     34 H6          5.3320    2.1550    0.0540 h1        1 UM0      0.055700
     35 H6A         5.2990    0.8620    1.3640 h1        1 UM0      0.055700
     36 HO6         6.2070   -0.5040   -0.3290 ho        1 UM0      0.410000
     37 H4          2.8040    1.1550    1.5130 h1        1 UM0      0.059700
     38 HO4         1.9640    3.0220    0.3610 ho        1 UM0      0.423000
     39 H3          1.3010    0.7470   -1.1980 h1        1 UM0      0.079700
     40 HBN        -0.9000    1.0100   -1.0260 h1        1 UM0      0.106700
     41 HBQ         0.5350    3.0760   -1.4180 hc        1 UM0      0.044033
     42 HBQA       -1.2400    3.4720   -1.4350 hc        1 UM0      0.044033
     43 HBQB       -0.2280    3.8770    0.0190 hc        1 UM0      0.044033
     44 HN         -3.0750    1.7960   -0.9580 hn        1 UM0      0.259500
     45 HBA        -4.0360    0.6030    1.5460 h1        1 UM0      0.074700
     46 HBB        -5.5640    1.0600   -1.1260 hc        1 UM0      0.031033
     47 HBBA       -6.0820   -0.0060    0.2470 hc        1 UM0      0.031033
     48 HBBB       -5.9490    1.7960    0.4860 hc        1 UM0      0.031033
@<TRIPOS>BOND
     1    1    2 1   
     2    1   26 1   
     3    2    3 1   
     4    2    8 1   
     5    2   27 1   
     6    3    4 1   
     7    3   14 1   
     8    3   28 1   
     9    4    5 1   
    10    4   29 1   
    11    5    6 1   
    12    5    7 2   
    13    6   30 1   
    14    6   31 1   
    15    6   32 1   
    16    8    9 1   
    17    9   10 1   
    18    9   12 1   
    19    9   33 1   
    20   10   11 1   
    21   10   34 1   
    22   10   35 1   
    23   11   36 1   
    24   12   13 1   
    25   12   14 1   
    26   12   37 1   
    27   13   38 1   
    28   14   15 1   
    29   14   39 1   
    30   15   16 1   
    31   16   17 1   
    32   16   18 1   
    33   16   40 1   
    34   17   41 1   
    35   17   42 1   
    36   17   43 1   
    37   18   19 2   
    38   18   20 1   
    39   20   21 1   
    40   20   44 1   
    41   21   22 1   
    42   21   23 1   
    43   21   45 1   
    44   22   46 1   
    45   22   47 1   
    46   22   48 1   
    47   23   24 1   
    48   23   25 1   
@<TRIPOS>SUBSTRUCTURE
     1 UM0         1 TEMP              0 ****  ****    0 ROOT
