@<TRIPOS>MOLECULE
UM0
   50    51     1     0     0
SMALL
bcc


@<TRIPOS>ATOM
      1 O1          0.0740   -0.8420    1.0430 oh        1 UM0     -0.647800
      2 C1          1.2480   -0.3180    0.4740 c3        1 UM0      0.330900
      3 C2          2.2330   -0.0060    1.6350 c3        1 UM0      0.099500
      4 N2          2.4850   -1.1920    2.5080 n4        1 UM0     -0.681800
      5 CBC         3.2450   -2.3220    1.8760 c         1 UM0      0.561100
      6 CBE         3.5360   -3.4640    2.7920 c3        1 UM0     -0.190100
      7 OBD         3.5580   -2.2140    0.6990 o         1 UM0     -0.434100
      8 O5          0.9060    0.8270   -0.2620 os        1 UM0     -0.428600
      9 C5          0.3770    1.9270    0.4910 c3        1 UM0      0.092100
     10 C6          0.1200    3.0440   -0.5280 c3        1 UM0      0.142400
     11 O6         -0.9440    2.7020   -1.3810 oh        1 UM0     -0.577800
     12 C4          1.3970    2.3590    1.5530 c3        1 UM0      0.114100
     13 O4          0.8140    3.4020    2.3080 oh        1 UM0     -0.575800
     14 C3          1.6670    1.1590    2.4820 c3        1 UM0      0.077100
     15 O3          2.6680    1.5270    3.4290 os        1 UM0     -0.411600
     16 CBN         2.2170    1.6400    4.7820 c3        1 UM0      0.127100
     17 CBQ         3.2650    2.4730    5.4960 c3        1 UM0     -0.113100
     18 CBO         2.1390    0.2050    5.3750 c3        1 UM0      0.700500
     19 OBP         3.1100   -0.6120    5.2490 o         1 UM0     -0.697500
     20 N           1.7640    0.3200    6.9960 n4        1 UM0     -0.896000
     21 CBA         0.5050   -0.4450    7.1880 c3        1 UM0      0.046500
     22 CBB        -0.6050    0.3310    7.8770 c3        1 UM0     -0.120100
     23 C           0.0720   -0.8770    5.7880 c         1 UM0      0.727600
     24 O           0.9400   -0.4470    4.8240 os        1 UM0     -0.525900
     25 OXT        -0.8950   -1.5290    5.4300 o         1 UM0     -0.523500
     26 HO1        -0.6030   -0.8870    0.3520 ho        1 UM0      0.458000
     27 H1          1.7140   -1.0210   -0.2790 h2        1 UM0      0.114700
     28 H2          3.2200    0.3020    1.1780 hx        1 UM0      0.130700
     29 HN2         1.5760   -1.5380    2.8590 hn        1 UM0      0.497300
     30 HBE         3.9020   -3.1110    3.7910 hc        1 UM0      0.112700
     31 HBEA        4.3220   -4.1100    2.3200 hc        1 UM0      0.112700
     32 HBEB        2.6080   -4.0750    2.9390 hc        1 UM0      0.112700
     33 H5         -0.5870    1.6130    0.9790 h1        1 UM0      0.088700
     34 H6          1.0560    3.2590   -1.1070 h1        1 UM0      0.073200
     35 H6A        -0.2210    3.9600    0.0280 h1        1 UM0      0.073200
     36 HO6        -0.6290    2.0030   -1.9690 ho        1 UM0      0.411000
     37 H4          2.3550    2.6960    1.0700 h1        1 UM0      0.073700
     38 HO4         1.5360    3.8400    2.7780 ho        1 UM0      0.419000
     39 H3          0.7040    0.8480    2.9800 h1        1 UM0      0.114700
     40 HBN         1.2040    2.1270    4.8080 h1        1 UM0      0.073700
     41 HBQ         3.6230    3.2870    4.8170 hc        1 UM0      0.067700
     42 HBQA        2.8310    2.9420    6.4100 hc        1 UM0      0.067700
     43 HBQB        4.1440    1.8410    5.7740 hc        1 UM0      0.067700
     44 HN          1.6560    1.2880    7.2720 hn        1 UM0      0.437800
     45 HBA         0.7280   -1.3830    7.7820 hx        1 UM0      0.127700
     46 HBB        -0.3270    0.5640    8.9330 hc        1 UM0      0.078700
     47 HBBA       -1.5280   -0.3030    7.8800 hc        1 UM0      0.078700
     48 HBBB       -0.8370    1.2840    7.3420 hc        1 UM0      0.078700
     49 H22         3.0300   -0.8630    3.3390 hn        1 UM0      0.497300
     50 HN3         2.5360   -0.1080    7.5020 hn        1 UM0      0.437800
@<TRIPOS>BOND
     1    1    2 1   
     2    1   26 1   
     3    2    3 1   
     4    2    8 1   
     5    2   27 1   
     6    3    4 1   
     7    3   14 1   
     8    3   28 1   
     9    4    5 1   
    10    4   29 1   
    11    4   49 1   
    12    5    6 1   
    13    5    7 2   
    14    6   30 1   
    15    6   31 1   
    16    6   32 1   
    17    8    9 1   
    18    9   10 1   
    19    9   12 1   
    20    9   33 1   
    21   10   11 1   
    22   10   34 1   
    23   10   35 1   
    24   11   36 1   
    25   12   13 1   
    26   12   14 1   
    27   12   37 1   
    28   13   38 1   
    29   14   15 1   
    30   14   39 1   
    31   15   16 1   
    32   16   17 1   
    33   16   18 1   
    34   16   40 1   
    35   17   41 1   
    36   17   42 1   
    37   17   43 1   
    38   18   19 1   
    39   18   20 1   
    40   18   24 1   
    41   20   21 1   
    42   20   44 1   
    43   20   50 1   
    44   21   22 1   
    45   21   23 1   
    46   21   45 1   
    47   22   46 1   
    48   22   47 1   
    49   22   48 1   
    50   23   24 1   
    51   23   25 2   
@<TRIPOS>SUBSTRUCTURE
     1 UM0         1 TEMP              0 ****  ****    0 ROOT
