@<TRIPOS>MOLECULE
UM0
   50    50     1     0     0
SMALL
bcc


@<TRIPOS>ATOM
      1 O1          0.1090   -0.9000    0.9240 oh        1 UM0     -0.636800
      2 C1          1.4000   -0.4410    0.6150 c3        1 UM0      0.326900
      3 C2          2.1470   -0.1720    1.9510 c3        1 UM0      0.116500
      4 N2          2.1630   -1.3840    2.8200 ny        1 UM0     -0.676800
      5 CBC         2.8220   -2.6040    2.2380 c         1 UM0      0.573100
      6 CBE         2.5590   -3.8700    2.9810 c3        1 UM0     -0.195100
      7 OBD         3.5080   -2.4500    1.2350 o         1 UM0     -0.457100
      8 O5          1.2720    0.7190   -0.1660 os        1 UM0     -0.424600
      9 C5          0.6100    1.8140    0.4720 c3        1 UM0      0.057100
     10 C6          0.5980    2.9310   -0.5830 c3        1 UM0      0.139400
     11 O6         -0.1930    2.5570   -1.6850 oh        1 UM0     -0.573800
     12 C4          1.3680    2.2250    1.7410 c3        1 UM0      0.096100
     13 O4          0.6360    3.2030    2.4650 oh        1 UM0     -0.613800
     14 C3          1.5040    1.0250    2.7000 c3        1 UM0      0.131100
     15 O3          2.4180    1.3180    3.7690 os        1 UM0     -0.422600
     16 CBN         1.9670    2.2960    4.7040 c3        1 UM0      0.116100
     17 CBQ         2.8260    3.5440    4.5720 c3        1 UM0     -0.118100
     18 CBO         2.2010    1.7120    6.1080 c         1 UM0      0.526100
     19 OBP         3.2460    1.7500    6.7380 o         1 UM0     -0.401100
     20 N           1.0230    1.0690    6.7880 ny        1 UM0     -0.670800
     21 CBA         1.2840   -0.3940    7.0690 c3        1 UM0      0.014500
     22 CBB         0.2580   -0.9770    8.0180 c3        1 UM0     -0.120100
     23 C           1.2500   -1.1500    5.7150 c         1 UM0      0.906600
     24 O           0.4170   -0.7580    4.8420 o         1 UM0     -0.821300
     25 OXT         2.1050   -2.0460    5.5050 o         1 UM0     -0.821300
     26 HO1        -0.3870   -0.9830    0.0960 ho        1 UM0      0.455000
     27 H1          1.9780   -1.1640   -0.0340 h2        1 UM0      0.117700
     28 H2          3.2190    0.0850    1.6920 hx        1 UM0      0.130700
     29 HN2         1.1840   -1.6110    3.1090 hn        1 UM0      0.503800
     30 HBE         2.6000   -3.7160    4.0940 hc        1 UM0      0.120367
     31 HBEA        3.3260   -4.6280    2.6790 hc        1 UM0      0.120367
     32 HBEB        1.5400   -4.2520    2.7130 hc        1 UM0      0.120367
     33 H5         -0.4430    1.5120    0.7340 h1        1 UM0      0.092700
     34 H6          1.6470    3.1720   -0.8970 h1        1 UM0      0.062200
     35 H6A         0.0940    3.8430   -0.1640 h1        1 UM0      0.062200
     36 HO6         0.2770    1.8520   -2.1520 ho        1 UM0      0.419000
     37 H4          2.3880    2.6260    1.4820 h1        1 UM0      0.073700
     38 HO4         0.4650    3.9430    1.8670 ho        1 UM0      0.433000
     39 H3          0.4940    0.7460    3.1200 h1        1 UM0      0.126700
     40 HBN         0.8770    2.5400    4.5530 h1        1 UM0      0.107700
     41 HBQ         3.9090    3.2870    4.6640 hc        1 UM0      0.075033
     42 HBQA        2.5540    4.2820    5.3630 hc        1 UM0      0.075033
     43 HBQB        2.6410    3.9960    3.5670 hc        1 UM0      0.075033
     44 HN          0.8170    1.5490    7.6680 hn        1 UM0      0.462300
     45 HBA         2.3200   -0.4720    7.5150 hx        1 UM0      0.124700
     46 HBB         0.5240   -2.0540    8.1810 hc        1 UM0      0.075700
     47 HBBA       -0.7710   -0.9360    7.5830 hc        1 UM0      0.075700
     48 HBBB        0.2660   -0.4580    9.0070 hc        1 UM0      0.075700
     49 H22         2.6580   -1.1550    3.7060 hn        1 UM0      0.503800
     50 HN3         0.2010    1.1080    6.1640 hn        1 UM0      0.462300
@<TRIPOS>BOND
     1    1    2 1   
     2    1   26 1   
     3    2    3 1   
     4    2    8 1   
     5    2   27 1   
     6    3    4 1   
     7    3   14 1   
     8    3   28 1   
     9    4    5 1   
    10    4   29 1   
    11    4   49 1   
    12    5    6 1   
    13    5    7 2   
    14    6   30 1   
    15    6   31 1   
    16    6   32 1   
    17    8    9 1   
    18    9   10 1   
    19    9   12 1   
    20    9   33 1   
    21   10   11 1   
    22   10   34 1   
    23   10   35 1   
    24   11   36 1   
    25   12   13 1   
    26   12   14 1   
    27   12   37 1   
    28   13   38 1   
    29   14   15 1   
    30   14   39 1   
    31   15   16 1   
    32   16   17 1   
    33   16   18 1   
    34   16   40 1   
    35   17   41 1   
    36   17   42 1   
    37   17   43 1   
    38   18   19 2   
    39   18   20 1   
    40   20   21 1   
    41   20   44 1   
    42   20   50 1   
    43   21   22 1   
    44   21   23 1   
    45   21   45 1   
    46   22   46 1   
    47   22   47 1   
    48   22   48 1   
    49   23   24 1   
    50   23   25 1   
@<TRIPOS>SUBSTRUCTURE
     1 UM0         1 TEMP              0 ****  ****    0 ROOT
