@<TRIPOS>MOLECULE
UM1
   29    28     1     0     0
SMALL
bcc


@<TRIPOS>ATOM
      1 NCF         5.6950   -0.6920   -0.4050 n3        1 UM1     -0.886800
      2 CCG         4.5110   -0.7460    0.4090 c3        1 UM1      0.078800
      3 CCR         3.3400    0.1320   -0.0700 c         1 UM1      0.607100
      4 OCS         3.4510    0.8320   -1.1010 o         1 UM1     -0.636100
      5 NCT         2.2160    0.1490    0.7230 n         1 UM1     -0.532900
      6 CCU         0.9690    0.7400    0.2840 c3        1 UM1      0.011700
      7 CCV         0.5740    1.9630    1.1130 c3        1 UM1     -0.103100
      8 CCW        -0.2020   -0.2850    0.3810 c         1 UM1      0.623100
      9 OCX        -0.0820   -1.2980    1.1110 o         1 UM1     -0.665100
     10 NCY        -1.2920   -0.0300   -0.3980 n         1 UM1     -0.497900
     11 CCZ        -2.5770   -0.6750   -0.1890 c3        1 UM1     -0.057300
     12 CDA        -2.8770   -1.7410   -1.2360 c3        1 UM1     -0.077100
     13 CDB        -3.7560    0.3690   -0.1950 c         1 UM1      0.910600
     14 ODC        -3.5030    1.5600   -0.5340 o         1 UM1     -0.830800
     15 ODB        -4.8840   -0.0670    0.1500 o         1 UM1     -0.830800
     16 HNCF        5.4890   -1.0050   -1.3360 hn        1 UM1      0.353300
     17 HNCA        6.0280    0.2530   -0.4690 hn        1 UM1      0.353300
     18 HCG         4.1550   -1.8140    0.4480 h1        1 UM1      0.071200
     19 HCGA        4.7880   -0.4280    1.4540 h1        1 UM1      0.071200
     20 HNCT        2.1190   -0.5570    1.4210 hn        1 UM1      0.323500
     21 HCU         1.0960    1.0640   -0.7940 h1        1 UM1      0.092700
     22 HCV         0.4000    1.6820    2.1790 hc        1 UM1      0.049367
     23 HCVA        1.3750    2.7380    1.0710 hc        1 UM1      0.049367
     24 HCVB       -0.3690    2.3970    0.7000 hc        1 UM1      0.049367
     25 HNCY       -1.3780    0.8850   -0.8000 hn        1 UM1      0.326500
     26 HCZ        -2.5730   -1.1690    0.8270 h1        1 UM1      0.062700
     27 HDA        -2.1480   -2.5840   -1.1780 hc        1 UM1      0.028033
     28 HDAA       -3.9060   -2.1280   -1.0390 hc        1 UM1      0.028033
     29 HDAB       -2.8480   -1.3130   -2.2660 hc        1 UM1      0.028033
@<TRIPOS>BOND
     1    1    2 1   
     2    1   16 1   
     3    1   17 1   
     4    2    3 1   
     5    2   18 1   
     6    2   19 1   
     7    3    4 2   
     8    3    5 1   
     9    5    6 1   
    10    5   20 1   
    11    6    7 1   
    12    6    8 1   
    13    6   21 1   
    14    7   22 1   
    15    7   23 1   
    16    7   24 1   
    17    8    9 2   
    18    8   10 1   
    19   10   11 1   
    20   10   25 1   
    21   11   12 1   
    22   11   13 1   
    23   11   26 1   
    24   12   27 1   
    25   12   28 1   
    26   12   29 1   
    27   13   14 1   
    28   13   15 1   
@<TRIPOS>SUBSTRUCTURE
     1 UM1         1 TEMP              0 ****  ****    0 ROOT
