@<TRIPOS>MOLECULE
UM2
   26    25     1     0     0
SMALL
bcc


@<TRIPOS>ATOM
      1 CCH         4.7440   -0.1180    0.6470 c3        1 UM2     -0.093100
      2 CCI         3.5830    0.3380   -0.1980 c3        1 UM2     -0.078400
      3 CCJ         2.3010   -0.3620    0.2010 c3        1 UM2     -0.103400
      4 CCK         1.1460    0.1240   -0.6760 c3        1 UM2      0.085000
      5 NCL        -0.1120   -0.5160   -0.4050 n         1 UM2     -0.564900
      6 CCM        -1.2020    0.1560    0.1010 c         1 UM2      0.610100
      7 OCN        -1.1890    1.3920    0.2730 o         1 UM2     -0.621100
      8 CCO        -2.4660   -0.6810    0.4320 c3        1 UM2      0.105500
      9 CCP        -3.0400   -1.2190   -0.8770 c3        1 UM2     -0.094100
     10 NCQ        -3.4460    0.0420    1.2130 n3        1 UM2     -0.883800
     11 HCH         5.6780    0.4100    0.3380 hc        1 UM2      0.034700
     12 HCHA        4.5560    0.0990    1.7260 hc        1 UM2      0.034700
     13 HCHB        4.9060   -1.2180    0.5350 hc        1 UM2      0.034700
     14 HCI         3.4510    1.4470   -0.0900 hc        1 UM2      0.042700
     15 HCIA        3.8010    0.1340   -1.2800 hc        1 UM2      0.042700
     16 HCJ         2.4300   -1.4710    0.0930 hc        1 UM2      0.043700
     17 HCJA        2.0790   -0.1540    1.2800 hc        1 UM2      0.043700
     18 HCK         1.0230    1.2380   -0.5400 h1        1 UM2      0.061700
     19 HCKA        1.4100   -0.0680   -1.7570 h1        1 UM2      0.061700
     20 HNCL       -0.1340   -1.5060   -0.4420 hn        1 UM2      0.306500
     21 HCO        -2.1360   -1.5570    1.0700 h1        1 UM2      0.068700
     22 HCP        -2.3090   -1.9110   -1.3570 hc        1 UM2      0.048367
     23 HCPA       -3.9850   -1.7830   -0.6820 hc        1 UM2      0.048367
     24 HCPB       -3.2630   -0.3850   -1.5850 hc        1 UM2      0.048367
     25 HNCQ       -3.0020    0.4790    1.9980 hn        1 UM2      0.359800
     26 HNCA       -3.8780    0.7550    0.6570 hn        1 UM2      0.359800
@<TRIPOS>BOND
     1    1    2 1   
     2    1   11 1   
     3    1   12 1   
     4    1   13 1   
     5    2    3 1   
     6    2   14 1   
     7    2   15 1   
     8    3    4 1   
     9    3   16 1   
    10    3   17 1   
    11    4    5 1   
    12    4   18 1   
    13    4   19 1   
    14    5    6 1   
    15    5   20 1   
    16    6    7 2   
    17    6    8 1   
    18    8    9 1   
    19    8   10 1   
    20    8   21 1   
    21    9   22 1   
    22    9   23 1   
    23    9   24 1   
    24   10   25 1   
    25   10   26 1   
@<TRIPOS>SUBSTRUCTURE
     1 UM2         1 TEMP              0 ****  ****    0 ROOT
