@<TRIPOS>MOLECULE
UM3
   31    32     1     0     0
SMALL
bcc


@<TRIPOS>ATOM
      1 N1          0.1710    0.2530    0.0460 n         1 UM3     -0.352000
      2 C2          1.5030   -0.1820    0.2780 c         1 UM3      0.802500
      3 N3          1.8790   -0.5210    1.6030 ns        1 UM3     -0.600500
      4 C4          0.9890   -0.5130    2.6810 c         1 UM3      0.721700
      5 C5         -0.3800   -0.1120    2.3730 cc        1 UM3     -0.386200
      6 C6         -0.7250    0.2160    1.0940 cd        1 UM3      0.083600
      7 O2          2.3810   -0.2520   -0.6030 o         1 UM3     -0.603500
      8 O4          1.4010   -0.8410    3.8150 o         1 UM3     -0.683500
      9 C1'        -0.3600    0.4800   -1.3210 c3        1 UM3      0.313500
     10 C2'         0.4640    1.3910   -2.2370 c3        1 UM3     -0.143400
     11 C3'         0.3120    0.7680   -3.6500 c3        1 UM3      0.239100
     12 C4'        -0.1280   -0.6980   -3.3450 c3        1 UM3      0.060100
     13 O3'        -0.6280    1.4260   -4.3820 os        1 UM3     -0.547200
     14 O4'        -0.5500   -0.7780   -1.9640 os        1 UM3     -0.456600
     15 C5'         0.9910   -1.7080   -3.5820 c3        1 UM3      0.153400
     16 O5'         1.0490   -2.1220   -4.9260 oh        1 UM3     -0.672800
     17 P          -0.0770    1.7590   -6.0220 p5        1 UM3      1.324900
     18 O1P         0.4550    0.3780   -6.3320 o         1 UM3     -0.924833
     19 O2P        -1.3320    2.1880   -6.7160 o         1 UM3     -0.924833
     20 O3P         0.9740    2.7960   -5.7600 o         1 UM3     -0.924833
     21 HN3         2.8200   -0.8150    1.7370 hn        1 UM3      0.333500
     22 H5         -1.0970   -0.0960    3.1980 ha        1 UM3      0.156000
     23 H6         -1.7670    0.4970    0.8420 h4        1 UM3      0.160000
     24 H1'        -1.3930    0.9190   -1.1630 h2        1 UM3      0.051700
     25 H2'1        1.5410    1.4240   -1.9510 hc        1 UM3      0.065700
     26 H2'2        0.0460    2.4250   -2.2330 hc        1 UM3      0.065700
     27 H3'         1.3110    0.7600   -4.1760 h1        1 UM3      0.075700
     28 H4'        -1.0350   -0.9640   -3.9510 h1        1 UM3      0.091700
     29 H5'1        1.9780   -1.2720   -3.2690 h1        1 UM3      0.009700
     30 H5'2        0.8050   -2.6410   -2.9840 h1        1 UM3      0.009700
     31 HO5'        0.9190   -1.3290   -5.4990 ho        1 UM3      0.503000
@<TRIPOS>BOND
     1    1    2 1   
     2    1    6 1   
     3    1    9 1   
     4    2    3 1   
     5    2    7 2   
     6    3    4 1   
     7    3   21 1   
     8    4    5 1   
     9    4    8 2   
    10    5    6 2   
    11    5   22 1   
    12    6   23 1   
    13    9   10 1   
    14    9   14 1   
    15    9   24 1   
    16   10   11 1   
    17   10   25 1   
    18   10   26 1   
    19   11   12 1   
    20   11   13 1   
    21   11   27 1   
    22   12   14 1   
    23   12   15 1   
    24   12   28 1   
    25   13   17 1   
    26   15   16 1   
    27   15   29 1   
    28   15   30 1   
    29   16   31 1   
    30   17   18 1   
    31   17   19 1   
    32   17   20 1   
@<TRIPOS>SUBSTRUCTURE
     1 UM3         1 TEMP              0 ****  ****    0 ROOT
