@<TRIPOS>MOLECULE
UM3
   31    32     1     0     0
SMALL
bcc


@<TRIPOS>ATOM
      1 N1          0.1730    0.2480    0.0470 n         1 UM3     -0.352000
      2 C2          1.5280   -0.1120    0.2720 c         1 UM3      0.802500
      3 N3          1.9300   -0.4240    1.5960 n         1 UM3     -0.600500
      4 C4          1.0460   -0.4600    2.6800 c         1 UM3      0.721700
      5 C5         -0.3440   -0.1350    2.3780 cc        1 UM3     -0.386200
      6 C6         -0.7140    0.1680    1.1000 cd        1 UM3      0.083600
      7 O2          2.4040   -0.1380   -0.6130 o         1 UM3     -0.603500
      8 O4          1.4820   -0.7590    3.8130 o         1 UM3     -0.683500
      9 C1'        -0.3770    0.4400   -1.3190 c3        1 UM3      0.313500
     10 C2'         0.3900    1.3910   -2.2430 c3        1 UM3     -0.143400
     11 C3'         0.2650    0.7540   -3.6520 c3        1 UM3      0.239100
     12 C4'        -0.0910   -0.7320   -3.3390 c3        1 UM3      0.060100
     13 O3'        -0.7140    1.3560   -4.3820 os        1 UM3     -0.547200
     14 O4'        -0.5020   -0.8290   -1.9550 os        1 UM3     -0.456600
     15 C5'         1.0800   -1.6800   -3.5780 c3        1 UM3      0.153400
     16 O5'         1.1530   -2.0960   -4.9200 oh        1 UM3     -0.672800
     17 P          -0.1910    1.7120   -6.0260 p5        1 UM3      1.324900
     18 O1P         0.4150    0.3610   -6.3340 o         1 UM3     -0.924833
     19 O2P        -1.4710    2.0680   -6.7150 o         1 UM3     -0.924833
     20 O3P         0.8030    2.8070   -5.7750 o         1 UM3     -0.924833
     21 HN3         2.8860   -0.6650    1.7270 hn        1 UM3      0.333500
     22 H5         -1.0560   -0.1550    3.2070 ha        1 UM3      0.156000
     23 H6         -1.7710    0.3900    0.8520 h4        1 UM3      0.160000
     24 H1'        -1.4320    0.8230   -1.1560 h2        1 UM3      0.051700
     25 H2'1       -0.0840    2.4010   -2.2410 hc        1 UM3      0.065700
     26 H2'2        1.4650    1.4840   -1.9630 hc        1 UM3      0.065700
     27 H3'         1.2600    0.7990   -4.1840 h1        1 UM3      0.075700
     28 H4'        -0.9860   -1.0510   -3.9380 h1        1 UM3      0.091700
     29 H5'1        2.0430   -1.1890   -3.2720 h1        1 UM3      0.009700
     30 H5'2        0.9490   -2.6200   -2.9750 h1        1 UM3      0.009700
     31 HO5'        0.9780   -1.3140   -5.4950 ho        1 UM3      0.503000
@<TRIPOS>BOND
     1    1    2 1   
     2    1    6 1   
     3    1    9 1   
     4    2    3 1   
     5    2    7 2   
     6    3    4 1   
     7    3   21 1   
     8    4    5 1   
     9    4    8 2   
    10    5    6 2   
    11    5   22 1   
    12    6   23 1   
    13    9   10 1   
    14    9   14 1   
    15    9   24 1   
    16   10   11 1   
    17   10   25 1   
    18   10   26 1   
    19   11   12 1   
    20   11   13 1   
    21   11   27 1   
    22   12   14 1   
    23   12   15 1   
    24   12   28 1   
    25   13   17 1   
    26   15   16 1   
    27   15   29 1   
    28   15   30 1   
    29   16   31 1   
    30   17   18 1   
    31   17   19 1   
    32   17   20 1   
@<TRIPOS>SUBSTRUCTURE
     1 UM3         1 TEMP              0 ****  ****    0 ROOT
