@<TRIPOS>MOLECULE
UM3
   31    32     1     0     0
SMALL
bcc


@<TRIPOS>ATOM
      1 N1         -0.1010    0.5800   -2.2480 n         1 UM3     -0.352000
      2 C2         -0.4050   -0.7790   -2.5300 c         1 UM3      0.802500
      3 N3         -0.5640   -1.1640   -3.8860 n         1 UM3     -0.600500
      4 C4         -0.3740   -0.2910   -4.9620 c         1 UM3      0.721700
      5 C5         -0.0090    1.0780   -4.6120 cc        1 UM3     -0.386200
      6 C6          0.1360    1.4340   -3.3030 cd        1 UM3      0.083600
      7 O2         -0.5770   -1.6550   -1.6620 o         1 UM3     -0.603500
      8 O4         -0.5210   -0.7180   -6.1280 o         1 UM3     -0.683500
      9 C1'         0.2360    1.0460   -0.8790 c3        1 UM3      0.313500
     10 C2'        -0.7450    0.6720    0.2370 c3        1 UM3     -0.143400
     11 C3'         0.1530    0.4040    1.4740 c3        1 UM3      0.239100
     12 C4'         1.5530    0.1320    0.8440 c3        1 UM3      0.060100
     13 O3'         0.1830    1.4820    2.3060 os        1 UM3     -0.547200
     14 O4'         1.5370    0.5770   -0.5330 os        1 UM3     -0.456600
     15 C5'         1.9400   -1.3430    0.8860 c3        1 UM3      0.153400
     16 O5'         2.5440   -1.6930    2.1070 oh        1 UM3     -0.672800
     17 P          -0.0250    1.0230    3.9930 p5        1 UM3      1.324900
     18 O1P         0.9720   -0.1150    4.0090 o         1 UM3     -0.924833
     19 O2P         0.3420    2.2730    4.7280 o         1 UM3     -0.924833
     20 O3P        -1.4640    0.6000    3.9950 o         1 UM3     -0.924833
     21 HN3        -0.7840   -2.1200   -4.0550 hn        1 UM3      0.333500
     22 H5          0.1460    1.7820   -5.4340 ha        1 UM3      0.156000
     23 H6          0.4390    2.4640   -3.0250 h4        1 UM3      0.160000
     24 H1'         0.3140    2.1740   -0.9670 h2        1 UM3      0.051700
     25 H2'1       -1.4350    1.5230    0.4480 hc        1 UM3      0.065700
     26 H2'2       -1.3400   -0.2390   -0.0040 hc        1 UM3      0.065700
     27 H3'        -0.2040   -0.5210    2.0140 h1        1 UM3      0.075700
     28 H4'         2.3350    0.7600    1.3500 h1        1 UM3      0.091700
     29 H5'1        2.7050   -1.5670    0.0930 h1        1 UM3      0.009700
     30 H5'2        1.0360   -1.9850    0.7030 h1        1 UM3      0.009700
     31 HO5'        2.0430   -1.2540    2.8360 ho        1 UM3      0.503000
@<TRIPOS>BOND
     1    1    2 1   
     2    1    6 1   
     3    1    9 1   
     4    2    3 1   
     5    2    7 2   
     6    3    4 1   
     7    3   21 1   
     8    4    5 1   
     9    4    8 2   
    10    5    6 2   
    11    5   22 1   
    12    6   23 1   
    13    9   10 1   
    14    9   14 1   
    15    9   24 1   
    16   10   11 1   
    17   10   25 1   
    18   10   26 1   
    19   11   12 1   
    20   11   13 1   
    21   11   27 1   
    22   12   14 1   
    23   12   15 1   
    24   12   28 1   
    25   13   17 1   
    26   15   16 1   
    27   15   29 1   
    28   15   30 1   
    29   16   31 1   
    30   17   18 1   
    31   17   19 1   
    32   17   20 1   
@<TRIPOS>SUBSTRUCTURE
     1 UM3         1 TEMP              0 ****  ****    0 ROOT
