@<TRIPOS>MOLECULE
UMC
   33    34     1     0     0
SMALL
bcc


@<TRIPOS>ATOM
      1 P           2.3470   -0.9110    0.1810 p5        1 UMC      1.338900
      2 N1         -2.7600    0.8980   -0.4930 n         1 UMC     -0.453800
      3 C2         -3.4830    0.8750    0.7140 c         1 UMC      0.808500
      4 O2         -3.9910    1.9080    1.2210 o         1 UMC     -0.701500
      5 N3         -3.7580   -0.3610    1.3430 n         1 UMC     -0.618500
      6 C4         -3.1120   -1.5560    0.9970 c         1 UMC      0.725500
      7 O4         -3.4310   -2.5860    1.6220 o         1 UMC     -0.665500
      8 C5         -2.1060   -1.4980   -0.1150 c3        1 UMC     -0.226400
      9 C6         -2.4480   -0.3820   -1.0960 c3        1 UMC      0.076000
     10 C1'        -1.8660    2.0580   -0.6850 c3        1 UMC      0.310500
     11 O1P         0.9590   -1.4890    0.3560 o         1 UMC     -0.926500
     12 C2'        -1.0150    2.4470    0.5420 c3        1 UMC     -0.127400
     13 O2P         2.6080    0.2410    1.1220 o         1 UMC     -0.926500
     14 C3'         0.3680    1.8670    0.2470 c3        1 UMC      0.122100
     15 O3'         1.3670    2.7660    0.6700 oh        1 UMC     -0.660800
     16 O3P         3.4530   -1.8670   -0.1300 o         1 UMC     -0.926500
     17 C4'         0.3970    1.6700   -1.2830 c3        1 UMC      0.061100
     18 O4'        -0.9610    1.8510   -1.7690 os        1 UMC     -0.446600
     19 C5'         0.9030    0.2720   -1.7080 c3        1 UMC      0.209400
     20 O5'         2.1750    0.0230   -1.2790 os        1 UMC     -0.563200
     21 H6         -3.3660   -0.6840   -1.6840 h1        1 UMC      0.060700
     22 H2'        -0.9670    3.5620    0.6140 hc        1 UMC      0.053200
     23 H5'         0.1930   -0.5110   -1.3150 h1        1 UMC     -0.001800
     24 H2'A       -1.4250    2.0550    1.5020 hc        1 UMC      0.053200
     25 H5'A        0.8770    0.2530   -2.8380 h1        1 UMC     -0.001800
     26 H1'        -2.5480    2.8980   -1.0080 h2        1 UMC      0.054700
     27 H3'         0.5320    0.8570    0.7450 h1        1 UMC      0.140700
     28 HO3'        2.1320    2.1970    0.9120 ho        1 UMC      0.485000
     29 H4'         0.9990    2.4760   -1.7780 h1        1 UMC      0.048700
     30 H5         -1.0450   -1.3660    0.3180 hc        1 UMC      0.160700
     31 H5A        -2.0860   -2.4810   -0.6500 hc        1 UMC      0.160700
     32 HN3        -4.3450   -0.3340    2.1450 hn        1 UMC      0.317500
     33 H6A        -1.6010   -0.2560   -1.8300 h1        1 UMC      0.060700
@<TRIPOS>BOND
     1    1   11 1   
     2    1   13 1   
     3    1   16 1   
     4    1   20 1   
     5    2    3 1   
     6    2    9 1   
     7    2   10 1   
     8    3    4 2   
     9    3    5 1   
    10    5    6 1   
    11    5   32 1   
    12    6    7 2   
    13    6    8 1   
    14    8    9 1   
    15    8   30 1   
    16    8   31 1   
    17    9   21 1   
    18    9   33 1   
    19   10   12 1   
    20   10   18 1   
    21   10   26 1   
    22   12   14 1   
    23   12   22 1   
    24   12   24 1   
    25   14   15 1   
    26   14   17 1   
    27   14   27 1   
    28   15   28 1   
    29   17   18 1   
    30   17   19 1   
    31   17   29 1   
    32   19   20 1   
    33   19   23 1   
    34   19   25 1   
@<TRIPOS>SUBSTRUCTURE
     1 UMC         1 TEMP              0 ****  ****    0 ROOT
