@<TRIPOS>MOLECULE
UMC
   33    34     1     0     0
SMALL
bcc


@<TRIPOS>ATOM
      1 P           0.5680   -1.3450   -0.7520 p5        1 UMC      1.338900
      2 N1          0.3920   -5.9620   -3.6600 n         1 UMC     -0.453800
      3 C2          1.3690   -6.8820   -3.2350 c         1 UMC      0.808500
      4 O2          1.0820   -8.0300   -2.8110 o         1 UMC     -0.701500
      5 N3          2.7400   -6.5680   -3.3840 n         1 UMC     -0.618500
      6 C4          3.2020   -5.2750   -3.6680 c         1 UMC      0.725500
      7 O4          4.4330   -5.1130   -3.7730 o         1 UMC     -0.665500
      8 C5          2.1720   -4.1980   -3.8420 c3        1 UMC     -0.226400
      9 C6          0.8610   -4.7820   -4.3580 c3        1 UMC      0.076000
     10 C1'        -0.8440   -5.9170   -2.8530 c3        1 UMC      0.310500
     11 O1P         1.5190   -2.0910   -1.6630 o         1 UMC     -0.926500
     12 C2'        -0.6350   -5.9210   -1.3240 c3        1 UMC     -0.127400
     13 O2P         0.2250   -2.1380    0.4870 o         1 UMC     -0.926500
     14 C3'        -0.8140   -4.4600   -0.9110 c3        1 UMC      0.122100
     15 O3'        -1.5150   -4.3870    0.3090 oh        1 UMC     -0.660800
     16 O3P         0.7370    0.1360   -0.6490 o         1 UMC     -0.926500
     17 C4'        -1.6170   -3.8190   -2.0620 c3        1 UMC      0.061100
     18 O4'        -1.6330   -4.7690   -3.1620 os        1 UMC     -0.446600
     19 C5'        -1.0120   -2.4850   -2.5570 c3        1 UMC      0.209400
     20 O5'        -0.9560   -1.5380   -1.5740 os        1 UMC     -0.563200
     21 H6          1.0000   -5.0900   -5.4370 h1        1 UMC      0.060700
     22 H2'         0.3640   -6.3110   -1.0190 hc        1 UMC      0.053200
     23 H5'        -1.6830   -2.1200   -3.3910 h1        1 UMC     -0.001800
     24 H2'A       -1.4180   -6.5620   -0.8500 hc        1 UMC      0.053200
     25 H5'A        0.0160   -2.6800   -2.9780 h1        1 UMC     -0.001800
     26 H1'        -1.4460   -6.8090   -3.1980 h2        1 UMC      0.054700
     27 H3'         0.1780   -3.9100   -0.8110 h1        1 UMC      0.140700
     28 HO3'       -1.1850   -3.5670    0.7410 ho        1 UMC      0.485000
     29 H4'        -2.6910   -3.6830   -1.7720 h1        1 UMC      0.048700
     30 H5          2.5540   -3.4300   -4.5610 hc        1 UMC      0.160700
     31 H5A         2.0170   -3.6330   -2.8490 hc        1 UMC      0.160700
     32 HN3         3.3900   -7.2820   -3.1510 hn        1 UMC      0.317500
     33 H6A         0.0610   -3.9880   -4.3330 h1        1 UMC      0.060700
@<TRIPOS>BOND
     1    1   11 1   
     2    1   13 1   
     3    1   16 1   
     4    1   20 1   
     5    2    3 1   
     6    2    9 1   
     7    2   10 1   
     8    3    4 2   
     9    3    5 1   
    10    5    6 1   
    11    5   32 1   
    12    6    7 2   
    13    6    8 1   
    14    8    9 1   
    15    8   30 1   
    16    8   31 1   
    17    9   21 1   
    18    9   33 1   
    19   10   12 1   
    20   10   18 1   
    21   10   26 1   
    22   12   14 1   
    23   12   22 1   
    24   12   24 1   
    25   14   15 1   
    26   14   17 1   
    27   14   27 1   
    28   15   28 1   
    29   17   18 1   
    30   17   19 1   
    31   17   29 1   
    32   19   20 1   
    33   19   23 1   
    34   19   25 1   
@<TRIPOS>SUBSTRUCTURE
     1 UMC         1 TEMP              0 ****  ****    0 ROOT
