@<TRIPOS>MOLECULE
UMC
   33    34     1     0     0
SMALL
bcc


@<TRIPOS>ATOM
      1 P           0.5880   -1.3520   -0.7400 p5        1 UMC      1.338900
      2 N1          0.3730   -5.9580   -3.6640 n         1 UMC     -0.453800
      3 C2          1.3600   -6.8770   -3.2600 c         1 UMC      0.808500
      4 O2          1.0850   -8.0280   -2.8360 o         1 UMC     -0.701500
      5 N3          2.7270   -6.5580   -3.4330 ns        1 UMC     -0.618500
      6 C4          3.1810   -5.2620   -3.7200 c         1 UMC      0.725500
      7 O4          4.4090   -5.0960   -3.8470 o         1 UMC     -0.665500
      8 C5          2.1440   -4.1880   -3.8710 c3        1 UMC     -0.226400
      9 C6          0.8260   -4.7740   -4.3650 c3        1 UMC      0.076000
     10 C1'        -0.8480   -5.9210   -2.8340 c3        1 UMC      0.310500
     11 O1P         1.5250   -2.0910   -1.6710 o         1 UMC     -0.926500
     12 C2'        -0.6110   -5.9300   -1.3090 c3        1 UMC     -0.127400
     13 O2P         0.2700   -2.1510    0.5020 o         1 UMC     -0.926500
     14 C3'        -0.7870   -4.4710   -0.8870 c3        1 UMC      0.122100
     15 O3'        -1.4660   -4.4050    0.3460 oh        1 UMC     -0.660800
     16 O3P         0.7540    0.1290   -0.6340 o         1 UMC     -0.926500
     17 C4'        -1.6130   -3.8280   -2.0210 c3        1 UMC      0.061100
     18 O4'        -1.6460   -4.7740   -3.1240 os        1 UMC     -0.446600
     19 C5'        -1.0210   -2.4900   -2.5210 c3        1 UMC      0.209400
     20 O5'        -0.9500   -1.5470   -1.5360 os        1 UMC     -0.563200
     21 H6          0.9470   -5.0770   -5.4480 h1        1 UMC      0.060700
     22 H2'         0.3940   -6.3180   -1.0240 hc        1 UMC      0.053200
     23 H5'        -0.0010   -2.6810   -2.9610 h1        1 UMC     -0.001800
     24 H2'A       -1.3840   -6.5760   -0.8240 hc        1 UMC      0.053200
     25 H5'A       -1.7090   -2.1240   -3.3410 h1        1 UMC     -0.001800
     26 H1'        -1.4540   -6.8120   -3.1720 h2        1 UMC      0.054700
     27 H3'         0.2050   -3.9190   -0.8030 h1        1 UMC      0.140700
     28 HO3'       -1.1310   -3.5870    0.7750 ho        1 UMC      0.485000
     29 H4'        -2.6820   -3.6970   -1.7110 h1        1 UMC      0.048700
     30 H5          2.5110   -3.4160   -4.5930 hc        1 UMC      0.160700
     31 H5A         2.0060   -3.6280   -2.8730 hc        1 UMC      0.160700
     32 HN3         3.3840   -7.2710   -3.2140 hn        1 UMC      0.317500
     33 H6A         0.0240   -3.9820   -4.3220 h1        1 UMC      0.060700
@<TRIPOS>BOND
     1    1   11 1   
     2    1   13 1   
     3    1   16 1   
     4    1   20 1   
     5    2    3 1   
     6    2    9 1   
     7    2   10 1   
     8    3    4 2   
     9    3    5 1   
    10    5    6 1   
    11    5   32 1   
    12    6    7 2   
    13    6    8 1   
    14    8    9 1   
    15    8   30 1   
    16    8   31 1   
    17    9   21 1   
    18    9   33 1   
    19   10   12 1   
    20   10   18 1   
    21   10   26 1   
    22   12   14 1   
    23   12   22 1   
    24   12   24 1   
    25   14   15 1   
    26   14   17 1   
    27   14   27 1   
    28   15   28 1   
    29   17   18 1   
    30   17   19 1   
    31   17   29 1   
    32   19   20 1   
    33   19   23 1   
    34   19   25 1   
@<TRIPOS>SUBSTRUCTURE
     1 UMC         1 TEMP              0 ****  ****    0 ROOT
