@<TRIPOS>MOLECULE
UMF
   31    29     1     0     0
SMALL
bcc


@<TRIPOS>ATOM
      1 N1         -0.1180    0.0350   -0.6550 n         1 UMF     -0.087000
      2 C2          1.2140   -0.4380   -0.6950 c2        1 UMF      0.349000
      3 O2          1.9680   -0.2370   -1.6830 o         1 UMF     -0.431000
      4 N3          1.8760   -1.0640    0.4140 ns        1 UMF     -0.398000
      5 C4          1.2970   -1.8790    1.3530 c2        1 UMF      0.262000
      6 O4          1.9880   -2.4620    2.2140 o         1 UMF     -0.419000
      7 C5         -1.4490   -0.0280    1.5220 c1        1 UMF     -0.352000
      8 C6         -0.8140   -0.0280    0.5020 c1        1 UMF      0.043000
      9 O5'         4.4740   -0.4340   -1.1250 oh        1 UMF     -0.434000
     10 C5'        -0.0500   -1.9810   -3.4950 c2        1 UMF     -0.394000
     11 C4'        -1.2910   -1.6280   -3.1510 c2        1 UMF     -0.040000
     12 O4'        -1.7160   -0.6390   -2.2920 os        1 UMF     -0.147000
     13 C3'        -1.4240    1.8570   -3.6920 c2        1 UMF      0.264000
     14 O3'        -1.3800    3.0380   -4.0900 os        1 UMF     -0.390000
     15 C2'        -0.2880    1.2540   -2.8740 c3        1 UMF      0.062000
     16 F2'         0.5460    2.2300   -2.3530 f         1 UMF     -0.167000
     17 C1'        -0.9070    0.3640   -1.8060 c2        1 UMF     -0.267000
     18 O3P        -2.3800    4.6350   -6.0890 o         1 UMF     -0.853167
     19 O1P        -2.2740    2.0680   -6.1450 o         1 UMF     -0.853167
     20 O2P        -3.9130    3.2260   -4.5880 o         1 UMF     -0.853167
     21 H3          2.8780   -1.0160    0.3800 hn        1 UMF      0.237000
     22 H5          0.1890   -1.9920    1.3040 h5        1 UMF      0.149000
     23 H6         -2.0120   -0.0060    2.4120 ha        1 UMF      0.212000
     24 H5'         3.9850    0.3940   -1.1810 ho        1 UMF      0.214500
     25 H5'1        3.9700   -1.0210   -1.7000 ho        1 UMF      0.214500
     26 H5'2        0.1290   -2.8040   -4.1940 ha        1 UMF      0.109000
     27 H4'         0.8450   -1.4620   -3.1360 ha        1 UMF      0.109000
     28 H3'        -2.1880   -2.1500   -3.5350 h4        1 UMF      0.116000
     29 H2'        -2.2710    1.1860   -3.9610 h4        1 UMF      0.180000
     30 H1'         0.3230    0.6380   -3.6100 h1        1 UMF      0.090000
     31 P          -2.7550    3.3250   -5.5080 p5        1 UMF      1.474500
@<TRIPOS>BOND
     1    1    2 1   
     2    1    8 1   
     3    1   17 1   
     4    2    3 1   
     5    2    4 1   
     6    4    5 1   
     7    4   21 1   
     8    5    6 1   
     9    5   22 1   
    10    7    8 1   
    11    7   23 1   
    12    9   24 1   
    13    9   25 1   
    14   10   11 1   
    15   10   26 1   
    16   10   27 1   
    17   11   12 1   
    18   11   28 1   
    19   12   17 1   
    20   13   14 1   
    21   13   15 1   
    22   13   29 1   
    23   14   31 1   
    24   15   16 1   
    25   15   17 1   
    26   15   30 1   
    27   18   31 1   
    28   19   31 1   
    29   20   31 1   
@<TRIPOS>SUBSTRUCTURE
     1 UMF         1 TEMP              0 ****  ****    0 ROOT
