@<TRIPOS>MOLECULE
UMF
   31    30     1     0     0
SMALL
bcc


@<TRIPOS>ATOM
      1 N1         -0.3140   -0.3620   -1.4810 n         1 UMF     -0.086000
      2 C2          0.8930   -0.2090   -0.6640 c2        1 UMF      0.293000
      3 O2          2.0540   -0.4290   -1.0700 o         1 UMF     -0.383000
      4 N3          0.7560    0.1400    0.7040 n         1 UMF     -0.388000
      5 C4         -0.4730    0.4400    1.2890 c2        1 UMF      0.313000
      6 O4         -0.5170    0.6440    2.5210 o         1 UMF     -0.419000
      7 C5         -1.6740    0.4710    0.3800 c3        1 UMF     -0.263000
      8 C6         -1.5100   -0.1310   -0.9620 c1        1 UMF     -0.048000
      9 O5'         3.4830   -1.2170   -3.2050 oh        1 UMF     -0.439000
     10 C5'         1.0800   -3.8340   -3.6380 c2        1 UMF     -0.415000
     11 C4'         0.2690   -2.8050   -3.3410 c2        1 UMF      0.060000
     12 O4'         0.8010   -1.5420   -3.2340 os        1 UMF     -0.195000
     13 C3'        -0.9420    1.7380   -3.2890 c2        1 UMF      0.235000
     14 O3'        -0.5900    2.9330   -3.1990 os        1 UMF     -0.390000
     15 C2'         0.0130    0.6540   -3.7590 c3        1 UMF      0.047000
     16 F2'         1.3240    1.1050   -3.8610 f         1 UMF     -0.196000
     17 C1'        -0.1950   -0.5830   -2.8920 c2        1 UMF     -0.306000
     18 O3P        -1.6140    5.3960   -2.4780 o         1 UMF     -0.857833
     19 O1P        -2.9820    3.4930   -3.5260 o         1 UMF     -0.857833
     20 O2P        -2.0340    3.2120   -1.1840 o         1 UMF     -0.857833
     21 H3          1.5860    0.1930    1.2500 hn        1 UMF      0.218000
     22 H5         -2.5460    0.0110    0.9060 hc        1 UMF      0.187500
     23 H6         -1.9350    1.5680    0.1550 hc        1 UMF      0.187500
     24 H5'         2.9270   -0.4300   -3.2630 ho        1 UMF      0.215500
     25 H5'1        2.9510   -1.7980   -2.6500 ho        1 UMF      0.215500
     26 H5'2        0.6910   -4.8500   -3.7360 ha        1 UMF      0.099000
     27 H4'         2.1550   -3.7010   -3.7960 ha        1 UMF      0.099000
     28 H3'        -0.8170   -2.8880   -3.1710 h4        1 UMF      0.136000
     29 H2'        -1.9790    1.4210   -3.0200 h4        1 UMF      0.200000
     30 H1'        -0.3210    0.3510   -4.7980 h1        1 UMF      0.105000
     31 P          -2.0900    3.9950   -2.4490 p5        1 UMF      1.490500
@<TRIPOS>BOND
     1    1    2 1   
     2    1    8 1   
     3    1   17 1   
     4    2    3 1   
     5    2    4 1   
     6    4    5 1   
     7    4   21 1   
     8    5    6 1   
     9    5    7 1   
    10    7    8 1   
    11    7   22 1   
    12    7   23 1   
    13    9   24 1   
    14    9   25 1   
    15   10   11 1   
    16   10   26 1   
    17   10   27 1   
    18   11   12 1   
    19   11   28 1   
    20   12   17 1   
    21   13   14 1   
    22   13   15 1   
    23   13   29 1   
    24   14   31 1   
    25   15   16 1   
    26   15   17 1   
    27   15   30 1   
    28   18   31 1   
    29   19   31 1   
    30   20   31 1   
@<TRIPOS>SUBSTRUCTURE
     1 UMF         1 TEMP              0 ****  ****    0 ROOT
