@<TRIPOS>MOLECULE
UMF
   31    29     1     0     0
SMALL
bcc


@<TRIPOS>ATOM
      1 N1          1.1150    0.7680    1.2720 n1        1 UMF     -0.761300
      2 C2          2.3500    1.3380    1.3580 c1        1 UMF      0.847900
      3 O2          2.8370    1.8950    0.3790 o         1 UMF     -0.630500
      4 N3          3.0300    1.3290    2.5500 n2        1 UMF     -0.841800
      5 C4          2.4780    0.7580    3.6390 c1        1 UMF      0.613900
      6 O4          3.1250    0.6740    4.6820 o         1 UMF     -0.657900
      7 C5          1.2370    0.1850    3.5560 c1        1 UMF     -0.296500
      8 C6          0.5570    0.1940    2.3630 c1        1 UMF      0.471300
      9 O5'        -3.9920    0.0310    0.0390 oh        1 UMF     -0.669800
     10 C5'        -2.9000   -0.7200   -0.5020 c3        1 UMF      0.168400
     11 C4'        -1.7120    0.2330   -0.8010 c3        1 UMF      0.041100
     12 O4'        -1.1900    0.6670    0.3070 os        1 UMF     -0.438600
     13 C3'        -0.5860   -0.5300   -1.5020 c3        1 UMF      0.219100
     14 O3'        -0.4880   -0.1380   -2.7960 os        1 UMF     -0.513200
     15 C2'         0.7130   -0.1620   -0.7230 c3        1 UMF      0.105600
     16 F2'         1.7330    0.2350   -1.6270 f         1 UMF     -0.231300
     17 C1'         0.3810    0.8220    0.0280 c3        1 UMF      0.395600
     18 O3P        -1.7080   -1.9230   -4.1150 o         1 UMF     -0.916167
     19 P          -0.3630   -1.2480   -3.9130 p5        1 UMF      1.320900
     20 O1P         0.6580   -2.2790   -3.4880 o         1 UMF     -0.916167
     21 O2P         0.0810   -0.5990   -5.2210 o         1 UMF     -0.916167
     22 H3          3.8480    1.6950    2.6020 hn        1 UMF      0.486400
     23 H5          0.8320   -0.2330    4.3520 ha        1 UMF      0.114500
     24 H6         -0.2940   -0.2890    2.2810 ha        1 UMF      0.165500
     25 H5'        -4.7690   -0.3950   -0.1430 ho        1 UMF      0.506000
     26 H5'1       -2.6180   -1.3960    0.1430 h1        1 UMF      0.008200
     27 H5'2       -3.1790   -1.1500   -1.3170 h1        1 UMF      0.008200
     28 H4'        -2.0080    0.9830   -1.3530 h1        1 UMF      0.079700
     29 H3'        -0.7440   -1.4710   -1.4520 h1        1 UMF      0.061700
     30 H2'         1.0180   -0.9340   -0.1710 h1        1 UMF      0.078700
     31 H1'         0.5570    1.6610   -0.4270 h2        1 UMF      0.100700
@<TRIPOS>BOND
     1    1    8 3   
     2    1   17 1   
     3    2    3 2   
     4    2    4 2   
     5    4   22 1   
     6    5    6 1   
     7    5    7 3   
     8    7   23 1   
     9    8   24 1   
    10    9   10 1   
    11    9   25 1   
    12   10   11 1   
    13   10   26 1   
    14   10   27 1   
    15   11   12 1   
    16   11   13 1   
    17   11   28 1   
    18   12   17 1   
    19   13   14 1   
    20   13   15 1   
    21   13   29 1   
    22   14   19 1   
    23   15   16 1   
    24   15   17 1   
    25   15   30 1   
    26   17   31 1   
    27   18   19 1   
    28   19   20 1   
    29   19   21 1   
@<TRIPOS>SUBSTRUCTURE
     1 UMF         1 TEMP              0 ****  ****    0 ROOT
