@<TRIPOS>MOLECULE
UMF
   31    32     1     0     0
SMALL
bcc


@<TRIPOS>ATOM
      1 N1         -0.3820    0.3820   -2.2270 n         1 UMF     -0.346000
      2 C2          0.1180   -0.8420   -2.7460 c         1 UMF      0.804500
      3 O2          0.5320   -1.7810   -2.0380 o         1 UMF     -0.611500
      4 N3          0.1080   -1.0320   -4.1500 n         1 UMF     -0.598500
      5 C4         -0.3290   -0.0580   -5.0550 c         1 UMF      0.722700
      6 O4         -0.2920   -0.3060   -6.2790 o         1 UMF     -0.679500
      7 C5         -0.8000    1.1920   -4.4660 cc        1 UMF     -0.383200
      8 C6         -0.7790    1.3630   -3.1130 cd        1 UMF      0.086600
      9 O5'         3.3980   -0.4500    1.8810 oh        1 UMF     -0.673800
     10 C5'         2.5540   -0.5120    0.7570 c3        1 UMF      0.157400
     11 C4'         1.4200    0.5060    0.8390 c3        1 UMF      0.058100
     12 O4'         1.1220    0.9780   -0.4990 os        1 UMF     -0.449600
     13 C3'         0.1230   -0.0770    1.4830 c3        1 UMF      0.233100
     14 O3'        -0.4260    0.7710    2.3830 os        1 UMF     -0.529200
     15 C2'        -0.8020   -0.2940    0.2300 c3        1 UMF      0.111600
     16 F2'        -2.1410   -0.0710    0.4490 f         1 UMF     -0.229300
     17 C1'        -0.2450    0.7410   -0.8020 c3        1 UMF      0.268500
     18 O3P        -0.6230    1.3810    4.8730 o         1 UMF     -0.921167
     19 O1P        -0.8620   -1.0580    4.0800 o         1 UMF     -0.921167
     20 O2P         1.3810    0.0950    3.8990 o         1 UMF     -0.921167
     21 H3          0.4610   -1.9000   -4.4850 hn        1 UMF      0.334500
     22 H5         -1.1560    1.9660   -5.1510 ha        1 UMF      0.157000
     23 H6         -1.1110    2.3150   -2.6530 h4        1 UMF      0.164000
     24 H5'         2.8330   -0.3430    2.6820 ho        1 UMF      0.502000
     25 H5'1        3.2100   -0.2920   -0.1300 h1        1 UMF      0.011200
     26 H5'2        2.1390   -1.5510    0.6460 h1        1 UMF      0.011200
     27 H4'         1.7530    1.4160    1.4090 h1        1 UMF      0.102700
     28 H3'         0.3430   -1.0840    1.9450 h1        1 UMF      0.079700
     29 H2'        -0.6680   -1.3460   -0.1450 h1        1 UMF      0.062700
     30 H1'        -0.8000    1.7200   -0.6710 h2        1 UMF      0.071700
     31 P          -0.1160    0.2410    4.0500 p5        1 UMF      1.324900
@<TRIPOS>BOND
     1    1    2 1   
     2    1    8 1   
     3    1   17 1   
     4    2    3 2   
     5    2    4 1   
     6    4    5 1   
     7    4   21 1   
     8    5    6 2   
     9    5    7 1   
    10    7    8 2   
    11    7   22 1   
    12    8   23 1   
    13    9   10 1   
    14    9   24 1   
    15   10   11 1   
    16   10   25 1   
    17   10   26 1   
    18   11   12 1   
    19   11   13 1   
    20   11   27 1   
    21   12   17 1   
    22   13   14 1   
    23   13   15 1   
    24   13   28 1   
    25   14   31 1   
    26   15   16 1   
    27   15   17 1   
    28   15   29 1   
    29   17   30 1   
    30   18   31 1   
    31   19   31 1   
    32   20   31 1   
@<TRIPOS>SUBSTRUCTURE
     1 UMF         1 TEMP              0 ****  ****    0 ROOT
