@<TRIPOS>MOLECULE
UMK
   28    29     1     0     0
SMALL
bcc


@<TRIPOS>ATOM
      1 BR         -0.0300    0.0320   -0.0310 br        1 UMK     -0.088100
      2 C8          1.8420    0.0060   -0.0080 ca        1 UMK     -0.025900
      3 C7          2.5340    0.3020    1.1690 ca        1 UMK     -0.104000
      4 C6          3.9280    0.2870    1.1810 ca        1 UMK     -0.122000
      5 C9          2.5530   -0.3140   -1.1680 ca        1 UMK     -0.104000
      6 C10         3.9460   -0.3280   -1.1500 ca        1 UMK     -0.122000
      7 C5          4.6480   -0.0190    0.0210 ca        1 UMK     -0.098300
      8 C           6.1580   -0.0380    0.0300 c3        1 UMK      0.196100
      9 O           6.6630    0.3700    1.3030 oh        1 UMK     -0.594800
     10 C4          6.7130    0.8800   -1.0690 c3        1 UMK     -0.081400
     11 C3          8.2350    0.7700   -1.1500 c3        1 UMK      0.163300
     12 N           8.6910   -0.5950   -1.3260 n3        1 UMK     -0.819200
     13 C2          8.1880   -1.5050   -0.3130 c3        1 UMK      0.163300
     14 C1          6.6680   -1.4720   -0.1760 c3        1 UMK     -0.081400
     15 H7          1.9870    0.5460    2.0930 ha        1 UMK      0.147000
     16 H9          2.0200   -0.5590   -2.1000 ha        1 UMK      0.147000
     17 H6          4.4630    0.5020    2.1200 ha        1 UMK      0.145000
     18 H10         4.4920   -0.5930   -2.0690 ha        1 UMK      0.145000
     19 H           6.4800    1.3130    1.3900 ho        1 UMK      0.401000
     20 H41C        6.2580    0.5990   -2.0520 hc        1 UMK      0.058200
     21 H42C        6.4400    1.9430   -0.8500 hc        1 UMK      0.058200
     22 H11C        6.3750   -2.0980    0.7050 hc        1 UMK      0.058200
     23 H12C        6.1820   -1.8910   -1.0930 hc        1 UMK      0.058200
     24 H31C        8.5960    1.3640   -2.0370 h1        1 UMK      0.034950
     25 H32C        8.6640    1.2440   -0.2170 h1        1 UMK      0.034950
     26 HA          9.6940   -0.6180   -1.3320 hn        1 UMK      0.362800
     27 H21C        8.5010   -2.5450   -0.6130 h1        1 UMK      0.034950
     28 H22C        8.6280   -1.2880    0.7050 h1        1 UMK      0.034950
@<TRIPOS>BOND
     1    1    2 1   
     2    2    3 ar  
     3    2    5 ar  
     4    3    4 ar  
     5    3   15 1   
     6    4    7 ar  
     7    4   17 1   
     8    5    6 ar  
     9    5   16 1   
    10    6    7 ar  
    11    6   18 1   
    12    7    8 1   
    13    8    9 1   
    14    8   10 1   
    15    8   14 1   
    16    9   19 1   
    17   10   11 1   
    18   10   20 1   
    19   10   21 1   
    20   11   12 1   
    21   11   24 1   
    22   11   25 1   
    23   12   13 1   
    24   12   26 1   
    25   13   14 1   
    26   13   27 1   
    27   13   28 1   
    28   14   22 1   
    29   14   23 1   
@<TRIPOS>SUBSTRUCTURE
     1 UMK         1 TEMP              0 ****  ****    0 ROOT
