@<TRIPOS>MOLECULE
UMK
   28    29     1     0     0
SMALL
bcc


@<TRIPOS>ATOM
      1 Br         -0.0310    0.0280   -0.0340 br        1 UMK     -0.088100
      2 C8          1.8410    0.0050   -0.0110 ca        1 UMK     -0.025900
      3 C7          2.5330    0.3220    1.1610 ca        1 UMK     -0.104000
      4 C6          3.9270    0.3080    1.1740 ca        1 UMK     -0.122000
      5 C9          2.5540   -0.3340   -1.1650 ca        1 UMK     -0.104000
      6 C10         3.9460   -0.3450   -1.1470 ca        1 UMK     -0.122000
      7 C5          4.6480   -0.0150    0.0190 ca        1 UMK     -0.098300
      8 C           6.1580   -0.0320    0.0290 c3        1 UMK      0.196100
      9 O           6.6620    0.3970    1.2950 oh        1 UMK     -0.594800
     10 C4          6.7120    0.8680   -1.0850 c3        1 UMK     -0.081400
     11 C3          8.2330    0.7590   -1.1650 c3        1 UMK      0.163300
     12 N           8.6910   -0.6080   -1.3180 n7        1 UMK     -0.819200
     13 C2          8.1900   -1.5020   -0.2910 c3        1 UMK      0.163300
     14 C1          6.6700   -1.4680   -0.1540 c3        1 UMK     -0.081400
     15 H7          1.9860    0.5800    2.0810 ha        1 UMK      0.147000
     16 H9          2.0210   -0.5940   -2.0930 ha        1 UMK      0.147000
     17 H6          4.4620    0.5400    2.1090 ha        1 UMK      0.145000
     18 H10         4.4930   -0.6240   -2.0610 ha        1 UMK      0.145000
     19 H           6.4780    1.3410    1.3670 ho        1 UMK      0.401000
     20 H41C        6.4370    1.9350   -0.8830 hc        1 UMK      0.058200
     21 H42C        6.2560    0.5710   -2.0630 hc        1 UMK      0.058200
     22 H11C        6.3770   -2.0810    0.7370 hc        1 UMK      0.058200
     23 H12C        6.1840   -1.9030   -1.0650 hc        1 UMK      0.058200
     24 H31C        8.6620    1.2490   -0.2390 h1        1 UMK      0.034950
     25 H32C        8.5940    1.3390   -2.0610 h1        1 UMK      0.034950
     26 HA          9.6940   -0.6290   -1.3240 hn        1 UMK      0.362800
     27 H21C        8.5040   -2.5460   -0.5740 h1        1 UMK      0.034950
     28 H22C        8.6300   -1.2680    0.7240 h1        1 UMK      0.034950
@<TRIPOS>BOND
     1    1    2 1   
     2    2    3 ar  
     3    2    5 ar  
     4    3    4 ar  
     5    3   15 1   
     6    4    7 ar  
     7    4   17 1   
     8    5    6 ar  
     9    5   16 1   
    10    6    7 ar  
    11    6   18 1   
    12    7    8 1   
    13    8    9 1   
    14    8   10 1   
    15    8   14 1   
    16    9   19 1   
    17   10   11 1   
    18   10   20 1   
    19   10   21 1   
    20   11   12 1   
    21   11   24 1   
    22   11   25 1   
    23   12   13 1   
    24   12   26 1   
    25   13   14 1   
    26   13   27 1   
    27   13   28 1   
    28   14   22 1   
    29   14   23 1   
@<TRIPOS>SUBSTRUCTURE
     1 UMK         1 TEMP              0 ****  ****    0 ROOT
