@<TRIPOS>MOLECULE
UMP
   31    32     1     0     0
SMALL
bcc


@<TRIPOS>ATOM
      1 N1         -2.4210    0.3860   -0.2500 n         1 UMP     -0.373000
      2 C2         -3.7930    0.4040   -0.5780 c         1 UMP      0.801500
      3 N3         -4.6200   -0.6130   -0.0640 n         1 UMP     -0.597500
      4 C4         -4.1330   -1.6630    0.7370 c         1 UMP      0.719700
      5 C5         -2.7040   -1.6400    1.0190 cc        1 UMP     -0.370200
      6 C6         -1.9140   -0.6460    0.5160 cd        1 UMP      0.094600
      7 O2         -4.3120    1.2980   -1.2910 o         1 UMP     -0.687500
      8 O4         -4.9490   -2.5200    1.1370 o         1 UMP     -0.676500
      9 C1'        -1.5260    1.4120   -0.8370 c3        1 UMP      0.303500
     10 C2'        -0.9970    2.4210    0.2020 c3        1 UMP     -0.132400
     11 C3'         0.4680    2.0220    0.4330 c3        1 UMP      0.154100
     12 C4'         0.8190    1.0820   -0.7370 c3        1 UMP      0.049100
     13 O3'         1.2600    3.1870    0.4100 oh        1 UMP     -0.669800
     14 O4'        -0.4140    0.7810   -1.4470 os        1 UMP     -0.437600
     15 C5'         1.5040   -0.2370   -0.3060 c3        1 UMP      0.227400
     16 O5'         2.8640   -0.1030   -0.3180 os        1 UMP     -0.552200
     17 P           3.5590    0.0540    1.2790 p5        1 UMP      1.330900
     18 OP1         2.9320    1.3860    1.6410 o         1 UMP     -0.929167
     19 OP2         2.9370   -1.1180    1.9830 o         1 UMP     -0.929167
     20 OP3         5.0340    0.0370    1.0290 o         1 UMP     -0.929167
     21 HN3        -5.5840   -0.5770   -0.3060 hn        1 UMP      0.327500
     22 H5         -2.2960   -2.4460    1.6390 ha        1 UMP      0.179000
     23 H6         -0.8110   -0.6060    0.6920 h4        1 UMP      0.229000
     24 H1'        -2.1130    1.9100   -1.6630 h2        1 UMP      0.085700
     25 H2'        -1.0550    3.4500   -0.2330 hc        1 UMP      0.054200
     26 H2''       -1.5730    2.4110    1.1550 hc        1 UMP      0.054200
     27 H3'         0.6010    1.4960    1.4200 h1        1 UMP      0.102700
     28 H4'         1.4690    1.6120   -1.4840 h1        1 UMP      0.077700
     29 HO3'        2.1240    2.9180    0.8040 ho        1 UMP      0.501000
     30 H5'         1.1420   -0.5420    0.7190 h1        1 UMP     -0.003300
     31 H5''        1.1880   -1.0250   -1.0540 h1        1 UMP     -0.003300
@<TRIPOS>BOND
     1    1    2 1   
     2    1    6 1   
     3    1    9 1   
     4    2    3 1   
     5    2    7 2   
     6    3    4 1   
     7    3   21 1   
     8    4    5 1   
     9    4    8 2   
    10    5    6 2   
    11    5   22 1   
    12    6   23 1   
    13    9   10 1   
    14    9   14 1   
    15    9   24 1   
    16   10   11 1   
    17   10   25 1   
    18   10   26 1   
    19   11   12 1   
    20   11   13 1   
    21   11   27 1   
    22   12   14 1   
    23   12   15 1   
    24   12   28 1   
    25   13   29 1   
    26   15   16 1   
    27   15   30 1   
    28   15   31 1   
    29   16   17 1   
    30   17   18 1   
    31   17   19 1   
    32   17   20 1   
@<TRIPOS>SUBSTRUCTURE
     1 UMP         1 TEMP              0 ****  ****    0 ROOT
