@<TRIPOS>MOLECULE
UMP
   31    32     1     0     0
SMALL
bcc


@<TRIPOS>ATOM
      1 N1         -0.0530   -0.1130   -0.1780 n         1 UMP     -0.373000
      2 C2          1.2280   -0.6190    0.1310 c         1 UMP      0.801500
      3 N3          1.6720   -0.5560    1.4650 ns        1 UMP     -0.597500
      4 C4          0.9060    0.0160    2.4990 c         1 UMP      0.719700
      5 C5         -0.3950    0.5430    2.1120 cc        1 UMP     -0.370200
      6 C6         -0.8140    0.4730    0.8150 cd        1 UMP      0.094600
      7 O2          1.9800   -1.1410   -0.7290 o         1 UMP     -0.687500
      8 O4          1.3950    0.0280    3.6490 o         1 UMP     -0.676500
      9 C1'        -0.5070   -0.1130   -1.5890 c3        1 UMP      0.303500
     10 C2'        -1.6540   -1.1070   -1.8580 c3        1 UMP     -0.132400
     11 C3'        -2.9110   -0.2350   -1.9960 c3        1 UMP      0.154100
     12 C4'        -2.3860    1.2020   -2.1890 c3        1 UMP      0.049100
     13 O3'        -3.6390   -0.6700   -3.1200 oh        1 UMP     -0.669800
     14 O4'        -0.9520    1.1850   -1.9450 os        1 UMP     -0.437600
     15 C5'        -3.0560    2.2510   -1.2690 c3        1 UMP      0.227400
     16 O5'        -4.1360    2.8160   -1.8860 os        1 UMP     -0.552200
     17 P          -5.6680    2.2230   -1.2850 p5        1 UMP      1.330900
     18 OP1        -5.5240    0.7880   -1.7510 o         1 UMP     -0.929167
     19 OP2        -5.4850    2.3970    0.1960 o         1 UMP     -0.929167
     20 OP3        -6.6790    3.0740   -1.9850 o         1 UMP     -0.929167
     21 HN3         2.5760   -0.9220    1.6590 hn        1 UMP      0.327500
     22 H5         -1.0120    0.9960    2.8960 ha        1 UMP      0.179000
     23 H6         -1.7950    0.8860    0.4760 h4        1 UMP      0.229000
     24 H1'         0.4080   -0.3270   -2.2170 h2        1 UMP      0.085700
     25 H2'        -1.7750   -1.8640   -1.0500 hc        1 UMP      0.054200
     26 H2''       -1.4480   -1.6440   -2.8170 hc        1 UMP      0.054200
     27 H3'        -3.5600   -0.3010   -1.0780 h1        1 UMP      0.102700
     28 H4'        -2.5000    1.5190   -3.2600 h1        1 UMP      0.077700
     29 HO3'       -4.5330   -0.2640   -3.0210 ho        1 UMP      0.501000
     30 H5'        -3.3600    1.7680   -0.2940 h1        1 UMP     -0.003300
     31 H5''       -2.2760    3.0410   -1.0580 h1        1 UMP     -0.003300
@<TRIPOS>BOND
     1    1    2 1   
     2    1    6 1   
     3    1    9 1   
     4    2    3 1   
     5    2    7 2   
     6    3    4 1   
     7    3   21 1   
     8    4    5 1   
     9    4    8 2   
    10    5    6 2   
    11    5   22 1   
    12    6   23 1   
    13    9   10 1   
    14    9   14 1   
    15    9   24 1   
    16   10   11 1   
    17   10   25 1   
    18   10   26 1   
    19   11   12 1   
    20   11   13 1   
    21   11   27 1   
    22   12   14 1   
    23   12   15 1   
    24   12   28 1   
    25   13   29 1   
    26   15   16 1   
    27   15   30 1   
    28   15   31 1   
    29   16   17 1   
    30   17   18 1   
    31   17   19 1   
    32   17   20 1   
@<TRIPOS>SUBSTRUCTURE
     1 UMP         1 TEMP              0 ****  ****    0 ROOT
