@<TRIPOS>MOLECULE
UMP
   31    32     1     0     0
SMALL
bcc


@<TRIPOS>ATOM
      1 N1         -0.0940   -0.1860   -0.1300 n         1 UMP     -0.373000
      2 C2          1.1510   -0.7500    0.2200 c         1 UMP      0.801500
      3 N3          1.6070   -0.6060    1.5440 n         1 UMP     -0.597500
      4 C4          0.8880    0.1010    2.5270 c         1 UMP      0.719700
      5 C5         -0.3780    0.6800    2.0980 cc        1 UMP     -0.370200
      6 C6         -0.8080    0.5310    0.8110 cd        1 UMP      0.094600
      7 O2          1.8620   -1.3910   -0.5940 o         1 UMP     -0.687500
      8 O4          1.3830    0.1750    3.6710 o         1 UMP     -0.676500
      9 C1'        -0.5560   -0.2730   -1.5360 c3        1 UMP      0.303500
     10 C2'        -1.7680   -1.2070   -1.7200 c3        1 UMP     -0.132400
     11 C3'        -2.9650   -0.2670   -1.9300 c3        1 UMP      0.154100
     12 C4'        -2.3470    1.1100   -2.2430 c3        1 UMP      0.049100
     13 O3'        -3.7270   -0.7450   -3.0140 oh        1 UMP     -0.669800
     14 O4'        -0.9160    1.0170   -1.9990 os        1 UMP     -0.437600
     15 C5'        -2.9400    2.2740   -1.4130 c3        1 UMP      0.227400
     16 O5'        -3.9830    2.8570   -2.0740 os        1 UMP     -0.552200
     17 P          -5.5480    2.4200   -1.4250 p5        1 UMP      1.330900
     18 OP1        -5.5030    0.9450   -1.7700 o         1 UMP     -0.929167
     19 OP2        -5.3460    2.7050    0.0360 o         1 UMP     -0.929167
     20 OP3        -6.5040    3.2750   -2.1950 o         1 UMP     -0.929167
     21 HN3         2.4850   -1.0150    1.7670 hn        1 UMP      0.327500
     22 H5         -0.9590    1.2380    2.8420 ha        1 UMP      0.179000
     23 H6         -1.7620    0.9800    0.4390 h4        1 UMP      0.229000
     24 H1'         0.3390   -0.5990   -2.1440 h2        1 UMP      0.085700
     25 H2'        -1.6040   -1.8350   -2.6310 hc        1 UMP      0.054200
     26 H2''       -1.9350   -1.8840   -0.8520 hc        1 UMP      0.054200
     27 H3'        -3.6120   -0.2130   -1.0100 h1        1 UMP      0.102700
     28 H4'        -2.4460    1.3440   -3.3360 h1        1 UMP      0.077700
     29 HO3'       -4.5910   -0.2730   -2.9490 ho        1 UMP      0.501000
     30 H5'        -2.1070    3.0250   -1.2680 h1        1 UMP     -0.003300
     31 H5''       -3.2700    1.8960   -0.4010 h1        1 UMP     -0.003300
@<TRIPOS>BOND
     1    1    2 1   
     2    1    6 1   
     3    1    9 1   
     4    2    3 1   
     5    2    7 2   
     6    3    4 1   
     7    3   21 1   
     8    4    5 1   
     9    4    8 2   
    10    5    6 2   
    11    5   22 1   
    12    6   23 1   
    13    9   10 1   
    14    9   14 1   
    15    9   24 1   
    16   10   11 1   
    17   10   25 1   
    18   10   26 1   
    19   11   12 1   
    20   11   13 1   
    21   11   27 1   
    22   12   14 1   
    23   12   15 1   
    24   12   28 1   
    25   13   29 1   
    26   15   16 1   
    27   15   30 1   
    28   15   31 1   
    29   16   17 1   
    30   17   18 1   
    31   17   19 1   
    32   17   20 1   
@<TRIPOS>SUBSTRUCTURE
     1 UMP         1 TEMP              0 ****  ****    0 ROOT
