@<TRIPOS>MOLECULE
UMP
   31    32     1     0     0
SMALL
bcc


@<TRIPOS>ATOM
      1 N1         -0.1050   -0.2180   -0.1360 n         1 UMP     -0.373000
      2 C2          1.1320   -0.8030    0.2080 c         1 UMP      0.801500
      3 N3          1.5820   -0.6920    1.5370 n         1 UMP     -0.597500
      4 C4          0.8670    0.0040    2.5310 c         1 UMP      0.719700
      5 C5         -0.3900    0.6070    2.1080 cc        1 UMP     -0.370200
      6 C6         -0.8150    0.4890    0.8160 cd        1 UMP      0.094600
      7 O2          1.8380   -1.4360   -0.6150 o         1 UMP     -0.687500
      8 O4          1.3570    0.0500    3.6790 o         1 UMP     -0.676500
      9 C1'        -0.5610   -0.2710   -1.5460 c3        1 UMP      0.303500
     10 C2'        -1.7840   -1.1860   -1.7540 c3        1 UMP     -0.132400
     11 C3'        -2.9690   -0.2280   -1.9500 c3        1 UMP      0.154100
     12 C4'        -2.3320    1.1480   -2.2330 c3        1 UMP      0.049100
     13 O3'        -3.7310   -0.6740   -3.0470 oh        1 UMP     -0.669800
     14 O4'        -0.9030    1.0330   -1.9840 os        1 UMP     -0.437600
     15 C5'        -2.9150    2.3020   -1.3830 c3        1 UMP      0.227400
     16 O5'        -3.9470    2.9110   -2.0370 os        1 UMP     -0.552200
     17 P          -5.5200    2.4800   -1.4040 p5        1 UMP      1.330900
     18 OP1        -5.4920    1.0120   -1.7780 o         1 UMP     -0.929167
     19 OP2        -5.3210    2.7330    0.0640 o         1 UMP     -0.929167
     20 OP3        -6.4620    3.3620   -2.1600 o         1 UMP     -0.929167
     21 HN3         2.4540   -1.1150    1.7560 hn        1 UMP      0.327500
     22 H5         -0.9670    1.1570    2.8600 ha        1 UMP      0.179000
     23 H6         -1.7620    0.9560    0.4490 h4        1 UMP      0.229000
     24 H1'         0.3330   -0.5960   -2.1550 h2        1 UMP      0.085700
     25 H2'        -1.6230   -1.7980   -2.6760 hc        1 UMP      0.054200
     26 H2''       -1.9630   -1.8790   -0.9000 hc        1 UMP      0.054200
     27 H3'        -3.6190   -0.1840   -1.0320 h1        1 UMP      0.102700
     28 H4'        -2.4220    1.4050   -3.3220 h1        1 UMP      0.077700
     29 HO3'       -4.5890   -0.1940   -2.9770 ho        1 UMP      0.501000
     30 H5'        -3.2540    1.9080   -0.3800 h1        1 UMP     -0.003300
     31 H5''       -2.0740    3.0400   -1.2190 h1        1 UMP     -0.003300
@<TRIPOS>BOND
     1    1    2 1   
     2    1    6 1   
     3    1    9 1   
     4    2    3 1   
     5    2    7 2   
     6    3    4 1   
     7    3   21 1   
     8    4    5 1   
     9    4    8 2   
    10    5    6 2   
    11    5   22 1   
    12    6   23 1   
    13    9   10 1   
    14    9   14 1   
    15    9   24 1   
    16   10   11 1   
    17   10   25 1   
    18   10   26 1   
    19   11   12 1   
    20   11   13 1   
    21   11   27 1   
    22   12   14 1   
    23   12   15 1   
    24   12   28 1   
    25   13   29 1   
    26   15   16 1   
    27   15   30 1   
    28   15   31 1   
    29   16   17 1   
    30   17   18 1   
    31   17   19 1   
    32   17   20 1   
@<TRIPOS>SUBSTRUCTURE
     1 UMP         1 TEMP              0 ****  ****    0 ROOT
