@<TRIPOS>MOLECULE
UMS
   35    36     1     0     0
SMALL
bcc


@<TRIPOS>ATOM
      1 OP3        -1.9340    1.1080    1.8310 o         1 UMS     -0.922833
      2 P          -3.2280    0.3750    1.5280 p5        1 UMS      1.342900
      3 OP1        -3.0930   -1.0940    1.8530 o         1 UMS     -0.922833
      4 OP2        -4.5150    1.0850    1.7820 o         1 UMS     -0.922833
      5 O5'        -3.1170    0.2210   -0.1970 os        1 UMS     -0.569200
      6 C5'        -1.9720    0.6390   -0.8120 c3        1 UMS      0.224400
      7 C4'        -0.9480   -0.5050   -1.0270 c3        1 UMS      0.065100
      8 O4'         0.2850    0.0740   -1.5170 os        1 UMS     -0.429600
      9 C3'        -0.6090   -1.2820    0.2620 c3        1 UMS      0.111100
     10 O3'        -1.2180   -2.5480    0.2790 oh        1 UMS     -0.656800
     11 C2'         0.9210   -1.3300    0.3310 c3        1 UMS     -0.007600
     12 SE2'        1.8180   -2.7730   -0.2300 ss        1 UMS     -0.345200
     13 C1'         1.3640   -0.1960   -0.6280 c3        1 UMS      0.318500
     14 CA'         1.2890   -4.0590    0.8400 c3        1 UMS     -0.029000
     15 N1          1.7780    1.0270    0.0850 n         1 UMS     -0.372000
     16 C2          3.0130    1.6130   -0.2770 c         1 UMS      0.797500
     17 O2          3.8000    1.0970   -1.1110 o         1 UMS     -0.700500
     18 N3          3.4010    2.8110    0.3470 n         1 UMS     -0.598500
     19 C4          2.5910    3.4810    1.2870 c         1 UMS      0.716700
     20 O4          3.0360    4.5420    1.7770 o         1 UMS     -0.692500
     21 C5          1.3170    2.8500    1.5840 cc        1 UMS     -0.371200
     22 C6          0.9430    1.6830    0.9810 cd        1 UMS      0.073600
     23 H5'        -2.2300    1.0250   -1.8430 h1        1 UMS     -0.000300
     24 H5'2       -1.4720    1.4690   -0.2380 h1        1 UMS     -0.000300
     25 H4'        -1.2960   -1.2040   -1.8310 h1        1 UMS      0.053700
     26 H3'        -0.9980   -0.6760    1.1550 h1        1 UMS      0.156700
     27 HO3'       -2.0700   -2.4080    0.7590 ho        1 UMS      0.494000
     28 H2'         1.2330   -1.1510    1.3880 h1        1 UMS      0.080700
     29 H1'         2.2320   -0.5110   -1.2840 h2        1 UMS      0.107700
     30 HA'         1.7590   -3.9650    1.8440 h1        1 UMS      0.060367
     31 HA'2        0.1800   -4.0590    0.9620 h1        1 UMS      0.060367
     32 HA'3        1.6130   -5.0140    0.3700 h1        1 UMS      0.060367
     33 H3          4.2760    3.1980    0.0760 hn        1 UMS      0.321500
     34 H5          0.6490    3.3480    2.2980 ha        1 UMS      0.188000
     35 H6         -0.0760    1.2220    1.2090 h4        1 UMS      0.307000
@<TRIPOS>BOND
     1    1    2 1   
     2    2    3 1   
     3    2    4 1   
     4    2    5 1   
     5    5    6 1   
     6    6    7 1   
     7    6   23 1   
     8    6   24 1   
     9    7    8 1   
    10    7    9 1   
    11    7   25 1   
    12    8   13 1   
    13    9   10 1   
    14    9   11 1   
    15    9   26 1   
    16   10   27 1   
    17   11   12 1   
    18   11   13 1   
    19   11   28 1   
    20   12   14 1   
    21   13   15 1   
    22   13   29 1   
    23   14   30 1   
    24   14   31 1   
    25   14   32 1   
    26   15   16 1   
    27   15   22 1   
    28   16   17 2   
    29   16   18 1   
    30   18   19 1   
    31   18   33 1   
    32   19   20 2   
    33   19   21 1   
    34   21   22 2   
    35   21   34 1   
    36   22   35 1   
@<TRIPOS>SUBSTRUCTURE
     1 UMS         1 TEMP              0 ****  ****    0 ROOT
