@<TRIPOS>MOLECULE
UMX
   38    40     1     0     0
SMALL
bcc


@<TRIPOS>ATOM
      1 P          -4.2750   -0.3930   -0.0150 p5        1 UMX      1.429800
      2 N1          2.6110   -0.2570    0.4100 n         1 UMX     -0.348000
      3 C2          3.9090    0.0400    0.8750 c         1 UMX      0.799500
      4 O2          4.1700    1.0250    1.6070 o         1 UMX     -0.674500
      5 N3          4.9650   -0.8260    0.5180 n         1 UMX     -0.598500
      6 C4          4.7770   -1.9800   -0.2620 c         1 UMX      0.722700
      7 O4          5.7770   -2.6840   -0.5230 o         1 UMX     -0.694500
      8 C5          3.4120   -2.2450   -0.6860 cc        1 UMX     -0.405200
      9 C6          2.4010   -1.3870   -0.3450 cd        1 UMX      0.115600
     10 C1'         1.4960    0.6650    0.7520 c3        1 UMX      0.309500
     11 C2'         1.2710    1.8190   -0.2560 c3        1 UMX     -0.220700
     12 C3'         0.3560    1.0690   -1.3610 c3        1 UMX      0.433800
     13 O3'        -0.1270    1.7920   -2.3170 o         1 UMX     -0.820500
     14 C4'        -0.6420    0.5790   -0.1910 c3        1 UMX      0.010800
     15 O4'         0.2670   -0.0680    0.7670 os        1 UMX     -0.429600
     16 C5'        -1.7290   -0.3980   -0.5720 c3        1 UMX      0.229400
     17 O5'        -2.6960   -0.5450    0.4250 os        1 UMX     -0.584200
     18 C6'         0.2530    2.7490    0.4290 c3        1 UMX     -0.035700
     19 C7'         0.0930    4.0400   -0.3320 c3        1 UMX     -0.087100
     20 C8'        -1.0480    1.9130    0.4510 c3        1 UMX     -0.064400
     21 OP1        -4.3120    1.2200   -0.2840 oh        1 UMX     -0.785400
     22 OP2        -4.4190   -0.9840   -1.3650 o         1 UMX     -0.849000
     23 OP3        -5.1210   -0.7240    1.1500 o         1 UMX     -0.849000
     24 H5          3.2350   -3.1420   -1.2860 ha        1 UMX      0.160000
     25 H6          1.3420   -1.5560   -0.6460 h4        1 UMX      0.213000
     26 H1'         1.7080    1.0080    1.8060 h2        1 UMX      0.063700
     27 H2'         2.1780    2.3100   -0.6370 hc        1 UMX      0.054700
     28 H3'         0.9350    0.1530   -1.7060 h1        1 UMX     -0.099300
     29 HO3'       -3.9150    1.4580   -1.1140 ho        1 UMX      0.427000
     30 H5'        -2.2040   -0.0410   -1.5300 h1        1 UMX      0.029200
     31 H5'A       -1.2440   -1.4020   -0.7510 h1        1 UMX      0.029200
     32 H6'         0.5770    2.9780    1.4810 hc        1 UMX     -0.000300
     33 H7'        -0.1650    3.8030   -1.3980 hc        1 UMX      0.029367
     34 H7'A       -0.7210    4.6590    0.1170 hc        1 UMX      0.029367
     35 H7'B        1.0410    4.6300   -0.3080 hc        1 UMX      0.029367
     36 H8'        -1.8510    2.3840   -0.1660 hc        1 UMX      0.051700
     37 H8'A       -1.4230    1.7640    1.4900 hc        1 UMX      0.051700
     38 HN3         5.8740   -0.5850    0.8400 hn        1 UMX      0.325500
@<TRIPOS>BOND
     1    1   17 1   
     2    1   21 1   
     3    1   22 1   
     4    1   23 1   
     5    2    3 1   
     6    2    9 1   
     7    2   10 1   
     8    3    4 2   
     9    3    5 1   
    10    5    6 1   
    11    5   38 1   
    12    6    7 2   
    13    6    8 1   
    14    8    9 2   
    15    8   24 1   
    16    9   25 1   
    17   10   11 1   
    18   10   15 1   
    19   10   26 1   
    20   11   12 1   
    21   11   18 1   
    22   11   27 1   
    23   12   13 1   
    24   12   14 1   
    25   12   28 1   
    26   14   15 1   
    27   14   16 1   
    28   14   20 1   
    29   16   17 1   
    30   16   30 1   
    31   16   31 1   
    32   18   19 1   
    33   18   20 1   
    34   18   32 1   
    35   19   33 1   
    36   19   34 1   
    37   19   35 1   
    38   20   36 1   
    39   20   37 1   
    40   21   29 1   
@<TRIPOS>SUBSTRUCTURE
     1 UMX         1 TEMP              0 ****  ****    0 ROOT
