@<TRIPOS>MOLECULE
UN1
   20    17     1     0     0
SMALL
bcc


@<TRIPOS>ATOM
      1 C1'         1.4000   -1.6780    2.5340 c1        1 UN1      0.323000
      2 O1'         2.6590   -1.6780    2.5340 o         1 UN1     -0.612000
      3 O2'         0.7700   -1.6780    3.6250 os        1 UN1     -0.603000
      4 O58        -0.4410    0.7650   -3.3400 o         1 UN1     -0.596500
      5 C1          0.6440   -1.6780    1.2240 c3        1 UN1     -0.210000
      6 C3          0.0090    1.3960   -2.3480 c1        1 UN1      0.325000
      7 C4         -0.5860    1.1720   -0.9770 c2        1 UN1     -0.110000
      8 C5         -0.3300   -0.2520   -0.5430 c3        1 UN1     -0.169000
      9 C6          0.4050   -0.2520    0.7790 c3        1 UN1     -0.144000
     10 N4         -1.9880    1.4090   -1.0250 n3        1 UN1     -0.340000
     11 O5'         0.9550    2.2130   -2.4980 o         1 UN1     -0.596500
     12 H1C1       -0.2140   -2.1300    1.3430 hc        1 UN1      0.055000
     13 H1C2        1.1670   -2.1480    0.5460 hc        1 UN1      0.055000
     14 H4         -0.1740    1.7860   -0.3390 h4        1 UN1      0.080000
     15 H5C1       -1.1810   -0.7200   -0.4410 hc        1 UN1      0.072500
     16 H5C2        0.2120   -0.7060   -1.2160 hc        1 UN1      0.072500
     17 H6C1        1.2620    0.2040    0.6750 hc        1 UN1      0.072500
     18 H6C2       -0.1310    0.2120    1.4500 hc        1 UN1      0.072500
     19 H4N1       -2.1810    1.9510   -1.7320 hn        1 UN1      0.125500
     20 H4N2       -2.2550    1.8120   -0.2510 hn        1 UN1      0.125500
@<TRIPOS>BOND
     1    1    2 1   
     2    1    5 1   
     3    4    6 1   
     4    5    9 1   
     5    5   12 1   
     6    5   13 1   
     7    6   11 1   
     8    7    8 1   
     9    7   10 1   
    10    7   14 1   
    11    8    9 1   
    12    8   15 1   
    13    8   16 1   
    14    9   17 1   
    15    9   18 1   
    16   10   19 1   
    17   10   20 1   
@<TRIPOS>SUBSTRUCTURE
     1 UN1         1 TEMP              0 ****  ****    0 ROOT
