@<TRIPOS>MOLECULE
UN1
   20    19     1     0     0
SMALL
bcc


@<TRIPOS>ATOM
      1 C1'        -0.1860   -0.0080   -3.3960 c         1 UN1      0.903600
      2 O1'         0.9780   -0.4100   -3.7000 o         1 UN1     -0.872800
      3 O2'        -0.9270    0.6090   -4.2210 o         1 UN1     -0.872800
      4 C1         -0.7470   -0.3130   -2.0020 c3        1 UN1     -0.181400
      5 C3         -0.3140   -0.0730    2.9610 c         1 UN1      0.905600
      6 C4          0.4020    0.3830    1.6490 c3        1 UN1      0.037500
      7 C5         -0.3380   -0.2660    0.4710 c3        1 UN1     -0.090400
      8 C6          0.1250    0.2220   -0.8880 c3        1 UN1     -0.065400
      9 N4          1.8380    0.1510    1.6860 n3        1 UN1     -0.907800
     10 H1C1       -0.8330   -1.4270   -1.9060 hc        1 UN1      0.015700
     11 H1C2       -1.7770    0.1170   -1.9190 hc        1 UN1      0.015700
     12 H4          0.2670    1.5010    1.5650 h1        1 UN1      0.040700
     13 H5C1       -0.2250   -1.3800    0.5280 hc        1 UN1      0.033200
     14 H5C2       -1.4290   -0.0350    0.5980 hc        1 UN1      0.033200
     15 H6C1        0.1100    1.3430   -0.9070 hc        1 UN1      0.033200
     16 H6C2        1.1830   -0.0970   -1.0840 hc        1 UN1      0.033200
     17 H4N1        2.0380   -0.5180    2.4110 hn        1 UN1      0.330300
     18 H4N2        2.1400   -0.2480    0.8170 hn        1 UN1      0.330300
     19 O58         0.1440   -1.0720    3.5930 o         1 UN1     -0.861800
     20 O5'        -1.3270    0.5820    3.3380 o         1 UN1     -0.861800
@<TRIPOS>BOND
     1    1    2 1   
     2    1    3 1   
     3    1    4 1   
     4    4    8 1   
     5    4   10 1   
     6    4   11 1   
     7    5    6 1   
     8    5   19 1   
     9    5   20 1   
    10    6    7 1   
    11    6    9 1   
    12    6   12 1   
    13    7    8 1   
    14    7   13 1   
    15    7   14 1   
    16    8   15 1   
    17    8   16 1   
    18    9   17 1   
    19    9   18 1   
@<TRIPOS>SUBSTRUCTURE
     1 UN1         1 TEMP              0 ****  ****    0 ROOT
