@<TRIPOS>MOLECULE
UN2
   17    16     1     0     0
SMALL
bcc


@<TRIPOS>ATOM
      1 N           2.3570   -2.0630   -0.3940 n3        1 UN2     -0.886800
      2 CA          1.4620   -1.2950    0.4640 c3        1 UN2      0.015500
      3 C           2.1960   -0.4590    1.5640 c         1 UN2      0.886600
      4 O           3.4530   -0.3700    1.5130 o         1 UN2     -0.841300
      5 CB          0.3880   -2.1600    1.1290 c3        1 UN2     -0.115400
      6 CG         -1.0100   -1.5770    0.9320 c3        1 UN2      0.346900
      7 OD1        -1.9570   -2.2490    1.7490 oh        1 UN2     -0.659800
      8 OD2        -1.1560   -0.2280    1.2790 oh        1 UN2     -0.659800
      9 OXT         1.4780    0.1000    2.4460 o         1 UN2     -0.841300
     10 HN1         3.1230   -1.4580   -0.6400 hn        1 UN2      0.333300
     11 HN2         2.7520   -2.8130    0.1460 hn        1 UN2      0.333300
     12 HA          0.9530   -0.5410   -0.2080 h1        1 UN2      0.051700
     13 HBC1        0.3770   -3.2050    0.7250 hc        1 UN2      0.050200
     14 HBC2        0.5970   -2.2210    2.2300 hc        1 UN2      0.050200
     15 HGC1       -1.3820   -1.7060   -0.1230 h2        1 UN2      0.066700
     16 HD1        -1.8430   -1.9210    2.6490 ho        1 UN2      0.435500
     17 HDT        -0.3750    0.0580    1.7920 ho        1 UN2      0.435500
@<TRIPOS>BOND
     1    1    2 1   
     2    1   10 1   
     3    1   11 1   
     4    2    3 1   
     5    2    5 1   
     6    2   12 1   
     7    3    4 1   
     8    3    9 1   
     9    5    6 1   
    10    5   13 1   
    11    5   14 1   
    12    6    7 1   
    13    6    8 1   
    14    6   15 1   
    15    7   16 1   
    16    8   17 1   
@<TRIPOS>SUBSTRUCTURE
     1 UN2         1 TEMP              0 ****  ****    0 ROOT
