@<TRIPOS>MOLECULE
UN3
   27    28     1     0     0
SMALL
bcc


@<TRIPOS>ATOM
      1 O3          0.4700   -0.4980   -0.8640 o         1 UN3     -0.729867
      2 S1          1.6650   -0.2200   -0.1650 s6        1 UN3      1.537700
      3 O1          1.5330   -0.3120    1.2390 o         1 UN3     -0.729867
      4 O2          2.7830   -0.9160   -0.6910 o         1 UN3     -0.729867
      5 N3          2.0580    1.4370   -0.5320 nu        1 UN3     -0.714500
      6 C5          1.6850    2.5580    0.1530 cc        1 UN3      0.210300
      7 N2          1.7570    3.8980   -0.3530 na        1 UN3      0.039400
      8 C4          2.4590    4.2480   -1.5570 c3        1 UN3      0.045600
      9 N1          1.3480    4.7980    0.5600 nc        1 UN3     -0.560800
     10 C6          1.1220    2.6760    1.4500 cd        1 UN3     -0.356300
     11 C3          0.9240    4.0910    1.6520 cd        1 UN3      0.362800
     12 C2          0.3620    4.6930    2.8490 ca        1 UN3     -0.080500
     13 C7          0.2850    3.9410    4.0340 ca        1 UN3     -0.117000
     14 C8         -0.2540    4.5010    5.1890 ca        1 UN3     -0.142500
     15 C9         -0.7220    5.8150    5.1830 ca        1 UN3     -0.149000
     16 C10        -0.6490    6.5680    4.0120 ca        1 UN3     -0.142500
     17 C1         -0.1120    6.0140    2.8510 ca        1 UN3     -0.117000
     18 HN3         2.6290    1.5970   -1.3280 hn        1 UN3      0.408800
     19 H41         2.0150    3.6720   -2.4120 h1        1 UN3      0.042700
     20 H42         3.5480    3.9840   -1.4670 h1        1 UN3      0.042700
     21 H43         2.3660    5.3460   -1.7670 h1        1 UN3      0.042700
     22 H6          0.9030    1.8500    2.1210 ha        1 UN3      0.196000
     23 H7          0.6540    2.9040    4.0420 ha        1 UN3      0.146500
     24 H8         -0.3110    3.9020    6.1090 ha        1 UN3      0.118000
     25 H9         -1.1480    6.2540    6.0960 ha        1 UN3      0.114000
     26 H10        -1.0180    7.6030    4.0020 ha        1 UN3      0.118000
     27 H1         -0.0620    6.6170    1.9320 ha        1 UN3      0.146500
@<TRIPOS>BOND
     1    1    2 1   
     2    2    3 1   
     3    2    4 1   
     4    2    5 1   
     5    5    6 1   
     6    5   18 1   
     7    6    7 1   
     8    6   10 2   
     9    7    8 1   
    10    7    9 1   
    11    8   19 1   
    12    8   20 1   
    13    8   21 1   
    14    9   11 2   
    15   10   11 1   
    16   10   22 1   
    17   11   12 1   
    18   12   13 ar  
    19   12   17 ar  
    20   13   14 ar  
    21   13   23 1   
    22   14   15 ar  
    23   14   24 1   
    24   15   16 ar  
    25   15   25 1   
    26   16   17 ar  
    27   16   26 1   
    28   17   27 1   
@<TRIPOS>SUBSTRUCTURE
     1 UN3         1 TEMP              0 ****  ****    0 ROOT
