@<TRIPOS>MOLECULE
UN3
   27    22     1     0     0
SMALL
bcc


@<TRIPOS>ATOM
      1 O3         -0.8030    1.4090   -3.4040 o         1 UN3     -1.052667
      2 S1         -1.2140    2.7160   -2.7550 s4        1 UN3      2.841000
      3 O1         -2.2610    3.4310   -3.5720 o         1 UN3     -1.052667
      4 O2         -0.1090    3.7030   -2.7820 o         1 UN3     -1.052667
      5 N3         -1.7420    2.4440   -1.2060 n2        1 UN3     -0.764000
      6 C5         -1.2710    1.2660   -0.4620 c2        1 UN3      0.152000
      7 N2         -2.0020    0.5230    0.4020 n2        1 UN3     -0.174000
      8 C4         -3.3960    0.7070    0.7200 c2        1 UN3     -0.053000
      9 N1         -1.1680   -0.4530    0.9430 n2        1 UN3     -0.127000
     10 C6          0.0220    0.7580   -0.4630 c1        1 UN3     -0.290000
     11 C3          0.0600   -0.3030    0.4120 c2        1 UN3     -0.075000
     12 C2          1.1860   -1.1000    0.7000 c1        1 UN3      0.027000
     13 C7          1.5230   -2.1760   -0.1410 c1        1 UN3     -0.137500
     14 C8          2.5920   -2.9780    0.1660 c1        1 UN3     -0.137500
     15 C9          3.3370   -2.7310    1.2960 c1        1 UN3     -0.137500
     16 C10         3.0040   -1.6560    2.1380 c1        1 UN3     -0.137500
     17 C1          1.9360   -0.8530    1.8340 c1        1 UN3     -0.119000
     18 HN3        -2.3640    3.0410   -0.8060 hn        1 UN3      0.204000
     19 H41        -3.9240    0.9230   -0.1410 ha        1 UN3      0.082000
     20 H42        -3.4870    1.4180    1.3320 ha        1 UN3      0.082000
     21 H43        -3.7500   -0.1260    1.1270 ha        1 UN3      0.082000
     22 H6          0.7620    1.0880   -0.9870 DU        1 UN3      0.197000
     23 H7          0.9720   -2.3890   -0.8670 ha        1 UN3      0.125500
     24 H8          2.8260   -3.7290   -0.4220 ha        1 UN3      0.125500
     25 H9          4.1100   -3.3120    1.5150 ha        1 UN3      0.125500
     26 H10         3.5240   -1.4840    2.9250 ha        1 UN3      0.125500
     27 H1          1.6360   -0.1340    2.4960 ha        1 UN3      0.141000
@<TRIPOS>BOND
     1    1    2 1   
     2    2    3 1   
     3    2    4 1   
     4    5    6 1   
     5    5   18 1   
     6    6    7 1   
     7    6   10 1   
     8    7    9 1   
     9    8   19 1   
    10    8   20 1   
    11    8   21 1   
    12    9   11 1   
    13   10   11 1   
    14   11   12 1   
    15   12   17 1   
    16   13   14 1   
    17   13   23 1   
    18   14   24 1   
    19   15   16 1   
    20   15   25 1   
    21   16   26 1   
    22   17   27 1   
@<TRIPOS>SUBSTRUCTURE
     1 UN3         1 TEMP              0 ****  ****    0 ROOT
