@<TRIPOS>MOLECULE
UN3
   28    28     1     0     0
SMALL
bcc


@<TRIPOS>ATOM
      1 O3          0.7770   -1.0210   -0.8330 o         1 UN3     -0.578400
      2 S1          1.5700   -0.7220    0.2270 s4        1 UN3      1.814000
      3 O1          1.0150   -0.3480    1.4040 o         1 UN3     -0.578400
      4 O2          2.9000   -0.9840    0.1530 o         1 UN3     -0.698200
      5 N3          1.9750    1.5570   -0.7510 nh        1 UN3     -0.833200
      6 C5          1.6640    2.6960    0.0240 cc        1 UN3     -0.015700
      7 N2          1.9380    4.0500   -0.3400 na        1 UN3      0.075400
      8 C4          2.6280    4.4340   -1.5440 c3        1 UN3      0.030600
      9 N1          1.5300    4.9000    0.6030 nc        1 UN3     -0.479800
     10 C6          1.0290    2.7480    1.2790 cd        1 UN3     -0.225300
     11 C3          0.9640    4.1580    1.6070 cd        1 UN3      0.358800
     12 C2          0.3860    4.7120    2.8190 ca        1 UN3     -0.118500
     13 C7          0.2400    3.8960    3.9520 ca        1 UN3     -0.107500
     14 C8         -0.3180    4.4110    5.1190 ca        1 UN3     -0.134500
     15 C9         -0.7340    5.7420    5.1710 ca        1 UN3     -0.123000
     16 C10        -0.5900    6.5570    4.0500 ca        1 UN3     -0.134500
     17 C1         -0.0320    6.0490    2.8770 ca        1 UN3     -0.107500
     18 HN3         1.4330    1.5470   -1.6010 hn        1 UN3      0.394800
     19 H41         2.0580    4.0480   -2.4310 h1        1 UN3      0.060700
     20 H42         2.7090    5.5520   -1.6180 h1        1 UN3      0.060700
     21 H43         3.6600    3.9910   -1.5410 h1        1 UN3      0.060700
     22 H6          0.6630    1.9120    1.8710 ha        1 UN3      0.203000
     23 H7          0.5710    2.8460    3.9180 ha        1 UN3      0.142000
     24 H8         -0.4290    3.7640    6.0020 ha        1 UN3      0.133000
     25 H9         -1.1750    6.1450    6.0940 ha        1 UN3      0.131000
     26 H10        -0.9160    7.6070    4.0880 ha        1 UN3      0.133000
     27 H1          0.0760    6.7030    1.9990 ha        1 UN3      0.142000
     28 H32         2.9560    1.5370   -0.9800 hn        1 UN3      0.394800
@<TRIPOS>BOND
     1    1    2 1   
     2    2    3 1   
     3    2    4 2   
     4    5    6 1   
     5    5   18 1   
     6    5   28 1   
     7    6    7 1   
     8    6   10 2   
     9    7    8 1   
    10    7    9 1   
    11    8   19 1   
    12    8   20 1   
    13    8   21 1   
    14    9   11 2   
    15   10   11 1   
    16   10   22 1   
    17   11   12 1   
    18   12   13 ar  
    19   12   17 ar  
    20   13   14 ar  
    21   13   23 1   
    22   14   15 ar  
    23   14   24 1   
    24   15   16 ar  
    25   15   25 1   
    26   16   17 ar  
    27   16   26 1   
    28   17   27 1   
@<TRIPOS>SUBSTRUCTURE
     1 UN3         1 TEMP              0 ****  ****    0 ROOT
