@<TRIPOS>MOLECULE
UN3
   27    28     1     0     0
SMALL
bcc


@<TRIPOS>ATOM
      1 O3         -3.5970   -1.0560    1.2820 o         1 UN3     -0.729867
      2 S1         -3.2760   -0.8830   -0.0820 s6        1 UN3      1.537700
      3 O1         -2.4330   -1.8920   -0.5980 o         1 UN3     -0.729867
      4 O2         -4.4160   -0.6110   -0.8830 o         1 UN3     -0.729867
      5 N3         -2.3950    0.6160   -0.1790 nh        1 UN3     -0.714500
      6 C5         -1.0450    0.8000   -0.0910 cc        1 UN3      0.210300
      7 N2         -0.3960    2.0580    0.1440 na        1 UN3      0.039400
      8 C4         -1.0780    3.3210    0.0760 c3        1 UN3      0.045600
      9 N1          0.9440    1.9340    0.1500 nc        1 UN3     -0.560800
     10 C6          0.0020   -0.1550   -0.1630 cd        1 UN3     -0.356300
     11 C3          1.2200    0.6020    0.0000 cd        1 UN3      0.362800
     12 C2          2.5600    0.0390   -0.0010 ca        1 UN3     -0.080500
     13 C7          2.7680   -1.2560   -0.5030 ca        1 UN3     -0.117000
     14 C8          4.0440   -1.8130   -0.5090 ca        1 UN3     -0.142500
     15 C9          5.1300   -1.0890   -0.0170 ca        1 UN3     -0.149000
     16 C10         4.9330    0.1970    0.4830 ca        1 UN3     -0.142500
     17 C1          3.6580    0.7600    0.4930 ca        1 UN3     -0.117000
     18 HN3        -2.9270    1.4420   -0.3220 hn        1 UN3      0.408800
     19 H41        -1.5080    3.4800   -0.9500 h1        1 UN3      0.042700
     20 H42        -1.9160    3.3170    0.8240 h1        1 UN3      0.042700
     21 H43        -0.3780    4.1650    0.3130 h1        1 UN3      0.042700
     22 H6         -0.1260   -1.2230   -0.3130 ha        1 UN3      0.196000
     23 H7          1.9120   -1.8310   -0.8920 ha        1 UN3      0.146500
     24 H8          4.1930   -2.8290   -0.9020 ha        1 UN3      0.118000
     25 H9          6.1360   -1.5320   -0.0220 ha        1 UN3      0.114000
     26 H10         5.7850    0.7710    0.8730 ha        1 UN3      0.118000
     27 H1          3.5140    1.7760    0.8920 ha        1 UN3      0.146500
@<TRIPOS>BOND
     1    1    2 1   
     2    2    3 1   
     3    2    4 1   
     4    2    5 1   
     5    5    6 1   
     6    5   18 1   
     7    6    7 1   
     8    6   10 2   
     9    7    8 1   
    10    7    9 1   
    11    8   19 1   
    12    8   20 1   
    13    8   21 1   
    14    9   11 2   
    15   10   11 1   
    16   10   22 1   
    17   11   12 1   
    18   12   13 ar  
    19   12   17 ar  
    20   13   14 ar  
    21   13   23 1   
    22   14   15 ar  
    23   14   24 1   
    24   15   16 ar  
    25   15   25 1   
    26   16   17 ar  
    27   16   26 1   
    28   17   27 1   
@<TRIPOS>SUBSTRUCTURE
     1 UN3         1 TEMP              0 ****  ****    0 ROOT
