@<TRIPOS>MOLECULE
UN3
   27    28     1     0     0
SMALL
bcc


@<TRIPOS>ATOM
      1 O3          0.4800   -0.4970   -0.8680 o         1 UN3     -0.729867
      2 S1          1.6680   -0.2230   -0.1560 s6        1 UN3      1.537700
      3 O1          1.5210   -0.3150    1.2460 o         1 UN3     -0.729867
      4 O2          2.7890   -0.9240   -0.6710 o         1 UN3     -0.729867
      5 N3          2.0720    1.4310   -0.5200 nh        1 UN3     -0.714500
      6 C5          1.6960    2.5540    0.1610 cc        1 UN3      0.210300
      7 N2          1.7780    3.8940   -0.3450 na        1 UN3      0.039400
      8 C4          2.4940    4.2410   -1.5410 c3        1 UN3      0.045600
      9 N1          1.3630    4.7960    0.5630 nc        1 UN3     -0.560800
     10 C6          1.1190    2.6750    1.4520 cd        1 UN3     -0.356300
     11 C3          0.9250    4.0910    1.6520 cd        1 UN3      0.362800
     12 C2          0.3520    4.6960    2.8430 ca        1 UN3     -0.080500
     13 C7          0.2620    3.9460    4.0270 ca        1 UN3     -0.117000
     14 C8         -0.2870    4.5080    5.1760 ca        1 UN3     -0.142500
     15 C9         -0.7520    5.8230    5.1640 ca        1 UN3     -0.149000
     16 C10        -0.6650    6.5750    3.9930 ca        1 UN3     -0.142500
     17 C1         -0.1180    6.0190    2.8380 ca        1 UN3     -0.117000
     18 HN3         2.6510    1.5900   -1.3100 hn        1 UN3      0.408800
     19 H41         2.0570    3.6660   -2.4010 h1        1 UN3      0.042700
     20 H42         3.5810    3.9730   -1.4400 h1        1 UN3      0.042700
     21 H43         2.4080    5.3390   -1.7520 h1        1 UN3      0.042700
     22 H6          0.8900    1.8510    2.1210 ha        1 UN3      0.196000
     23 H7          0.6270    2.9070    4.0390 ha        1 UN3      0.146500
     24 H8         -0.3550    3.9100    6.0960 ha        1 UN3      0.118000
     25 H9         -1.1850    6.2640    6.0720 ha        1 UN3      0.114000
     26 H10        -1.0300    7.6110    3.9780 ha        1 UN3      0.118000
     27 H1         -0.0560    6.6200    1.9190 ha        1 UN3      0.146500
@<TRIPOS>BOND
     1    1    2 1   
     2    2    3 1   
     3    2    4 1   
     4    2    5 1   
     5    5    6 1   
     6    5   18 1   
     7    6    7 1   
     8    6   10 2   
     9    7    8 1   
    10    7    9 1   
    11    8   19 1   
    12    8   20 1   
    13    8   21 1   
    14    9   11 2   
    15   10   11 1   
    16   10   22 1   
    17   11   12 1   
    18   12   13 ar  
    19   12   17 ar  
    20   13   14 ar  
    21   13   23 1   
    22   14   15 ar  
    23   14   24 1   
    24   15   16 ar  
    25   15   25 1   
    26   16   17 ar  
    27   16   26 1   
    28   17   27 1   
@<TRIPOS>SUBSTRUCTURE
     1 UN3         1 TEMP              0 ****  ****    0 ROOT
