@<TRIPOS>MOLECULE
UN4
   31    33     1     0     0
SMALL
bcc


@<TRIPOS>ATOM
      1 C2          0.3210    0.1210   -0.2810 ca        1 UN4      0.730900
      2 C4          2.1050    0.1020    1.1130 ca        1 UN4      0.418800
      3 C5          1.2050    0.0500    2.2710 ca        1 UN4     -0.118200
      4 C4'        -3.0660   -0.2940    4.2190 c3        1 UN4      0.095700
      5 C3'        -5.2020   -1.4130    4.6920 c3        1 UN4     -0.163400
      6 C2'        -4.6090   -0.1210    4.1360 c3        1 UN4     -0.088400
      7 N9          3.3960    0.1020    1.6450 na        1 UN4     -0.342000
      8 N3          1.6770    0.1370   -0.1870 nb        1 UN4     -0.667000
      9 N2         -0.2240    0.1520   -1.6750 n4        1 UN4     -0.813300
     10 N1         -0.6440    0.0770    0.7050 nb        1 UN4     -0.790000
     11 C6         -0.1960    0.0370    1.9870 ca        1 UN4      0.771600
     12 O6         -1.0280   -0.0140    3.0530 os        1 UN4     -0.390100
     13 C60        -2.4560   -0.0690    2.8210 c3        1 UN4      0.117400
     14 C14        -4.0100   -2.2800    5.0760 c         1 UN4      0.695500
     15 N7          1.9520    0.0210    3.4470 nc        1 UN4     -0.488100
     16 C8          3.2390    0.0520    3.0460 cd        1 UN4      0.456700
     17 O14        -4.0470   -3.4010    5.5940 o         1 UN4     -0.591500
     18 N15        -2.8250   -1.6250    4.7320 n         1 UN4     -0.587900
     19 H4'        -2.6190    0.4780    4.9120 h1        1 UN4      0.072700
     20 H3'1       -5.8280   -1.9490    3.9380 hc        1 UN4      0.092200
     21 H3'2       -5.8280   -1.2280    5.6000 hc        1 UN4      0.092200
     22 H2'1       -4.9370    0.0480    3.0820 hc        1 UN4      0.063200
     23 H2'2       -4.9200    0.7630    4.7430 hc        1 UN4      0.063200
     24 H9          4.2430    0.1290    1.1320 hn        1 UN4      0.343700
     25 H2N1       -0.8270    0.9770   -1.7790 hn        1 UN4      0.480133
     26 H2N2       -0.7780   -0.6990   -1.8330 hn        1 UN4      0.480133
     27 H601       -2.7880    0.9160    2.4050 h1        1 UN4      0.070200
     28 H602       -2.6980   -0.9030    2.1160 h1        1 UN4      0.070200
     29 H8          4.1110    0.0410    3.7210 h5        1 UN4      0.109800
     30 H15        -1.9390   -1.8800    5.0850 hn        1 UN4      0.337500
     31 H23         0.5450    0.1960   -2.3550 hn        1 UN4      0.480133
@<TRIPOS>BOND
     1    1    8 ar  
     2    1    9 1   
     3    1   10 ar  
     4    2    3 ar  
     5    2    7 1   
     6    2    8 ar  
     7    3   11 ar  
     8    3   15 1   
     9    4    6 1   
    10    4   13 1   
    11    4   18 1   
    12    4   19 1   
    13    5    6 1   
    14    5   14 1   
    15    5   20 1   
    16    5   21 1   
    17    6   22 1   
    18    6   23 1   
    19    7   16 1   
    20    7   24 1   
    21    9   25 1   
    22    9   26 1   
    23    9   31 1   
    24   10   11 ar  
    25   11   12 1   
    26   12   13 1   
    27   13   27 1   
    28   13   28 1   
    29   14   17 2   
    30   14   18 1   
    31   15   16 2   
    32   16   29 1   
    33   18   30 1   
@<TRIPOS>SUBSTRUCTURE
     1 UN4         1 TEMP              0 ****  ****    0 ROOT
