@<TRIPOS>MOLECULE
UN4
   30    32     1     0     0
SMALL
bcc


@<TRIPOS>ATOM
      1 C2          0.3110    0.1660   -0.3060 ca        1 UN4      0.917900
      2 C4          2.1060    0.0840    1.1200 ca        1 UN4      0.478800
      3 C5          1.2220   -0.0070    2.2830 ca        1 UN4     -0.219200
      4 C4'        -3.0900   -0.2030    4.1900 c3        1 UN4      0.092700
      5 C3'        -5.1950   -1.3750    4.6750 c3        1 UN4     -0.163400
      6 C2'        -4.6330   -0.1120    4.0270 c3        1 UN4     -0.091400
      7 N9          3.4020    0.0660    1.6440 na        1 UN4     -0.385000
      8 N3          1.6880    0.1590   -0.1730 nb        1 UN4     -0.777000
      9 N2         -0.2020    0.3530   -1.5930 nv        1 UN4     -0.927500
     10 N1         -0.6300    0.0570    0.7260 nb        1 UN4     -0.838000
     11 C6         -0.1670   -0.0180    1.9890 ca        1 UN4      0.757600
     12 O6         -1.0090   -0.1170    3.0660 os        1 UN4     -0.425100
     13 C60        -2.4240   -0.1370    2.8050 c3        1 UN4      0.111400
     14 C14        -3.9800   -2.1630    5.1530 c         1 UN4      0.692500
     15 N7          1.9820   -0.0740    3.4600 nc        1 UN4     -0.501100
     16 C8          3.2580   -0.0280    3.0500 cd        1 UN4      0.391700
     17 O14        -4.0000   -3.2800    5.6910 o         1 UN4     -0.624500
     18 N15        -2.8270   -1.4220    4.9280 ns        1 UN4     -0.568900
     19 H4'        -2.7050    0.6670    4.7990 h1        1 UN4      0.075700
     20 H3'1       -5.7770   -1.9960    3.9510 hc        1 UN4      0.081200
     21 H3'2       -5.8520   -1.1400    5.5480 hc        1 UN4      0.081200
     22 H2'1       -5.0120    0.8060    4.5360 hc        1 UN4      0.059200
     23 H2'2       -4.9160   -0.0530    2.9480 hc        1 UN4      0.059200
     24 H9          4.2400    0.1190    1.1290 hn        1 UN4      0.318700
     25 H2N1        0.4190    0.1900   -2.3510 hn        1 UN4      0.430300
     26 H2N2       -1.1540    0.1070   -1.7370 hn        1 UN4      0.430300
     27 H601       -2.7270    0.8090    2.2860 h1        1 UN4      0.063700
     28 H602       -2.6780   -1.0240    2.1720 h1        1 UN4      0.063700
     29 H8          4.1360   -0.0590    3.7050 h5        1 UN4      0.074800
     30 H15        -1.9110   -1.7900    4.9830 hn        1 UN4      0.340500
@<TRIPOS>BOND
     1    1    8 ar  
     2    1    9 1   
     3    1   10 ar  
     4    2    3 ar  
     5    2    7 1   
     6    2    8 ar  
     7    3   11 ar  
     8    3   15 1   
     9    4    6 1   
    10    4   13 1   
    11    4   18 1   
    12    4   19 1   
    13    5    6 1   
    14    5   14 1   
    15    5   20 1   
    16    5   21 1   
    17    6   22 1   
    18    6   23 1   
    19    7   16 1   
    20    7   24 1   
    21    9   25 1   
    22    9   26 1   
    23   10   11 ar  
    24   11   12 1   
    25   12   13 1   
    26   13   27 1   
    27   13   28 1   
    28   14   17 2   
    29   14   18 1   
    30   15   16 2   
    31   16   29 1   
    32   18   30 1   
@<TRIPOS>SUBSTRUCTURE
     1 UN4         1 TEMP              0 ****  ****    0 ROOT
