@<TRIPOS>MOLECULE
UN4
   30    32     1     0     0
SMALL
bcc


@<TRIPOS>ATOM
      1 C2          1.9740    0.1840   -2.5490 ca        1 UN4      0.917900
      2 C4         -0.1720    0.1350   -3.3570 ca        1 UN4      0.478800
      3 C5         -0.7060   -0.1380   -2.0220 ca        1 UN4     -0.219200
      4 C4'        -0.0980   -0.8560    2.6030 c3        1 UN4      0.092700
      5 C3'         0.4250   -0.0630    4.8700 c3        1 UN4     -0.163400
      6 C2'         0.8540   -1.0760    3.8110 c3        1 UN4     -0.091400
      7 N9         -1.2900    0.1750   -4.1960 na        1 UN4     -0.385000
      8 N3          1.1450    0.3110   -3.6500 nb        1 UN4     -0.777000
      9 N2          3.3510    0.2390   -2.7820 nh        1 UN4     -0.927500
     10 N1          1.5780   -0.0490   -1.2260 nb        1 UN4     -0.838000
     11 C6          0.2630   -0.2130   -0.9860 ca        1 UN4      0.757600
     12 O6         -0.2200   -0.4540    0.2740 os        1 UN4     -0.425100
     13 C60         0.7320   -0.5310    1.3490 c3        1 UN4      0.111400
     14 C14        -0.7200    0.7250    4.2400 c         1 UN4      0.692500
     15 N7         -2.1020   -0.2580   -2.0780 nc        1 UN4     -0.501100
     16 C8         -2.4130   -0.0690   -3.3680 cd        1 UN4      0.391700
     17 O14        -1.3170    1.6810    4.7540 o         1 UN4     -0.624500
     18 N15        -1.0260    0.1850    2.9970 n         1 UN4     -0.568900
     19 H4'        -0.6900   -1.7930    2.3900 h1        1 UN4      0.075700
     20 H3'1        0.0630   -0.5610    5.8020 hc        1 UN4      0.081200
     21 H3'2        1.2510    0.6390    5.1400 hc        1 UN4      0.081200
     22 H2'1        0.7500   -2.1220    4.1870 hc        1 UN4      0.059200
     23 H2'2        1.9190   -0.9180    3.5130 hc        1 UN4      0.059200
     24 H9         -1.2850    0.3330   -5.1680 hn        1 UN4      0.318700
     25 H2N1        3.9330    0.4050   -1.9940 hn        1 UN4      0.430300
     26 H2N2        3.6450    0.6370   -3.6430 hn        1 UN4      0.430300
     27 H601        1.4590   -1.3610    1.1530 h1        1 UN4      0.063700
     28 H602        1.2740    0.4440    1.4420 h1        1 UN4      0.063700
     29 H8         -3.4270   -0.0920   -3.7850 h5        1 UN4      0.074800
     30 H15        -1.6000    0.6290    2.3250 hn        1 UN4      0.340500
@<TRIPOS>BOND
     1    1    8 ar  
     2    1    9 1   
     3    1   10 ar  
     4    2    3 ar  
     5    2    7 1   
     6    2    8 ar  
     7    3   11 ar  
     8    3   15 1   
     9    4    6 1   
    10    4   13 1   
    11    4   18 1   
    12    4   19 1   
    13    5    6 1   
    14    5   14 1   
    15    5   20 1   
    16    5   21 1   
    17    6   22 1   
    18    6   23 1   
    19    7   16 1   
    20    7   24 1   
    21    9   25 1   
    22    9   26 1   
    23   10   11 ar  
    24   11   12 1   
    25   12   13 1   
    26   13   27 1   
    27   13   28 1   
    28   14   17 2   
    29   14   18 1   
    30   15   16 2   
    31   16   29 1   
    32   18   30 1   
@<TRIPOS>SUBSTRUCTURE
     1 UN4         1 TEMP              0 ****  ****    0 ROOT
