@<TRIPOS>MOLECULE
UN4
   30    32     1     0     0
SMALL
bcc


@<TRIPOS>ATOM
      1 C2          0.3160    0.1490   -0.3080 ca        1 UN4      0.917900
      2 C4          2.1090    0.0680    1.1200 ca        1 UN4      0.478800
      3 C5          1.2240   -0.0140    2.2830 ca        1 UN4     -0.219200
      4 C4'        -3.0910   -0.1880    4.1870 c3        1 UN4      0.092700
      5 C3'        -5.1990   -1.3530    4.6760 c3        1 UN4     -0.163400
      6 C2'        -4.6330   -0.0950    4.0220 c3        1 UN4     -0.091400
      7 N9          3.4050    0.0490    1.6460 na        1 UN4     -0.385000
      8 N3          1.6940    0.1390   -0.1730 nb        1 UN4     -0.777000
      9 N2         -0.1950    0.3320   -1.5960 nh        1 UN4     -0.927500
     10 N1         -0.6260    0.0480    0.7240 nb        1 UN4     -0.838000
     11 C6         -0.1650   -0.0220    1.9870 ca        1 UN4      0.757600
     12 O6         -1.0080   -0.1140    3.0640 os        1 UN4     -0.425100
     13 C60        -2.4230   -0.1300    2.8020 c3        1 UN4      0.111400
     14 C14        -3.9860   -2.1410    5.1600 c         1 UN4      0.692500
     15 N7          1.9830   -0.0780    3.4610 nc        1 UN4     -0.501100
     16 C8          3.2590   -0.0380    3.0520 cd        1 UN4      0.391700
     17 O14        -4.0090   -3.2550    5.7020 o         1 UN4     -0.624500
     18 N15        -2.8310   -1.4040    4.9310 n         1 UN4     -0.568900
     19 H4'        -2.7040    0.6840    4.7910 h1        1 UN4      0.075700
     20 H3'1       -5.7810   -1.9760    3.9550 hc        1 UN4      0.081200
     21 H3'2       -5.8560   -1.1120    5.5470 hc        1 UN4      0.081200
     22 H2'1       -4.9150   -0.0410    2.9420 hc        1 UN4      0.059200
     23 H2'2       -5.0100    0.8280    4.5260 hc        1 UN4      0.059200
     24 H9          4.2440    0.0970    1.1320 hn        1 UN4      0.318700
     25 H2N1       -1.1470    0.0880   -1.7400 hn        1 UN4      0.430300
     26 H2N2        0.4260    0.1630   -2.3520 hn        1 UN4      0.430300
     27 H601       -2.6780   -1.0210    2.1730 h1        1 UN4      0.063700
     28 H602       -2.7230    0.8130    2.2780 h1        1 UN4      0.063700
     29 H8          4.1370   -0.0690    3.7080 h5        1 UN4      0.074800
     30 H15        -1.9150   -1.7740    4.9890 hn        1 UN4      0.340500
@<TRIPOS>BOND
     1    1    8 ar  
     2    1    9 1   
     3    1   10 ar  
     4    2    3 ar  
     5    2    7 1   
     6    2    8 ar  
     7    3   11 ar  
     8    3   15 1   
     9    4    6 1   
    10    4   13 1   
    11    4   18 1   
    12    4   19 1   
    13    5    6 1   
    14    5   14 1   
    15    5   20 1   
    16    5   21 1   
    17    6   22 1   
    18    6   23 1   
    19    7   16 1   
    20    7   24 1   
    21    9   25 1   
    22    9   26 1   
    23   10   11 ar  
    24   11   12 1   
    25   12   13 1   
    26   13   27 1   
    27   13   28 1   
    28   14   17 2   
    29   14   18 1   
    30   15   16 2   
    31   16   29 1   
    32   18   30 1   
@<TRIPOS>SUBSTRUCTURE
     1 UN4         1 TEMP              0 ****  ****    0 ROOT
