@<TRIPOS>MOLECULE
UN4
   30    25     1     0     0
SMALL
bcc


@<TRIPOS>ATOM
      1 C2          1.1890   -0.2420   -3.0560 c1        1 UN4      0.199000
      2 C4          3.0670    0.5450   -1.8590 c1        1 UN4     -0.070500
      3 C5          2.3320    0.5750   -0.7280 c1        1 UN4     -0.070500
      4 C4'        -1.4370    0.1780    2.0590 c3        1 UN4      0.016000
      5 C3'        -3.6470   -0.6360    1.9060 c3        1 UN4     -0.192000
      6 C2'        -3.0800    0.4710    2.0460 c3        1 UN4     -0.170000
      7 N9          4.3240    0.9660   -1.5540 n1        1 UN4     -0.153500
      8 N3          2.4990    0.1360   -3.0290 n1        1 UN4     -0.251000
      9 N2          0.6970   -0.5300   -4.3550 n2        1 UN4     -0.325000
     10 N1          0.4450   -0.2120   -1.9120 n2        1 UN4     -0.312000
     11 C6          1.0010    0.1910   -0.7580 c1        1 UN4      0.259000
     12 O6          0.4640    0.2210    0.5390 os        1 UN4     -0.183000
     13 C60        -0.9190   -0.0350    0.5910 c3        1 UN4     -0.039000
     14 C14        -2.5860   -1.6250    2.5160 c2        1 UN4      0.300000
     15 N7          3.1320    1.0160    0.2800 n1        1 UN4     -0.153500
     16 C8          4.3590    1.2560   -0.2340 c1        1 UN4     -0.064000
     17 O14        -2.8230   -2.7020    3.0240 o         1 UN4     -0.349000
     18 N15        -1.2750   -0.8020    2.6880 n         1 UN4     -0.378000
     19 H4'        -0.9660    0.9270    2.4760 h1        1 UN4      0.115000
     20 H3'1       -3.8620   -0.8590    0.9760 hc        1 UN4      0.120500
     21 H3'2       -4.5250   -0.6720    2.3390 hc        1 UN4      0.120500
     22 H2'1       -3.3090    1.0620    1.2980 hc        1 UN4      0.098500
     23 H2'2       -3.3530    0.8820    2.8930 hc        1 UN4      0.098500
     24 H9          5.0200    1.0400   -2.1380 DU        1 UN4      0.236500
     25 H2N1        1.1870   -0.2970   -5.0910 hn        1 UN4      0.225500
     26 H2N2       -0.1160   -0.9340   -4.4570 hn        1 UN4      0.225500
     27 H601       -1.0910   -0.9590    0.3150 h1        1 UN4      0.103000
     28 H602       -1.3870    0.5780   -0.0130 h1        1 UN4      0.103000
     29 H8          5.1330    1.5850    0.2600 DU        1 UN4      0.236500
     30 H15        -0.4720   -1.1250    2.9810 hn        1 UN4      0.254000
@<TRIPOS>BOND
     1    1    8 1   
     2    1   10 1   
     3    2    3 1   
     4    4    6 1   
     5    4   13 1   
     6    4   18 1   
     7    4   19 1   
     8    5    6 1   
     9    5   14 1   
    10    5   20 1   
    11    5   21 1   
    12    6   22 1   
    13    6   23 1   
    14    7   16 1   
    15    9   25 1   
    16    9   26 1   
    17   10   11 1   
    18   11   12 1   
    19   12   13 1   
    20   13   27 1   
    21   13   28 1   
    22   14   17 1   
    23   14   18 1   
    24   15   16 1   
    25   18   30 1   
@<TRIPOS>SUBSTRUCTURE
     1 UN4         1 TEMP              0 ****  ****    0 ROOT
