@<TRIPOS>MOLECULE
UN5
   57    59     1     0     0
SMALL
bcc


@<TRIPOS>ATOM
      1 O8          0.3940    1.7820   -0.4220 o         1 UN5     -0.441100
      2 C9          1.3060    2.2720    0.2290 c         1 UN5      0.559100
      3 N4          1.8690    3.5620   -0.2770 ny        1 UN5     -0.659800
      4 C20         3.3330    3.5230   -0.4660 c3        1 UN5      0.094100
      5 C8          1.9720    1.6410    1.4490 c3        1 UN5      0.024700
      6 N2          2.1970    2.5750    2.5500 n         1 UN5     -0.446800
      7 C11         2.9760    1.9570    3.6180 c3        1 UN5      0.119300
      8 C6          2.6170    0.5290    3.9250 ca        1 UN5     -0.078300
      9 C2          3.1690   -0.0440    5.0660 ca        1 UN5     -0.244000
     10 C5          2.9060   -1.3990    5.4100 ca        1 UN5      0.272600
     11 N1          3.4580   -1.9720    6.5210 nu        1 UN5     -0.706500
     12 S1          3.4140   -3.6310    7.0770 s6        1 UN5      1.530700
     13 O3          4.3820   -4.3130    6.3100 o         1 UN5     -0.726533
     14 O2          3.7640   -3.4920    8.4410 o         1 UN5     -0.726533
     15 O1          2.0980   -4.0910    6.8480 o         1 UN5     -0.726533
     16 C4          2.0380   -2.1330    4.5420 ca        1 UN5     -0.189000
     17 C3          1.7830   -0.2100    3.0820 ca        1 UN5     -0.190300
     18 C7          1.1770    0.3900    1.8670 c3        1 UN5     -0.024100
     19 C1          1.5030   -1.5440    3.4150 ca        1 UN5     -0.072000
     20 C10         1.1740    3.4900    2.8590 c         1 UN5      0.651100
     21 O4          0.2210    3.6090    2.0570 o         1 UN5     -0.627100
     22 C12         1.3170    4.3980    4.0610 c3        1 UN5     -0.136400
     23 C13         0.6860    5.7570    3.8080 c3        1 UN5     -0.030100
     24 C14         1.3710    6.4860    2.7020 ca        1 UN5     -0.076300
     25 C16         2.6090    7.0980    2.9130 ca        1 UN5     -0.179000
     26 C19         3.2560    7.7260    1.8490 ca        1 UN5     -0.107000
     27 C15         2.6920    7.7520    0.5800 ca        1 UN5     -0.177000
     28 C18         1.4290    7.1490    0.3470 ca        1 UN5      0.192600
     29 C17         0.7820    6.5200    1.4370 ca        1 UN5     -0.219000
     30 N3          0.8590    7.1370   -0.9190 nu        1 UN5     -0.777500
     31 S2          1.6640    6.7890   -2.3830 s6        1 UN5      1.557700
     32 O5          2.0150    5.3970   -2.2270 o         1 UN5     -0.743867
     33 O6          0.6930    6.9910   -3.3830 o         1 UN5     -0.743867
     34 O7          2.8160    7.5950   -2.4570 o         1 UN5     -0.743867
     35 HN4         1.6170    4.3230    0.3780 hn        1 UN5      0.497800
     36 H201        3.6090    2.5960   -1.0330 hx        1 UN5      0.101033
     37 H202        3.8530    3.5380    0.5250 hx        1 UN5      0.101033
     38 H203        3.6240    4.4280   -1.0790 hx        1 UN5      0.101033
     39 H8          3.0030    1.3060    1.1080 h1        1 UN5      0.099700
     40 H111        2.8820    2.5660    4.5600 h1        1 UN5      0.065200
     41 H112        4.0570    1.9940    3.2890 h1        1 UN5      0.065200
     42 H2          3.8240    0.5620    5.7090 ha        1 UN5      0.121000
     43 HN1         3.9870   -1.3430    7.0790 hn        1 UN5      0.409800
     44 H4          1.7830   -3.1790    4.7950 ha        1 UN5      0.185000
     45 H71         1.1830   -0.3390    1.0150 hc        1 UN5      0.068700
     46 H72         0.1080    0.6740    2.0610 hc        1 UN5      0.068700
     47 H1          0.8390   -2.1310    2.7620 ha        1 UN5      0.124000
     48 H121        0.8050    3.8950    4.9250 hc        1 UN5      0.079200
     49 H122        2.3980    4.5480    4.3250 hc        1 UN5      0.079200
     50 H131       -0.4010    5.6190    3.5620 hc        1 UN5      0.063700
     51 H132        0.7520    6.3560    4.7550 hc        1 UN5      0.063700
     52 H16         3.0680    7.0850    3.9110 ha        1 UN5      0.123000
     53 H19         4.2290    8.2120    2.0150 ha        1 UN5      0.128000
     54 H15         3.2250    8.2390   -0.2570 ha        1 UN5      0.181000
     55 H17        -0.2030    6.0460    1.2960 ha        1 UN5      0.142000
     56 HN3        -0.1290    7.2140   -0.9150 hn        1 UN5      0.425800
     57 H42         1.4370    3.8170   -1.2000 hn        1 UN5      0.497800
@<TRIPOS>BOND
     1    1    2 2   
     2    2    3 1   
     3    2    5 1   
     4    3    4 1   
     5    3   35 1   
     6    3   57 1   
     7    4   36 1   
     8    4   37 1   
     9    4   38 1   
    10    5    6 1   
    11    5   18 1   
    12    5   39 1   
    13    6    7 1   
    14    6   20 1   
    15    7    8 1   
    16    7   40 1   
    17    7   41 1   
    18    8    9 ar  
    19    8   17 ar  
    20    9   10 ar  
    21    9   42 1   
    22   10   11 1   
    23   10   16 ar  
    24   11   12 1   
    25   11   43 1   
    26   12   13 1   
    27   12   14 1   
    28   12   15 1   
    29   16   19 ar  
    30   16   44 1   
    31   17   18 1   
    32   17   19 ar  
    33   18   45 1   
    34   18   46 1   
    35   19   47 1   
    36   20   21 2   
    37   20   22 1   
    38   22   23 1   
    39   22   48 1   
    40   22   49 1   
    41   23   24 1   
    42   23   50 1   
    43   23   51 1   
    44   24   25 ar  
    45   24   29 ar  
    46   25   26 ar  
    47   25   52 1   
    48   26   27 ar  
    49   26   53 1   
    50   27   28 ar  
    51   27   54 1   
    52   28   29 ar  
    53   28   30 1   
    54   29   55 1   
    55   30   31 1   
    56   30   56 1   
    57   31   32 1   
    58   31   33 1   
    59   31   34 1   
@<TRIPOS>SUBSTRUCTURE
     1 UN5         1 TEMP              0 ****  ****    0 ROOT
