@<TRIPOS>MOLECULE
UN5
   56    51     1     0     0
SMALL
bcc


@<TRIPOS>ATOM
      1 O8         -0.3270   -1.3240   -3.3770 o         1 UN5     -0.396000
      2 C9          0.8690   -1.2000   -3.5270 c1        1 UN5      0.294000
      3 N4          1.4390   -1.2810   -4.8380 n2        1 UN5     -0.382000
      4 C20         0.7520   -1.9900   -5.8750 c3        1 UN5     -0.073000
      5 C8          1.8150   -1.0140   -2.2590 c3        1 UN5      0.011000
      6 N2          1.1720   -0.1970   -1.2610 n         1 UN5     -0.309000
      7 C11         1.8260    0.0290   -0.0730 c3        1 UN5      0.011000
      8 C6          2.6360   -1.1780    0.5350 c2        1 UN5     -0.070000
      9 C2          3.3110   -1.0720    1.7570 c2        1 UN5     -0.220000
     10 C5          4.1180   -2.1350    2.2130 c1        1 UN5      0.171000
     11 N1          4.9600   -1.9520    3.3860 n2        1 UN5     -0.777000
     12 S1          4.9730   -3.1010    4.5890 s4        1 UN5      2.051800
     13 O3          3.5930   -3.6560    4.7960 os        1 UN5     -1.056500
     14 O2          5.5360   -2.5420    5.8710 o         1 UN5     -0.666400
     15 O1          5.9650   -4.2000    4.2880 o         1 UN5     -0.666400
     16 C4          4.2440   -3.3130    1.4330 c2        1 UN5     -0.197000
     17 C3          2.7650   -2.3680   -0.2520 c1        1 UN5     -0.158000
     18 C7          2.2470   -2.3310   -1.7350 c2        1 UN5     -0.107000
     19 C1          3.5650   -3.4220    0.2010 c2        1 UN5     -0.082000
     20 C10        -0.1460    0.3820   -1.5100 c2        1 UN5      0.303000
     21 O4         -0.7130    0.1720   -2.5720 o         1 UN5     -0.408000
     22 C12        -0.7780    1.3380   -0.4760 c3        1 UN5     -0.167000
     23 C13        -2.1970    1.7180   -0.9340 c3        1 UN5     -0.110000
     24 C14        -2.8740    2.5970    0.1470 c2        1 UN5     -0.048000
     25 C16        -2.6340    3.9700    0.1730 c2        1 UN5     -0.210000
     26 C19        -3.3940    4.7960    1.0030 c1        1 UN5     -0.094000
     27 C15        -4.3960    4.2480    1.8080 c1        1 UN5     -0.201000
     28 C18        -4.6380    2.8780    1.7840 c1        1 UN5      0.164000
     29 C17        -3.8810    2.0500    0.9560 c1        1 UN5     -0.229000
     30 N3         -5.6180    2.3020    2.6840 n3        1 UN5     -0.784000
     31 S2         -7.2420    2.4160    2.3310 s4        1 UN5      2.051800
     32 O5         -7.5060    1.9440    0.9180 os        1 UN5     -1.056500
     33 O6         -7.7540    3.8260    2.5430 o         1 UN5     -0.669400
     34 O7         -8.0780    1.6460    3.3350 o         1 UN5     -0.669400
     35 HN4         2.2210   -0.8430   -5.0240 hn        1 UN5      0.254000
     36 H201        1.3910   -2.2510   -6.5690 h1        1 UN5      0.073667
     37 H202        0.0570   -1.4080   -6.2680 h1        1 UN5      0.073667
     38 H203        0.3330   -2.7930   -5.5000 h1        1 UN5      0.073667
     39 H8          2.5690   -0.5390   -2.6590 h1        1 UN5      0.120000
     40 H111        2.4640    0.7640   -0.2250 h1        1 UN5      0.099500
     41 H112        1.1480    0.2910    0.5900 h1        1 UN5      0.099500
     42 H2          3.1890   -0.2750    2.3160 ha        1 UN5      0.122000
     43 HN1         5.5390   -1.2460    3.4240 hn        1 UN5      0.206000
     44 H4          4.8030   -4.0510    1.7490 ha        1 UN5      0.172000
     45 H71         2.9710   -2.6460   -2.3040 ha        1 UN5      0.102000
     46 H72         1.4830   -2.9320   -1.7910 ha        1 UN5      0.102000
     47 H1          3.6530   -4.2360   -0.3360 ha        1 UN5      0.116000
     48 H121       -0.2350    2.1400   -0.4020 hc        1 UN5      0.114500
     49 H122       -0.8230    0.8990    0.3840 hc        1 UN5      0.114500
     50 H131       -2.7210    0.9090   -1.0680 hc        1 UN5      0.093500
     51 H132       -2.1450    2.2160   -1.7740 hc        1 UN5      0.093500
     52 H16        -1.9750    4.3610   -0.4340 ha        1 UN5      0.114000
     53 H19        -3.2020    5.7490    1.0470 ha        1 UN5      0.114000
     54 H15        -4.9240    4.8250    2.3860 ha        1 UN5      0.169000
     55 H17        -4.0520    1.0970    0.9380 ha        1 UN5      0.116000
     56 HN3        -5.3520    1.9320    3.4600 hn        1 UN5      0.203000
@<TRIPOS>BOND
     1    1    2 1   
     2    2    5 1   
     3    3    4 1   
     4    3   35 1   
     5    4   36 1   
     6    4   37 1   
     7    4   38 1   
     8    5    6 1   
     9    5   18 1   
    10    5   39 1   
    11    6    7 1   
    12    6   20 1   
    13    7    8 1   
    14    7   40 1   
    15    7   41 1   
    16    8    9 1   
    17    8   17 1   
    18    9   10 1   
    19    9   42 1   
    20   10   16 1   
    21   11   12 1   
    22   11   43 1   
    23   12   14 1   
    24   12   15 1   
    25   16   19 1   
    26   16   44 1   
    27   17   19 1   
    28   18   45 1   
    29   18   46 1   
    30   19   47 1   
    31   20   21 1   
    32   20   22 1   
    33   22   23 1   
    34   22   48 1   
    35   22   49 1   
    36   23   24 1   
    37   23   50 1   
    38   23   51 1   
    39   24   25 1   
    40   24   29 1   
    41   25   26 1   
    42   25   52 1   
    43   26   53 1   
    44   27   28 1   
    45   27   54 1   
    46   28   30 1   
    47   29   55 1   
    48   30   31 1   
    49   30   56 1   
    50   31   33 1   
    51   31   34 1   
@<TRIPOS>SUBSTRUCTURE
     1 UN5         1 TEMP              0 ****  ****    0 ROOT
