@<TRIPOS>MOLECULE
UN5
   56    58     1     0     0
SMALL
bcc


@<TRIPOS>ATOM
      1 O8          2.3360    5.0670   -1.0840 o         1 UN5     -0.617100
      2 C9          1.7120    4.3630   -0.2650 c         1 UN5      0.668100
      3 N4          0.6690    4.8910    0.4870 n         1 UN5     -0.537900
      4 C20         0.0730    6.1390    0.1100 c3        1 UN5      0.067300
      5 C8          2.2170    2.9520    0.0830 c3        1 UN5      0.024700
      6 N2          1.1970    1.9580    0.4020 n         1 UN5     -0.450800
      7 C11         1.7800    0.7190    0.9000 c3        1 UN5      0.125300
      8 C6          3.0960    0.3230    0.2860 ca        1 UN5     -0.075300
      9 C2          3.6500   -0.8980    0.6690 ca        1 UN5     -0.233000
     10 C5          4.9070   -1.3240    0.1650 ca        1 UN5      0.252600
     11 N1          5.4720   -2.5120    0.5670 nh        1 UN5     -0.728500
     12 S1          7.0610   -3.1400    0.2980 s6        1 UN5      1.530700
     13 O3          7.9200   -2.4550    1.1900 o         1 UN5     -0.734533
     14 O2          6.9100   -4.5150    0.6250 o         1 UN5     -0.734533
     15 O1          7.3850   -2.9030   -1.0600 o         1 UN5     -0.734533
     16 C4          5.5610   -0.4700   -0.7700 ca        1 UN5     -0.195000
     17 C3          3.7650    1.1580   -0.6140 ca        1 UN5     -0.161300
     18 C7          3.1920    2.4710   -1.0040 c3        1 UN5     -0.031100
     19 C1          4.9940    0.7360   -1.1380 ca        1 UN5     -0.085000
     20 C10         0.0020    1.9100   -0.3340 c         1 UN5      0.638100
     21 O4         -0.2300    2.7590   -1.2200 o         1 UN5     -0.611100
     22 C12        -1.0600    0.8980    0.0600 c3        1 UN5     -0.141400
     23 C13        -2.4420    1.4920   -0.1510 c3        1 UN5     -0.023100
     24 C14        -3.5270    0.6550    0.4340 ca        1 UN5     -0.053300
     25 C16        -3.5430    0.3830    1.8050 ca        1 UN5     -0.215000
     26 C19        -4.5950   -0.3570    2.3450 ca        1 UN5     -0.094000
     27 C15        -5.6350   -0.8170    1.5520 ca        1 UN5     -0.201000
     28 C18        -5.6530   -0.5390    0.1570 ca        1 UN5      0.247600
     29 C17        -4.5610    0.1960   -0.3800 ca        1 UN5     -0.226000
     30 N3         -6.6890   -0.9620   -0.6450 nh        1 UN5     -0.732500
     31 S2         -8.2200   -1.6410   -0.2260 s6        1 UN5      1.530700
     32 O5         -9.0300   -0.5700    0.2220 o         1 UN5     -0.736200
     33 O6         -8.6650   -2.1880   -1.4610 o         1 UN5     -0.736200
     34 O7         -7.9950   -2.6110    0.7820 o         1 UN5     -0.736200
     35 HN4         0.0400    4.2370    0.8960 hn        1 UN5      0.304500
     36 H201       -0.3770    6.6100    1.0240 h1        1 UN5      0.037700
     37 H202        0.8580    6.8210   -0.3110 h1        1 UN5      0.037700
     38 H203       -0.7330    6.0040   -0.6620 h1        1 UN5      0.037700
     39 H8          2.8130    3.0860    1.0420 h1        1 UN5      0.080700
     40 H111        1.0550   -0.1320    0.7600 h1        1 UN5      0.058200
     41 H112        1.9380    0.8590    2.0110 h1        1 UN5      0.058200
     42 H2          3.1020   -1.5350    1.3780 ha        1 UN5      0.119000
     43 HN1         4.8710   -3.0670    1.1320 hn        1 UN5      0.409800
     44 H4          6.5240   -0.7860   -1.2100 ha        1 UN5      0.174000
     45 H71         2.6530    2.3910   -1.9860 hc        1 UN5      0.066200
     46 H72         3.9980    3.2400   -1.1270 hc        1 UN5      0.066200
     47 H1          5.5190    1.3830   -1.8570 ha        1 UN5      0.119000
     48 H121       -0.9280   -0.0130   -0.5820 hc        1 UN5      0.074200
     49 H122       -0.9460    0.5860    1.1310 hc        1 UN5      0.074200
     50 H131       -2.4780    2.5100    0.3240 hc        1 UN5      0.051700
     51 H132       -2.6060    1.6430   -1.2520 hc        1 UN5      0.051700
     52 H16        -2.7390    0.7530    2.4540 ha        1 UN5      0.109000
     53 H19        -4.6020   -0.5810    3.4220 ha        1 UN5      0.111000
     54 H15        -6.4500   -1.4130    1.9980 ha        1 UN5      0.170000
     55 H17        -4.5330    0.4160   -1.4570 ha        1 UN5      0.119000
     56 HN3        -6.5290   -0.8050   -1.6130 hn        1 UN5      0.409800
@<TRIPOS>BOND
     1    1    2 2   
     2    2    3 1   
     3    2    5 1   
     4    3    4 1   
     5    3   35 1   
     6    4   36 1   
     7    4   37 1   
     8    4   38 1   
     9    5    6 1   
    10    5   18 1   
    11    5   39 1   
    12    6    7 1   
    13    6   20 1   
    14    7    8 1   
    15    7   40 1   
    16    7   41 1   
    17    8    9 ar  
    18    8   17 ar  
    19    9   10 ar  
    20    9   42 1   
    21   10   11 1   
    22   10   16 ar  
    23   11   12 1   
    24   11   43 1   
    25   12   13 1   
    26   12   14 1   
    27   12   15 1   
    28   16   19 ar  
    29   16   44 1   
    30   17   18 1   
    31   17   19 ar  
    32   18   45 1   
    33   18   46 1   
    34   19   47 1   
    35   20   21 2   
    36   20   22 1   
    37   22   23 1   
    38   22   48 1   
    39   22   49 1   
    40   23   24 1   
    41   23   50 1   
    42   23   51 1   
    43   24   25 ar  
    44   24   29 ar  
    45   25   26 ar  
    46   25   52 1   
    47   26   27 ar  
    48   26   53 1   
    49   27   28 ar  
    50   27   54 1   
    51   28   29 ar  
    52   28   30 1   
    53   29   55 1   
    54   30   31 1   
    55   30   56 1   
    56   31   32 1   
    57   31   33 1   
    58   31   34 1   
@<TRIPOS>SUBSTRUCTURE
     1 UN5         1 TEMP              0 ****  ****    0 ROOT
