@<TRIPOS>MOLECULE
UN5
   59    60     1     0     0
SMALL
bcc


@<TRIPOS>ATOM
      1 O8          0.2540   -0.6590   -0.9720 o         1 UN5     -0.403100
      2 C9          1.3540   -0.2900   -0.6000 c         1 UN5      0.562100
      3 N4          2.4210   -0.1290   -1.6660 n4        1 UN5     -0.669800
      4 C20         2.2730   -1.0770   -2.7890 c3        1 UN5      0.080100
      5 C8          1.8020   -0.0320    0.8360 c3        1 UN5      0.023700
      6 N2          2.5800    1.1920    1.0080 n         1 UN5     -0.456800
      7 C11         3.0660    1.2790    2.3830 c3        1 UN5      0.098300
      8 C6          1.9670    1.1630    3.3990 ca        1 UN5     -0.109300
      9 C2          2.1130    1.8010    4.6280 ca        1 UN5     -0.097000
     10 C5          1.1140    1.6740    5.6140 ca        1 UN5      0.067600
     11 N1          1.2640    2.3810    6.8490 nh        1 UN5     -0.901200
     12 S1          3.4950    2.6960    7.7090 s4        1 UN5      1.964600
     13 O3          4.0590    1.5870    7.2040 o         1 UN5     -0.519400
     14 O2          3.6060    3.8560    6.9340 os        1 UN5     -0.693500
     15 O1          3.0690    2.8130    8.9740 o         1 UN5     -0.519400
     16 C4         -0.0100    0.8680    5.3460 ca        1 UN5     -0.125000
     17 C3          0.8130    0.4210    3.1100 ca        1 UN5     -0.088300
     18 C7          0.5640   -0.1340    1.7510 c3        1 UN5     -0.052100
     19 C1         -0.1560    0.2570    4.1040 ca        1 UN5     -0.100000
     20 C10         2.1370    2.3770    0.3680 c         1 UN5      0.665100
     21 O4          1.4890    2.2490   -0.6950 o         1 UN5     -0.648100
     22 C12         2.5590    3.7170    0.9090 c3        1 UN5     -0.154400
     23 C13         1.8130    4.8690    0.2540 c3        1 UN5     -0.022100
     24 C14         2.1900    6.1380    0.9410 ca        1 UN5     -0.076300
     25 C16         2.8640    7.1540    0.2580 ca        1 UN5     -0.140000
     26 C19         3.2830    8.2900    0.9490 ca        1 UN5     -0.097000
     27 C15         3.0590    8.4170    2.3160 ca        1 UN5     -0.156000
     28 C18         2.3750    7.4010    3.0170 ca        1 UN5      0.101600
     29 C17         1.9090    6.2800    2.3010 ca        1 UN5     -0.150000
     30 N3          2.2340    7.4270    4.4250 nh        1 UN5     -0.855200
     31 S2          3.2310    5.3080    5.7860 s6        1 UN5      1.780300
     32 O5          3.5930    4.6040    4.6630 o         1 UN5     -0.699533
     33 O6          4.0580    6.2130    6.3700 o         1 UN5     -0.699533
     34 O7          1.9030    5.1990    6.1510 o         1 UN5     -0.699533
     35 HN4         3.3460   -0.2290   -1.2370 hn        1 UN5      0.474800
     36 H201        1.2380   -0.9860   -3.2210 hx        1 UN5      0.110367
     37 H202        3.0340   -0.8380   -3.5780 hx        1 UN5      0.110367
     38 H203        2.4250   -2.1260   -2.4190 hx        1 UN5      0.110367
     39 H8          2.5010   -0.8900    1.1020 h1        1 UN5      0.106700
     40 H111        3.7900    0.4230    2.5380 h1        1 UN5      0.099200
     41 H112        3.6510    2.2330    2.5280 h1        1 UN5      0.099200
     42 H2          3.0080    2.4300    4.8020 ha        1 UN5      0.180000
     43 HN1         1.0040    3.3560    6.7060 hn        1 UN5      0.424300
     44 H4         -0.7920    0.7260    6.1100 ha        1 UN5      0.153000
     45 H71        -0.2960    0.4240    1.2850 hc        1 UN5      0.089200
     46 H72         0.2640   -1.2140    1.8180 hc        1 UN5      0.089200
     47 H1         -1.0540   -0.3480    3.8990 ha        1 UN5      0.152000
     48 H121        3.6650    3.8350    0.7410 hc        1 UN5      0.104200
     49 H122        2.3820    3.7550    2.0220 hc        1 UN5      0.104200
     50 H131        2.0610    4.9140   -0.8380 hc        1 UN5      0.064700
     51 H132        0.7060    4.6990    0.3370 hc        1 UN5      0.064700
     52 H16         3.0660    7.0590   -0.8190 ha        1 UN5      0.135000
     53 H19         3.8080    9.0940    0.4090 ha        1 UN5      0.143000
     54 H15         3.4280    9.3080    2.8470 ha        1 UN5      0.144000
     55 H17         1.3450    5.4920    2.8250 ha        1 UN5      0.135000
     56 HN3         2.5730    8.2800    4.8280 hn        1 UN5      0.398300
     57 H42         2.3320    0.8440   -2.0170 hn        1 UN5      0.474800
     58 H12         0.6710    1.9850    7.5590 hn        1 UN5      0.424300
     59 H32         1.2900    7.2430    4.7150 hn        1 UN5      0.398300
@<TRIPOS>BOND
     1    1    2 2   
     2    2    3 1   
     3    2    5 1   
     4    3    4 1   
     5    3   35 1   
     6    3   57 1   
     7    4   36 1   
     8    4   37 1   
     9    4   38 1   
    10    5    6 1   
    11    5   18 1   
    12    5   39 1   
    13    6    7 1   
    14    6   20 1   
    15    7    8 1   
    16    7   40 1   
    17    7   41 1   
    18    8    9 ar  
    19    8   17 ar  
    20    9   10 ar  
    21    9   42 1   
    22   10   11 1   
    23   10   16 ar  
    24   11   43 1   
    25   11   58 1   
    26   12   13 1   
    27   12   14 1   
    28   12   15 1   
    29   14   31 1   
    30   16   19 ar  
    31   16   44 1   
    32   17   18 1   
    33   17   19 ar  
    34   18   45 1   
    35   18   46 1   
    36   19   47 1   
    37   20   21 2   
    38   20   22 1   
    39   22   23 1   
    40   22   48 1   
    41   22   49 1   
    42   23   24 1   
    43   23   50 1   
    44   23   51 1   
    45   24   25 ar  
    46   24   29 ar  
    47   25   26 ar  
    48   25   52 1   
    49   26   27 ar  
    50   26   53 1   
    51   27   28 ar  
    52   27   54 1   
    53   28   29 ar  
    54   28   30 1   
    55   29   55 1   
    56   30   56 1   
    57   30   59 1   
    58   31   32 1   
    59   31   33 1   
    60   31   34 1   
@<TRIPOS>SUBSTRUCTURE
     1 UN5         1 TEMP              0 ****  ****    0 ROOT
