@<TRIPOS>MOLECULE
UN5
   57    59     1     0     0
SMALL
bcc


@<TRIPOS>ATOM
      1 O8          0.6600    1.6610   -0.5210 o         1 UN5     -0.441100
      2 C9          1.4900    2.2180    0.1840 c         1 UN5      0.559100
      3 N4          1.9810    3.5500   -0.2880 n4        1 UN5     -0.659800
      4 C20         3.4530    3.6250   -0.3890 c3        1 UN5      0.094100
      5 C8          2.1270    1.6370    1.4440 c3        1 UN5      0.024700
      6 N2          2.2130    2.5820    2.5550 n         1 UN5     -0.446800
      7 C11         2.9700    2.0220    3.6680 c3        1 UN5      0.119300
      8 C6          2.7040    0.5710    3.9560 ca        1 UN5     -0.078300
      9 C2          3.2270    0.0380    5.1300 ca        1 UN5     -0.244000
     10 C5          3.0470   -1.3340    5.4590 ca        1 UN5      0.272600
     11 N1          3.5710   -1.8670    6.6030 nh        1 UN5     -0.706500
     12 S1          3.6210   -3.5250    7.1590 s6        1 UN5      1.530700
     13 O3          4.6820   -4.1300    6.4540 o         1 UN5     -0.726533
     14 O2          3.8740   -3.3630    8.5420 o         1 UN5     -0.726533
     15 O1          2.3600   -4.0830    6.8510 o         1 UN5     -0.726533
     16 C4          2.2920   -2.1300    4.5420 ca        1 UN5     -0.189000
     17 C3          1.9810   -0.2280    3.0650 ca        1 UN5     -0.190300
     18 C7          1.4070    0.3280    1.8140 c3        1 UN5     -0.024100
     19 C1          1.7840   -1.5810    3.3830 ca        1 UN5     -0.072000
     20 C10         1.1050    3.4140    2.8000 c         1 UN5      0.651100
     21 O4          0.1960    3.4620    1.9410 o         1 UN5     -0.627100
     22 C12         1.1050    4.3270    4.0070 c3        1 UN5     -0.136400
     23 C13         0.3860    5.6340    3.7140 c3        1 UN5     -0.030100
     24 C14         1.0790    6.4170    2.6500 ca        1 UN5     -0.076300
     25 C16         2.2490    7.1240    2.9350 ca        1 UN5     -0.179000
     26 C19         2.9090    7.8030    1.9110 ca        1 UN5     -0.107000
     27 C15         2.4220    7.7900    0.6100 ca        1 UN5     -0.177000
     28 C18         1.2270    7.0900    0.3010 ca        1 UN5      0.192600
     29 C17         0.5660    6.4090    1.3520 ca        1 UN5     -0.219000
     30 N3          0.7380    7.0370   -0.9960 nh        1 UN5     -0.777500
     31 S2          1.6550    6.7580   -2.4090 s6        1 UN5      1.557700
     32 O5          2.1030    5.3970   -2.2290 o         1 UN5     -0.743867
     33 O6          0.7330    6.8870   -3.4650 o         1 UN5     -0.743867
     34 O7          2.7420    7.6510   -2.4130 o         1 UN5     -0.743867
     35 HN4         1.6320    4.2870    0.3490 hn        1 UN5      0.497800
     36 H201        3.9090    3.6760    0.6330 hx        1 UN5      0.101033
     37 H202        3.8330    2.7240   -0.9360 hx        1 UN5      0.101033
     38 H203        3.7090    4.5510   -0.9840 hx        1 UN5      0.101033
     39 H8          3.2000    1.3830    1.1660 h1        1 UN5      0.099700
     40 H111        4.0630    2.1420    3.4060 h1        1 UN5      0.065200
     41 H112        2.7740    2.6200    4.6030 h1        1 UN5      0.065200
     42 H2          3.7930    0.6910    5.8110 ha        1 UN5      0.121000
     43 HN1         4.0160   -1.2010    7.1920 hn        1 UN5      0.409800
     44 H4          2.1030   -3.1930    4.7810 ha        1 UN5      0.185000
     45 H71         0.3090    0.5280    1.9420 hc        1 UN5      0.068700
     46 H72         1.5210   -0.3960    0.9650 hc        1 UN5      0.068700
     47 H1          1.2070   -2.2140    2.6920 ha        1 UN5      0.124000
     48 H121        2.1520    4.5590    4.3350 hc        1 UN5      0.079200
     49 H122        0.5820    3.7830    4.8390 hc        1 UN5      0.079200
     50 H131        0.3480    6.2340    4.6620 hc        1 UN5      0.063700
     51 H132       -0.6700    5.4130    3.4030 hc        1 UN5      0.063700
     52 H16         2.6470    7.1440    3.9590 ha        1 UN5      0.123000
     53 H19         3.8290    8.3630    2.1350 ha        1 UN5      0.128000
     54 H15         2.9660    8.3190   -0.1940 ha        1 UN5      0.181000
     55 H17        -0.3690    5.8600    1.1520 ha        1 UN5      0.142000
     56 HN3        -0.2520    7.0370   -1.0530 hn        1 UN5      0.425800
     57 H42         1.5880    3.7740   -1.2360 hn        1 UN5      0.497800
@<TRIPOS>BOND
     1    1    2 2   
     2    2    3 1   
     3    2    5 1   
     4    3    4 1   
     5    3   35 1   
     6    3   57 1   
     7    4   36 1   
     8    4   37 1   
     9    4   38 1   
    10    5    6 1   
    11    5   18 1   
    12    5   39 1   
    13    6    7 1   
    14    6   20 1   
    15    7    8 1   
    16    7   40 1   
    17    7   41 1   
    18    8    9 ar  
    19    8   17 ar  
    20    9   10 ar  
    21    9   42 1   
    22   10   11 1   
    23   10   16 ar  
    24   11   12 1   
    25   11   43 1   
    26   12   13 1   
    27   12   14 1   
    28   12   15 1   
    29   16   19 ar  
    30   16   44 1   
    31   17   18 1   
    32   17   19 ar  
    33   18   45 1   
    34   18   46 1   
    35   19   47 1   
    36   20   21 2   
    37   20   22 1   
    38   22   23 1   
    39   22   48 1   
    40   22   49 1   
    41   23   24 1   
    42   23   50 1   
    43   23   51 1   
    44   24   25 ar  
    45   24   29 ar  
    46   25   26 ar  
    47   25   52 1   
    48   26   27 ar  
    49   26   53 1   
    50   27   28 ar  
    51   27   54 1   
    52   28   29 ar  
    53   28   30 1   
    54   29   55 1   
    55   30   31 1   
    56   30   56 1   
    57   31   32 1   
    58   31   33 1   
    59   31   34 1   
@<TRIPOS>SUBSTRUCTURE
     1 UN5         1 TEMP              0 ****  ****    0 ROOT
