@<TRIPOS>MOLECULE
UN6
   45    46     1     0     0
SMALL
bcc


@<TRIPOS>ATOM
      1 O7         -9.2900    0.7790   -0.1250 o         1 UN6     -0.735533
      2 S1         -8.6920   -0.3740    0.4390 s6        1 UN6      1.530700
      3 O5         -9.3240   -1.5800    0.0270 o         1 UN6     -0.735533
      4 O6         -8.5190   -0.2680    1.8410 o         1 UN6     -0.735533
      5 N1         -7.1210   -0.5140   -0.2660 nh        1 UN6     -0.731500
      6 C5         -5.9580    0.1690    0.0060 ca        1 UN6      0.247600
      7 C4         -5.8640    1.0650    1.1070 ca        1 UN6     -0.197000
      8 C1         -4.6880    1.7560    1.3520 ca        1 UN6     -0.095000
      9 C2         -4.8010    0.0010   -0.8030 ca        1 UN6     -0.224000
     10 C6         -3.6300    0.7080   -0.5410 ca        1 UN6     -0.070300
     11 C3         -3.5670    1.5930    0.5370 ca        1 UN6     -0.210000
     12 C7         -2.4530    0.5410   -1.4590 c3        1 UN6      0.146300
     13 N2         -1.2190    0.2520   -0.7750 n         1 UN6     -0.574900
     14 C8         -0.0180    0.1910   -1.4470 c         1 UN6      0.650100
     15 O1          0.0270    0.3640   -2.6840 o         1 UN6     -0.633100
     16 C9          1.2240   -0.0870   -0.6190 c3        1 UN6     -0.144400
     17 C10         2.4180   -0.3830   -1.5080 c3        1 UN6     -0.024100
     18 C11         3.6350   -0.7010   -0.7090 ca        1 UN6     -0.052300
     19 C14         4.7350    0.1540   -0.7420 ca        1 UN6     -0.228000
     20 C15         5.9220   -0.1410   -0.0180 ca        1 UN6      0.245600
     21 N3          7.0120    0.6990   -0.0660 nh        1 UN6     -0.733500
     22 S2          8.6040    0.5000    0.5680 s6        1 UN6      1.530700
     23 O4          9.2860   -0.3810   -0.3060 o         1 UN6     -0.736867
     24 O3          8.4800   -0.0230    1.8790 o         1 UN6     -0.736867
     25 O2          9.1210    1.8250    0.5260 o         1 UN6     -0.736867
     26 C12         5.9390   -1.3330    0.7580 ca        1 UN6     -0.202000
     27 C16         4.8360   -2.1720    0.7780 ca        1 UN6     -0.095000
     28 C13         3.6840   -1.8730    0.0510 ca        1 UN6     -0.213000
     29 HN1        -7.0320   -1.1710   -1.0070 hn        1 UN6      0.408800
     30 H4         -6.7320    1.1960    1.7760 ha        1 UN6      0.170000
     31 H1         -4.6380    2.4460    2.2070 ha        1 UN6      0.113000
     32 H2         -4.8300   -0.6950   -1.6550 ha        1 UN6      0.120000
     33 H3         -2.6510    2.1630    0.7380 ha        1 UN6      0.116000
     34 H71        -2.3210    1.4910   -2.0580 h1        1 UN6      0.047700
     35 H72        -2.6530   -0.2880   -2.2000 h1        1 UN6      0.047700
     36 HN2        -1.2470    0.1360    0.2080 hn        1 UN6      0.314500
     37 H91         1.0430   -0.9560    0.0680 hc        1 UN6      0.064200
     38 H92         1.4370    0.8130    0.0160 hc        1 UN6      0.064200
     39 H101        2.6010    0.4990   -2.1780 hc        1 UN6      0.055200
     40 H102        2.1710   -1.2520   -2.1750 hc        1 UN6      0.055200
     41 H14         4.6820    1.0720   -1.3460 ha        1 UN6      0.118000
     42 HN3         6.8440    1.5370   -0.5730 hn        1 UN6      0.408800
     43 H12         6.8330   -1.5790    1.3560 ha        1 UN6      0.167000
     44 H16         4.8720   -3.0910    1.3820 ha        1 UN6      0.110000
     45 H13         2.8220   -2.5530    0.0720 ha        1 UN6      0.111000
@<TRIPOS>BOND
     1    1    2 1   
     2    2    3 1   
     3    2    4 1   
     4    2    5 1   
     5    5    6 1   
     6    5   29 1   
     7    6    7 ar  
     8    6    9 ar  
     9    7    8 ar  
    10    7   30 1   
    11    8   11 ar  
    12    8   31 1   
    13    9   10 ar  
    14    9   32 1   
    15   10   11 ar  
    16   10   12 1   
    17   11   33 1   
    18   12   13 1   
    19   12   34 1   
    20   12   35 1   
    21   13   14 1   
    22   13   36 1   
    23   14   15 2   
    24   14   16 1   
    25   16   17 1   
    26   16   37 1   
    27   16   38 1   
    28   17   18 1   
    29   17   39 1   
    30   17   40 1   
    31   18   19 ar  
    32   18   28 ar  
    33   19   20 ar  
    34   19   41 1   
    35   20   21 1   
    36   20   26 ar  
    37   21   22 1   
    38   21   42 1   
    39   22   23 1   
    40   22   24 1   
    41   22   25 1   
    42   26   27 ar  
    43   26   43 1   
    44   27   28 ar  
    45   27   44 1   
    46   28   45 1   
@<TRIPOS>SUBSTRUCTURE
     1 UN6         1 TEMP              0 ****  ****    0 ROOT
