@<TRIPOS>MOLECULE
UN6
   48    47     1     0     0
SMALL
bcc


@<TRIPOS>ATOM
      1 O7          2.7020   -5.6060   -1.9530 o         1 UN6     -0.977000
      2 S1          3.2590   -4.8200   -0.9720 s4        1 UN6      2.886500
      3 O5          4.5840   -4.5740   -1.0190 o         1 UN6     -0.977000
      4 O6          2.4900   -4.5210    0.0970 o         1 UN6     -0.977000
      5 N1          2.6980   -2.5510   -1.9490 nh        1 UN6     -0.382000
      6 C5          2.5710   -2.7400   -3.3540 ca        1 UN6     -0.029000
      7 C4          3.3450   -2.0280   -4.2930 ca        1 UN6     -0.112000
      8 C1          3.3130   -2.3900   -5.6380 ca        1 UN6     -0.098000
      9 C2          1.7280   -3.7710   -3.8090 ca        1 UN6     -0.137000
     10 C6          1.7840   -4.1860   -5.1410 ca        1 UN6     -0.122000
     11 C3          2.5610   -3.4860   -6.0660 ca        1 UN6     -0.091000
     12 C7          1.0490   -5.4300   -5.5210 c3        1 UN6     -0.071000
     13 N2          1.5320   -6.5980   -4.7050 n4        1 UN6     -0.113000
     14 C8          0.4360   -7.4210   -4.0900 c2        1 UN6      0.261000
     15 O1         -0.6670   -7.3930   -4.6190 o         1 UN6     -0.191000
     16 C9          0.8180   -8.2070   -2.8650 c3        1 UN6     -0.189000
     17 C10         1.3540   -9.5810   -3.2280 c3        1 UN6     -0.130000
     18 C11         2.7100   -9.5290   -3.8410 ca        1 UN6     -0.097000
     19 C14         2.8580   -9.7190   -5.2170 ca        1 UN6     -0.161000
     20 C15         4.1390   -9.6820   -5.8060 ca        1 UN6     -0.019000
     21 N3          4.2590   -9.7840   -7.2220 nh        1 UN6     -0.388000
     22 S2          3.2580   -7.8660   -8.4090 s4        1 UN6      2.886500
     23 O4          2.6100   -7.3390   -7.3190 o         1 UN6     -0.977000
     24 O3          2.5740   -8.7120   -9.2080 o         1 UN6     -0.977000
     25 O2          4.4630   -7.3570   -8.7420 o         1 UN6     -0.977000
     26 C12         5.2670   -9.4770   -4.9880 ca        1 UN6     -0.134000
     27 C16         5.1070   -9.3030   -3.6150 ca        1 UN6     -0.095000
     28 C13         3.8390   -9.3270   -3.0400 ca        1 UN6     -0.125000
     29 HN1         3.4020   -1.8670   -1.7310 hn        1 UN6      0.204500
     30 H4          3.9890   -1.1940   -3.9700 ha        1 UN6      0.159000
     31 H1          3.9070   -1.8170   -6.3690 ha        1 UN6      0.163000
     32 H2          1.0490   -4.2820   -3.1060 ha        1 UN6      0.145000
     33 H3          2.5880   -3.7940   -7.1220 ha        1 UN6      0.152000
     34 H71        -0.0590   -5.2990   -5.3470 hx        1 UN6      0.159500
     35 H72         1.2120   -5.6860   -6.6090 hx        1 UN6      0.159500
     36 HN2         2.0910   -7.2220   -5.3170 hn        1 UN6      0.288500
     37 H91         1.5680   -7.6420   -2.2430 hc        1 UN6      0.154000
     38 H92        -0.1200   -8.3270   -2.2520 hc        1 UN6      0.154000
     39 H101        1.4010  -10.1890   -2.2810 hc        1 UN6      0.126000
     40 H102        0.6310  -10.1000   -3.9140 hc        1 UN6      0.126000
     41 H14         1.9690   -9.9190   -5.8370 ha        1 UN6      0.148000
     42 HN3         5.2230   -9.8510   -7.5030 hn        1 UN6      0.206500
     43 H12         6.2800   -9.4550   -5.4220 ha        1 UN6      0.158000
     44 H16         5.9960   -9.1540   -2.9800 ha        1 UN6      0.160000
     45 H13         3.7240   -9.2030   -1.9520 ha        1 UN6      0.146000
     46 H121        1.8230   -2.2820   -1.5300 hn        1 UN6      0.204500
     47 H22         2.1450   -6.2590   -3.9400 hn        1 UN6      0.288500
     48 H32         3.7480  -10.5790   -7.5730 hn        1 UN6      0.206500
@<TRIPOS>BOND
     1    1    2 1   
     2    2    3 1   
     3    2    4 1   
     4    5    6 1   
     5    5   29 1   
     6    5   46 1   
     7    6    7 1   
     8    6    9 1   
     9    7    8 1   
    10    7   30 1   
    11    8   11 1   
    12    8   31 1   
    13    9   10 1   
    14    9   32 1   
    15   10   11 1   
    16   10   12 1   
    17   11   33 1   
    18   12   13 1   
    19   12   34 1   
    20   12   35 1   
    21   13   14 1   
    22   13   36 1   
    23   13   47 1   
    24   14   15 1   
    25   14   16 1   
    26   16   17 1   
    27   16   37 1   
    28   16   38 1   
    29   17   18 1   
    30   17   39 1   
    31   17   40 1   
    32   18   19 1   
    33   18   28 1   
    34   19   20 1   
    35   19   41 1   
    36   20   21 1   
    37   20   26 1   
    38   21   42 1   
    39   21   48 1   
    40   22   23 1   
    41   22   24 1   
    42   22   25 1   
    43   26   27 1   
    44   26   43 1   
    45   27   28 1   
    46   27   44 1   
    47   28   45 1   
@<TRIPOS>SUBSTRUCTURE
     1 UN6         1 TEMP              0 ****  ****    0 ROOT
