@<TRIPOS>MOLECULE
UN6
   46    47     1     0     0
SMALL
bcc


@<TRIPOS>ATOM
      1 O7         -0.2080    1.2650   -1.5500 o         1 UN6     -0.719867
      2 S1          0.6880    0.5120   -0.7700 s6        1 UN6      1.531700
      3 O5          0.2880    0.3360    0.5710 o         1 UN6     -0.719867
      4 O6          2.0390    0.8780   -0.9490 o         1 UN6     -0.719867
      5 N1          0.5690   -1.1360   -1.3930 nh        1 UN6     -0.691500
      6 C5          1.2110   -1.7350   -2.4340 ca        1 UN6      0.273600
      7 C4          2.1580   -1.0230   -3.2420 ca        1 UN6     -0.154000
      8 C1          2.8040   -1.6420   -4.2920 ca        1 UN6     -0.090000
      9 C2          0.9850   -3.0990   -2.7620 ca        1 UN6     -0.271000
     10 C6          1.6680   -3.7030   -3.8210 ca        1 UN6     -0.142300
     11 C3          2.5790   -2.9930   -4.5940 ca        1 UN6     -0.183000
     12 C7          1.4260   -5.1490   -4.0820 c3        1 UN6      0.186100
     13 N2          2.0600   -5.9600   -2.9790 n4        1 UN6     -0.691800
     14 C8          1.7130   -7.4260   -3.0870 c         1 UN6      0.545100
     15 O1          0.7310   -7.7760   -2.4470 o         1 UN6     -0.432100
     16 C9          2.6240   -8.2450   -3.9460 c3        1 UN6     -0.154400
     17 C10         2.1390   -9.6850   -4.0490 c3        1 UN6     -0.018100
     18 C11         3.1030  -10.4590   -4.8800 ca        1 UN6     -0.080300
     19 C14         3.1340  -10.2460   -6.2580 ca        1 UN6     -0.256000
     20 C15         4.0550  -10.9410   -7.0870 ca        1 UN6      0.265600
     21 N3          4.0980  -10.7310   -8.4380 nh        1 UN6     -0.709500
     22 S2          5.1050  -11.4700   -9.6610 s6        1 UN6      1.530700
     23 O4          4.5170  -12.7200   -9.9410 o         1 UN6     -0.726533
     24 O3          6.3950  -11.5770   -9.0940 o         1 UN6     -0.726533
     25 O2          5.0030  -10.5380  -10.7220 o         1 UN6     -0.726533
     26 C12         4.9420  -11.8610   -6.4480 ca        1 UN6     -0.180000
     27 C16         4.8820  -12.0650   -5.0830 ca        1 UN6     -0.089000
     28 C13         3.9700  -11.3700   -4.2810 ca        1 UN6     -0.210000
     29 HN1        -0.0640   -1.7290   -0.9080 hn        1 UN6      0.409800
     30 H4          2.3800    0.0350   -3.0010 ha        1 UN6      0.194000
     31 H1          3.5180   -1.0680   -4.9040 ha        1 UN6      0.138000
     32 H2          0.2410   -3.6770   -2.1950 ha        1 UN6      0.116000
     33 H3          3.1060   -3.4660   -5.4330 ha        1 UN6      0.125000
     34 H71         0.3230   -5.3850   -4.0740 hx        1 UN6      0.098700
     35 H72         1.8750   -5.4810   -5.0590 hx        1 UN6      0.098700
     36 HN2         1.7240   -5.5800   -2.0830 hn        1 UN6      0.457800
     37 H91         2.6830   -7.7960   -4.9770 hc        1 UN6      0.106200
     38 H92         3.6590   -8.2290   -3.5050 hc        1 UN6      0.106200
     39 H101        2.0500  -10.1270   -3.0220 hc        1 UN6      0.061200
     40 H102        1.1180   -9.7040   -4.5150 hc        1 UN6      0.061200
     41 H14         2.4240   -9.5390   -6.7090 ha        1 UN6      0.110000
     42 HN3         3.4450  -10.0560   -8.7640 hn        1 UN6      0.407800
     43 H12         5.6920  -12.3990   -7.0580 ha        1 UN6      0.181000
     44 H16         5.5700  -12.7860   -4.6140 ha        1 UN6      0.123000
     45 H13         3.9370  -11.5490   -3.1990 ha        1 UN6      0.112000
     46 H22         3.0760   -5.8350   -3.0200 hn        1 UN6      0.457800
@<TRIPOS>BOND
     1    1    2 1   
     2    2    3 1   
     3    2    4 1   
     4    2    5 1   
     5    5    6 1   
     6    5   29 1   
     7    6    7 ar  
     8    6    9 ar  
     9    7    8 ar  
    10    7   30 1   
    11    8   11 ar  
    12    8   31 1   
    13    9   10 ar  
    14    9   32 1   
    15   10   11 ar  
    16   10   12 1   
    17   11   33 1   
    18   12   13 1   
    19   12   34 1   
    20   12   35 1   
    21   13   14 1   
    22   13   36 1   
    23   13   46 1   
    24   14   15 2   
    25   14   16 1   
    26   16   17 1   
    27   16   37 1   
    28   16   38 1   
    29   17   18 1   
    30   17   39 1   
    31   17   40 1   
    32   18   19 ar  
    33   18   28 ar  
    34   19   20 ar  
    35   19   41 1   
    36   20   21 1   
    37   20   26 ar  
    38   21   22 1   
    39   21   42 1   
    40   22   23 1   
    41   22   24 1   
    42   22   25 1   
    43   26   27 ar  
    44   26   43 1   
    45   27   28 ar  
    46   27   44 1   
    47   28   45 1   
@<TRIPOS>SUBSTRUCTURE
     1 UN6         1 TEMP              0 ****  ****    0 ROOT
