@<TRIPOS>MOLECULE
UN6
   46    47     1     0     0
SMALL
bcc


@<TRIPOS>ATOM
      1 O7         -0.1810    1.2800   -1.5660 o         1 UN6     -0.719867
      2 S1          0.6990    0.5180   -0.7770 s6        1 UN6      1.531700
      3 O5          0.2800    0.3430    0.5590 o         1 UN6     -0.719867
      4 O6          2.0550    0.8740   -0.9370 o         1 UN6     -0.719867
      5 N1          0.5750   -1.1270   -1.4040 nu        1 UN6     -0.691500
      6 C5          1.2250   -1.7290   -2.4390 ca        1 UN6      0.273600
      7 C4          2.1870   -1.0220   -3.2350 ca        1 UN6     -0.154000
      8 C1          2.8400   -1.6440   -4.2780 ca        1 UN6     -0.090000
      9 C2          0.9930   -3.0900   -2.7720 ca        1 UN6     -0.271000
     10 C6          1.6850   -3.6980   -3.8240 ca        1 UN6     -0.142300
     11 C3          2.6100   -2.9930   -4.5850 ca        1 UN6     -0.183000
     12 C7          1.4360   -5.1410   -4.0900 c3        1 UN6      0.186100
     13 N2          2.0520   -5.9590   -2.9820 ny        1 UN6     -0.691800
     14 C8          1.6960   -7.4230   -3.0960 c         1 UN6      0.545100
     15 O1          0.7060   -7.7680   -2.4680 o         1 UN6     -0.432100
     16 C9          2.6110   -8.2450   -3.9480 c3        1 UN6     -0.154400
     17 C10         2.1210   -9.6830   -4.0540 c3        1 UN6     -0.018100
     18 C11         3.0860  -10.4610   -4.8800 ca        1 UN6     -0.080300
     19 C14         3.1230  -10.2490   -6.2580 ca        1 UN6     -0.256000
     20 C15         4.0460  -10.9470   -7.0830 ca        1 UN6      0.265600
     21 N3          4.0950  -10.7370   -8.4340 nu        1 UN6     -0.709500
     22 S2          5.1060  -11.4790   -9.6520 s6        1 UN6      1.530700
     23 O4          4.5160  -12.7290   -9.9330 o         1 UN6     -0.726533
     24 O3          6.3930  -11.5880   -9.0790 o         1 UN6     -0.726533
     25 O2          5.0100  -10.5490  -10.7150 o         1 UN6     -0.726533
     26 C12         4.9270  -11.8700   -6.4390 ca        1 UN6     -0.180000
     27 C16         4.8610  -12.0730   -5.0750 ca        1 UN6     -0.089000
     28 C13         3.9470  -11.3750   -4.2770 ca        1 UN6     -0.210000
     29 HN1        -0.0680   -1.7170   -0.9280 hn        1 UN6      0.409800
     30 H4          2.4130    0.0340   -2.9890 ha        1 UN6      0.194000
     31 H1          3.5650   -1.0740   -4.8800 ha        1 UN6      0.138000
     32 H2          0.2390   -3.6640   -2.2150 ha        1 UN6      0.116000
     33 H3          3.1440   -3.4680   -5.4180 ha        1 UN6      0.125000
     34 H71         0.3320   -5.3700   -4.0960 hx        1 UN6      0.098700
     35 H72         1.8940   -5.4750   -5.0630 hx        1 UN6      0.098700
     36 HN2         1.7080   -5.5780   -2.0880 hn        1 UN6      0.457800
     37 H91         2.6780   -7.7970   -4.9790 hc        1 UN6      0.105700
     38 H92         3.6430   -8.2330   -3.5000 hc        1 UN6      0.105700
     39 H101        1.1020   -9.6990   -4.5250 hc        1 UN6      0.061200
     40 H102        2.0250  -10.1250   -3.0270 hc        1 UN6      0.061200
     41 H14         2.4170   -9.5390   -6.7120 ha        1 UN6      0.110000
     42 HN3         3.4460  -10.0610   -8.7630 hn        1 UN6      0.407800
     43 H12         5.6770  -12.4100   -7.0460 ha        1 UN6      0.180000
     44 H16         5.5430  -12.7960   -4.6030 ha        1 UN6      0.123000
     45 H13         3.9090  -11.5540   -3.1960 ha        1 UN6      0.112000
     46 H22         3.0690   -5.8410   -3.0110 hn        1 UN6      0.457800
@<TRIPOS>BOND
     1    1    2 1   
     2    2    3 1   
     3    2    4 1   
     4    2    5 1   
     5    5    6 1   
     6    5   29 1   
     7    6    7 ar  
     8    6    9 ar  
     9    7    8 ar  
    10    7   30 1   
    11    8   11 ar  
    12    8   31 1   
    13    9   10 ar  
    14    9   32 1   
    15   10   11 ar  
    16   10   12 1   
    17   11   33 1   
    18   12   13 1   
    19   12   34 1   
    20   12   35 1   
    21   13   14 1   
    22   13   36 1   
    23   13   46 1   
    24   14   15 2   
    25   14   16 1   
    26   16   17 1   
    27   16   37 1   
    28   16   38 1   
    29   17   18 1   
    30   17   39 1   
    31   17   40 1   
    32   18   19 ar  
    33   18   28 ar  
    34   19   20 ar  
    35   19   41 1   
    36   20   21 1   
    37   20   26 ar  
    38   21   22 1   
    39   21   42 1   
    40   22   23 1   
    41   22   24 1   
    42   22   25 1   
    43   26   27 ar  
    44   26   43 1   
    45   27   28 ar  
    46   27   44 1   
    47   28   45 1   
@<TRIPOS>SUBSTRUCTURE
     1 UN6         1 TEMP              0 ****  ****    0 ROOT
