@<TRIPOS>MOLECULE
UN7
   53    55     1     0     0
SMALL
bcc


@<TRIPOS>ATOM
      1 O53        42.4120   17.3510   11.4870 o         1 UN7     -0.733533
      2 S33        42.9270   17.0430   12.7740 s6        1 UN7      1.530700
      3 O51        44.3340   16.8860   12.8070 o         1 UN7     -0.733533
      4 O52        42.4530   17.9110   13.7840 o         1 UN7     -0.733533
      5 N9         42.2320   15.4890   13.0950 nh        1 UN7     -0.725500
      6 C5         42.5670   14.5520   14.0430 ca        1 UN7      0.255600
      7 C4         43.7170   14.7150   14.8690 ca        1 UN7     -0.196000
      8 C2         41.7820   13.3850   14.2400 ca        1 UN7     -0.238000
      9 C6         42.1210   12.4440   15.2110 ca        1 UN7     -0.067300
     10 C3         43.2440   12.6320   16.0220 ca        1 UN7     -0.171300
     11 C7         43.5950   11.6280   17.0530 c3        1 UN7     -0.027100
     12 C1         44.0320   13.7750   15.8320 ca        1 UN7     -0.084000
     13 C19        41.2590   11.2220   15.3430 c3        1 UN7      0.138300
     14 N15        41.5060   10.3870   16.4970 n         1 UN7     -0.479800
     15 C13        42.3610   10.8640   17.5590 c3        1 UN7      0.043700
     16 C16        41.6470   11.7620   18.6020 c         1 UN7      0.648100
     17 N27        40.8070   12.7560   18.1580 n         1 UN7     -0.554900
     18 C28        40.1940   13.6930   19.0430 c3        1 UN7      0.078300
     19 O26        41.8550   11.5680   19.8180 o         1 UN7     -0.637100
     20 C20        41.0100    9.0810   16.5390 c         1 UN7      0.663100
     21 O21        41.3190    8.3350   17.4900 o         1 UN7     -0.614100
     22 C22        40.1060    8.6130   15.4160 c3        1 UN7     -0.139400
     23 C25        39.5640    7.2230   15.6980 c3        1 UN7     -0.020100
     24 C35        38.8300    6.6570   14.5340 ca        1 UN7     -0.120300
     25 C39        37.4870    6.2820   14.6570 ca        1 UN7     -0.098000
     26 C42        36.8050    5.7020   13.5830 ca        1 UN7     -0.125600
     27 C46        35.3530    5.2730   13.7300 c         1 UN7      0.907200
     28 O49        34.7890    4.7340   12.7350 o         1 UN7     -0.836300
     29 O48        34.7810    5.4710   14.8400 o         1 UN7     -0.836300
     30 C38        37.4750    5.5080   12.3710 ca        1 UN7     -0.109000
     31 C41        38.8110    5.8820   12.2390 ca        1 UN7     -0.164000
     32 C40        39.4900    6.4490   13.3160 ca        1 UN7     -0.154000
     33 HN9        41.4570   15.2280   12.5310 hn        1 UN7      0.411800
     34 H4         44.3670   15.5960   14.7240 ha        1 UN7      0.173000
     35 H2         40.8920   13.2130   13.6170 ha        1 UN7      0.124000
     36 H71        44.0910   12.1170   17.9330 hc        1 UN7      0.054200
     37 H72        44.3240   10.8890   16.6220 hc        1 UN7      0.054200
     38 H1         44.9220   13.9240   16.4630 ha        1 UN7      0.118000
     39 H191       41.4100   10.6040   14.4060 h1        1 UN7      0.048700
     40 H192       40.1730   11.5430   15.3600 h1        1 UN7      0.048700
     41 H13        42.7180    9.9640   18.1530 h1        1 UN7      0.112700
     42 H27        40.8060   12.9830   17.1890 hn        1 UN7      0.327500
     43 H281       40.7350   14.6790   19.0270 h1        1 UN7      0.037033
     44 H282       39.1310   13.8650   18.7230 h1        1 UN7      0.037033
     45 H283       40.2030   13.2940   20.0930 h1        1 UN7      0.037033
     46 H221       40.6920    8.6020   14.4580 hc        1 UN7      0.068700
     47 H222       39.2560    9.3350   15.2900 hc        1 UN7      0.068700
     48 H251       38.8940    7.2690   16.5980 hc        1 UN7      0.055700
     49 H252       40.4200    6.5450   15.9640 hc        1 UN7      0.055700
     50 H39        36.9390    6.4290   15.6020 ha        1 UN7      0.151000
     51 H38        36.9210    5.0540   11.5350 ha        1 UN7      0.147000
     52 H41        39.3350    5.7270   11.2860 ha        1 UN7      0.102000
     53 H40        40.5480    6.7280   13.2120 ha        1 UN7      0.103000
@<TRIPOS>BOND
     1    1    2 1   
     2    2    3 1   
     3    2    4 1   
     4    2    5 1   
     5    5    6 1   
     6    5   33 1   
     7    6    7 ar  
     8    6    8 ar  
     9    7   12 ar  
    10    7   34 1   
    11    8    9 ar  
    12    8   35 1   
    13    9   10 ar  
    14    9   13 1   
    15   10   11 1   
    16   10   12 ar  
    17   11   15 1   
    18   11   36 1   
    19   11   37 1   
    20   12   38 1   
    21   13   14 1   
    22   13   39 1   
    23   13   40 1   
    24   14   15 1   
    25   14   20 1   
    26   15   16 1   
    27   15   41 1   
    28   16   17 1   
    29   16   19 2   
    30   17   18 1   
    31   17   42 1   
    32   18   43 1   
    33   18   44 1   
    34   18   45 1   
    35   20   21 2   
    36   20   22 1   
    37   22   23 1   
    38   22   46 1   
    39   22   47 1   
    40   23   24 1   
    41   23   48 1   
    42   23   49 1   
    43   24   25 ar  
    44   24   32 ar  
    45   25   26 ar  
    46   25   50 1   
    47   26   27 1   
    48   26   30 ar  
    49   27   28 1   
    50   27   29 1   
    51   30   31 ar  
    52   30   51 1   
    53   31   32 ar  
    54   31   52 1   
    55   32   53 1   
@<TRIPOS>SUBSTRUCTURE
     1 UN7         1 TEMP              0 ****  ****    0 ROOT
