@<TRIPOS>MOLECULE
UN7
   54    56     1     0     0
SMALL
bcc


@<TRIPOS>ATOM
      1 O53         0.4130   -0.3320   -1.2570 o         1 UN7     -0.724867
      2 S33         1.2610    0.6220   -1.8650 s6        1 UN7      1.529700
      3 O51         2.1770    0.0870   -2.7980 o         1 UN7     -0.724867
      4 O52         0.5960    1.7680   -2.3470 o         1 UN7     -0.724867
      5 N9          2.2240    1.1720   -0.5070 nu        1 UN7     -0.698500
      6 C5          3.3460    1.9470   -0.5100 ca        1 UN7      0.275600
      7 C4          3.9480    2.3680   -1.7380 ca        1 UN7     -0.191000
      8 C2          3.9650    2.3770    0.6980 ca        1 UN7     -0.245000
      9 C6          5.1070    3.1720    0.6760 ca        1 UN7     -0.081300
     10 C3          5.6620    3.5910   -0.5380 ca        1 UN7     -0.225300
     11 C7          6.8800    4.4310   -0.5460 c3        1 UN7     -0.028100
     12 C1          5.0690    3.1700   -1.7370 ca        1 UN7     -0.073000
     13 C19         5.7260    3.5490    1.9920 c3        1 UN7      0.117300
     14 N15         6.7450    4.5800    1.9480 n         1 UN7     -0.487800
     15 C13         6.9630    5.3010    0.7210 c3        1 UN7      0.043700
     16 C16         5.9830    6.4770    0.5150 c         1 UN7      0.532100
     17 N27         4.5840    6.3030    0.9540 ny        1 UN7     -0.693800
     18 C28         3.6260    7.2690    0.3850 c3        1 UN7      0.094100
     19 O26         6.3150    7.5290   -0.0260 o         1 UN7     -0.479100
     20 C20         7.7070    4.6650    2.9670 c         1 UN7      0.675100
     21 O21         8.7560    5.3070    2.7710 o         1 UN7     -0.597100
     22 C22         7.4460    3.9860    4.2990 c3        1 UN7     -0.138400
     23 C25         7.7850    4.9090    5.4550 c3        1 UN7     -0.024100
     24 C35         6.9100    6.1050    5.5890 ca        1 UN7     -0.105300
     25 C39         5.7230    6.2500    4.8690 ca        1 UN7     -0.115000
     26 C42         4.9620    7.4180    4.9630 ca        1 UN7     -0.140600
     27 C46         3.7410    7.5680    4.0980 c         1 UN7      0.911200
     28 O49         3.0710    8.6260    4.1110 o         1 UN7     -0.822800
     29 O48         3.4230    6.5820    3.3290 o         1 UN7     -0.822800
     30 C38         5.3640    8.4360    5.8290 ca        1 UN7     -0.092000
     31 C41         6.5300    8.2860    6.5800 ca        1 UN7     -0.148000
     32 C40         7.3050    7.1360    6.4550 ca        1 UN7     -0.130000
     33 HN9         1.9090    0.9060    0.3970 hn        1 UN7      0.415800
     34 H4          3.5100    2.0280   -2.6950 ha        1 UN7      0.180000
     35 H2          3.5400    2.0720    1.6650 ha        1 UN7      0.133000
     36 H71         7.7950    3.7790   -0.5820 hc        1 UN7      0.066200
     37 H72         6.9070    5.0990   -1.4470 hc        1 UN7      0.066200
     38 H1          5.5140    3.4820   -2.6950 ha        1 UN7      0.125000
     39 H191        6.1750    2.6090    2.4320 h1        1 UN7      0.065200
     40 H192        4.9060    3.9020    2.6900 h1        1 UN7      0.065200
     41 H13         7.9910    5.7890    0.7570 h1        1 UN7      0.132700
     42 H27         4.2800    5.3450    0.7300 hn        1 UN7      0.502300
     43 H281        4.0730    8.2980    0.4010 hx        1 UN7      0.098367
     44 H282        3.3700    6.9840   -0.6670 hx        1 UN7      0.098367
     45 H283        2.7070    7.2590    1.0400 hx        1 UN7      0.098367
     46 H221        6.3890    3.6280    4.4040 hc        1 UN7      0.071200
     47 H222        8.1170    3.0860    4.3350 hc        1 UN7      0.071200
     48 H251        7.7250    4.3080    6.4040 hc        1 UN7      0.058700
     49 H252        8.8510    5.2520    5.3380 hc        1 UN7      0.058700
     50 H39         5.3510    5.4510    4.2080 ha        1 UN7      0.136000
     51 H38         4.7500    9.3480    5.9010 ha        1 UN7      0.154000
     52 H41         6.8460    9.0840    7.2670 ha        1 UN7      0.120000
     53 H40         8.2360    7.0340    7.0310 ha        1 UN7      0.118000
     54 H272        4.5190    6.4040    2.0400 hn        1 UN7      0.502300
@<TRIPOS>BOND
     1    1    2 1   
     2    2    3 1   
     3    2    4 1   
     4    2    5 1   
     5    5    6 1   
     6    5   33 1   
     7    6    7 ar  
     8    6    8 ar  
     9    7   12 ar  
    10    7   34 1   
    11    8    9 ar  
    12    8   35 1   
    13    9   10 ar  
    14    9   13 1   
    15   10   11 1   
    16   10   12 ar  
    17   11   15 1   
    18   11   36 1   
    19   11   37 1   
    20   12   38 1   
    21   13   14 1   
    22   13   39 1   
    23   13   40 1   
    24   14   15 1   
    25   14   20 1   
    26   15   16 1   
    27   15   41 1   
    28   16   17 1   
    29   16   19 2   
    30   17   18 1   
    31   17   42 1   
    32   17   54 1   
    33   18   43 1   
    34   18   44 1   
    35   18   45 1   
    36   20   21 2   
    37   20   22 1   
    38   22   23 1   
    39   22   46 1   
    40   22   47 1   
    41   23   24 1   
    42   23   48 1   
    43   23   49 1   
    44   24   25 ar  
    45   24   32 ar  
    46   25   26 ar  
    47   25   50 1   
    48   26   27 1   
    49   26   30 ar  
    50   27   28 1   
    51   27   29 1   
    52   30   31 ar  
    53   30   51 1   
    54   31   32 ar  
    55   31   52 1   
    56   32   53 1   
@<TRIPOS>SUBSTRUCTURE
     1 UN7         1 TEMP              0 ****  ****    0 ROOT
