@<TRIPOS>MOLECULE
UN7
   55    56     1     0     0
SMALL
bcc


@<TRIPOS>ATOM
      1 O53         2.1920   -1.9650    1.2890 o         1 UN7     -0.578733
      2 S33         2.8680   -2.0310    0.1120 s4        1 UN7      1.809000
      3 O51         4.2070   -1.8340    0.0970 o         1 UN7     -0.578733
      4 O52         2.2340   -2.4920   -0.9960 o         1 UN7     -0.698533
      5 N9          2.0650    0.2820   -0.4220 nh        1 UN7     -0.869200
      6 C5          3.0410    1.3000   -0.6210 ca        1 UN7      0.068600
      7 C4          3.5050    1.6070   -1.9190 ca        1 UN7     -0.140000
      8 C2          3.6010    1.9700    0.4820 ca        1 UN7     -0.140000
      9 C6          4.6170    2.9090    0.2900 ca        1 UN7     -0.069300
     10 C3          5.0740    3.2080   -0.9970 ca        1 UN7     -0.056300
     11 C7          6.1500    4.2080   -1.1960 c3        1 UN7     -0.035100
     12 C1          4.5080    2.5510   -2.0950 ca        1 UN7     -0.090000
     13 C19         5.2020    3.5620    1.5050 c3        1 UN7      0.144300
     14 N15         6.1500    4.6260    1.2640 n         1 UN7     -0.465800
     15 C13         6.2650    5.2230   -0.0500 c3        1 UN7      0.042700
     16 C16         5.2680    6.3920   -0.2790 c         1 UN7      0.633100
     17 N27         5.3770    7.4680    0.5760 n         1 UN7     -0.566900
     18 C28         4.6360    8.6740    0.3670 c3        1 UN7      0.066300
     19 O26         4.4220    6.3570   -1.1920 o         1 UN7     -0.600100
     20 C20         6.8850    5.1510    2.3230 c         1 UN7      0.668100
     21 O21         7.5810    6.1740    2.1410 o         1 UN7     -0.638100
     22 C22         6.8400    4.4380    3.6610 c3        1 UN7     -0.142400
     23 C25         7.5800    5.1940    4.7510 c3        1 UN7     -0.034100
     24 C35         6.7270    6.2160    5.4180 ca        1 UN7     -0.092300
     25 C39         6.5630    7.4760    4.8310 ca        1 UN7     -0.097000
     26 C42         5.7600    8.4400    5.4470 ca        1 UN7     -0.173600
     27 C46         5.5530    9.7680    4.8400 c         1 UN7      0.641700
     28 O49         5.3140   10.8220    5.4310 o         1 UN7     -0.486000
     29 O48         5.5940    9.9100    3.4790 oh        1 UN7     -0.583100
     30 C38         5.1420    8.1580    6.6720 ca        1 UN7     -0.068000
     31 C41         5.3110    6.9060    7.2600 ca        1 UN7     -0.138000
     32 C40         6.0950    5.9370    6.6360 ca        1 UN7     -0.099000
     33 HN9         1.4750    0.4940    0.3640 hn        1 UN7      0.398300
     34 H4          3.0770    1.1000   -2.7980 ha        1 UN7      0.143000
     35 H2          3.2500    1.7560    1.5040 ha        1 UN7      0.140000
     36 H71         7.1320    3.6680   -1.2950 hc        1 UN7      0.077700
     37 H72         5.9720    4.7800   -2.1480 hc        1 UN7      0.077700
     38 H1          4.8570    2.7910   -3.1110 ha        1 UN7      0.145000
     39 H191        5.7190    2.7520    2.1040 h1        1 UN7      0.055200
     40 H192        4.3530    3.9670    2.1340 h1        1 UN7      0.055200
     41 H13         7.3040    5.6830   -0.1210 h1        1 UN7      0.094700
     42 H27         5.7530    9.0540    3.0570 ho        1 UN7      0.427000
     43 H281        3.6880    8.4490   -0.1910 h1        1 UN7      0.048367
     44 H282        4.3810    9.1280    1.3620 h1        1 UN7      0.048367
     45 H283        5.2320    9.4200   -0.2260 h1        1 UN7      0.048367
     46 H221        7.3200    3.4300    3.5270 hc        1 UN7      0.074700
     47 H222        5.7730    4.2760    3.9690 hc        1 UN7      0.074700
     48 H251        7.9370    4.4500    5.5140 hc        1 UN7      0.070700
     49 H252        8.4880    5.6910    4.3120 hc        1 UN7      0.070700
     50 H39         7.0890    7.6910    3.8840 ha        1 UN7      0.157000
     51 H38         4.5320    8.9350    7.1620 ha        1 UN7      0.159000
     52 H41         4.8260    6.6840    8.2220 ha        1 UN7      0.143000
     53 H40         6.2250    4.9500    7.1060 ha        1 UN7      0.137000
     54 H92         1.5030    0.1510   -1.2460 hn        1 UN7      0.398300
     55 H272        6.1790    7.5230    1.1640 hn        1 UN7      0.322500
@<TRIPOS>BOND
     1    1    2 1   
     2    2    3 1   
     3    2    4 2   
     4    5    6 1   
     5    5   33 1   
     6    5   54 1   
     7    6    7 ar  
     8    6    8 ar  
     9    7   12 ar  
    10    7   34 1   
    11    8    9 ar  
    12    8   35 1   
    13    9   10 ar  
    14    9   13 1   
    15   10   11 1   
    16   10   12 ar  
    17   11   15 1   
    18   11   36 1   
    19   11   37 1   
    20   12   38 1   
    21   13   14 1   
    22   13   39 1   
    23   13   40 1   
    24   14   15 1   
    25   14   20 1   
    26   15   16 1   
    27   15   41 1   
    28   16   17 1   
    29   16   19 2   
    30   17   18 1   
    31   17   55 1   
    32   18   43 1   
    33   18   44 1   
    34   18   45 1   
    35   20   21 2   
    36   20   22 1   
    37   22   23 1   
    38   22   46 1   
    39   22   47 1   
    40   23   24 1   
    41   23   48 1   
    42   23   49 1   
    43   24   25 ar  
    44   24   32 ar  
    45   25   26 ar  
    46   25   50 1   
    47   26   27 1   
    48   26   30 ar  
    49   27   28 2   
    50   27   29 1   
    51   29   42 1   
    52   30   31 ar  
    53   30   51 1   
    54   31   32 ar  
    55   31   52 1   
    56   32   53 1   
@<TRIPOS>SUBSTRUCTURE
     1 UN7         1 TEMP              0 ****  ****    0 ROOT
