@<TRIPOS>MOLECULE
UN7
   54    56     1     0     0
SMALL
bcc


@<TRIPOS>ATOM
      1 O53         0.4740   -0.3380   -1.3390 o         1 UN7     -0.724867
      2 S33         1.2960    0.6480   -1.9310 s6        1 UN7      1.529700
      3 O51         2.2110    0.1570   -2.8890 o         1 UN7     -0.724867
      4 O52         0.6040    1.7940   -2.3730 o         1 UN7     -0.724867
      5 N9          2.2660    1.1810   -0.5700 nh        1 UN7     -0.698500
      6 C5          3.3720    1.9780   -0.5660 ca        1 UN7      0.275600
      7 C4          3.9490    2.4450   -1.7900 ca        1 UN7     -0.191000
      8 C2          3.9990    2.3860    0.6450 ca        1 UN7     -0.245000
      9 C6          5.1240    3.2050    0.6310 ca        1 UN7     -0.081300
     10 C3          5.6540    3.6690   -0.5770 ca        1 UN7     -0.225300
     11 C7          6.8550    4.5330   -0.5780 c3        1 UN7     -0.028100
     12 C1          5.0540    3.2690   -1.7800 ca        1 UN7     -0.073000
     13 C19         5.7530    3.5580    1.9490 c3        1 UN7      0.117300
     14 N15         6.7510    4.6110    1.9210 n         1 UN7     -0.487800
     15 C13         6.9370    5.3700    0.7120 c3        1 UN7      0.043700
     16 C16         5.9310    6.5310    0.5510 c         1 UN7      0.532100
     17 N27         4.5420    6.3150    1.0040 n4        1 UN7     -0.693800
     18 C28         3.5570    7.2770    0.4750 c3        1 UN7      0.094100
     19 O26         6.2340    7.6030    0.0350 o         1 UN7     -0.479100
     20 C20         7.7240    4.6870    2.9300 c         1 UN7      0.675100
     21 O21         8.7570    5.3560    2.7380 o         1 UN7     -0.597100
     22 C22         7.4940    3.9670    4.2450 c3        1 UN7     -0.138400
     23 C25         7.8310    4.8630    5.4230 c3        1 UN7     -0.024100
     24 C35         6.9330    6.0370    5.6010 ca        1 UN7     -0.105300
     25 C39         5.7340    6.1770    4.9010 ca        1 UN7     -0.115000
     26 C42         4.9500    7.3260    5.0370 ca        1 UN7     -0.140600
     27 C46         3.7150    7.4740    4.1920 c         1 UN7      0.911200
     28 O49         3.0240    8.5180    4.2430 o         1 UN7     -0.822800
     29 O48         3.4070    6.5040    3.4000 o         1 UN7     -0.822800
     30 C38         5.3420    8.3280    5.9260 ca        1 UN7     -0.092000
     31 C41         6.5210    8.1810    6.6580 ca        1 UN7     -0.148000
     32 C40         7.3180    7.0510    6.4900 ca        1 UN7     -0.130000
     33 HN9         1.9690    0.8830    0.3300 hn        1 UN7      0.415800
     34 H4          3.5060    2.1220   -2.7500 ha        1 UN7      0.180000
     35 H2          3.5920    2.0460    1.6090 ha        1 UN7      0.133000
     36 H71         6.8570    5.2260   -1.4600 hc        1 UN7      0.066200
     37 H72         7.7830    3.9010   -0.6440 hc        1 UN7      0.066200
     38 H1          5.4800    3.6170   -2.7340 ha        1 UN7      0.125000
     39 H191        6.2270    2.6160    2.3570 h1        1 UN7      0.065200
     40 H192        4.9350    3.8740    2.6680 h1        1 UN7      0.065200
     41 H13         7.9550    5.8780    0.7480 h1        1 UN7      0.132700
     42 H27         4.4900    6.3850    2.0920 hn        1 UN7      0.502300
     43 H281        2.6480    7.2300    1.1420 hx        1 UN7      0.098367
     44 H282        3.9840    8.3140    0.5140 hx        1 UN7      0.098367
     45 H283        3.2910    7.0170   -0.5810 hx        1 UN7      0.098367
     46 H221        6.4470    3.5840    4.3530 hc        1 UN7      0.071200
     47 H222        8.1840    3.0790    4.2480 hc        1 UN7      0.071200
     48 H251        8.8870    5.2320    5.3010 hc        1 UN7      0.058700
     49 H252        7.7950    4.2360    6.3550 hc        1 UN7      0.058700
     50 H39         5.3690    5.3890    4.2220 ha        1 UN7      0.136000
     51 H38         4.7110    9.2250    6.0310 ha        1 UN7      0.154000
     52 H41         6.8300    8.9660    7.3630 ha        1 UN7      0.120000
     53 H40         8.2580    6.9530    7.0520 ha        1 UN7      0.118000
     54 H272        4.2540    5.3580    0.7560 hn        1 UN7      0.502300
@<TRIPOS>BOND
     1    1    2 1   
     2    2    3 1   
     3    2    4 1   
     4    2    5 1   
     5    5    6 1   
     6    5   33 1   
     7    6    7 ar  
     8    6    8 ar  
     9    7   12 ar  
    10    7   34 1   
    11    8    9 ar  
    12    8   35 1   
    13    9   10 ar  
    14    9   13 1   
    15   10   11 1   
    16   10   12 ar  
    17   11   15 1   
    18   11   36 1   
    19   11   37 1   
    20   12   38 1   
    21   13   14 1   
    22   13   39 1   
    23   13   40 1   
    24   14   15 1   
    25   14   20 1   
    26   15   16 1   
    27   15   41 1   
    28   16   17 1   
    29   16   19 2   
    30   17   18 1   
    31   17   42 1   
    32   17   54 1   
    33   18   43 1   
    34   18   44 1   
    35   18   45 1   
    36   20   21 2   
    37   20   22 1   
    38   22   23 1   
    39   22   46 1   
    40   22   47 1   
    41   23   24 1   
    42   23   48 1   
    43   23   49 1   
    44   24   25 ar  
    45   24   32 ar  
    46   25   26 ar  
    47   25   50 1   
    48   26   27 1   
    49   26   30 ar  
    50   27   28 1   
    51   27   29 1   
    52   30   31 ar  
    53   30   51 1   
    54   31   32 ar  
    55   31   52 1   
    56   32   53 1   
@<TRIPOS>SUBSTRUCTURE
     1 UN7         1 TEMP              0 ****  ****    0 ROOT
