@<TRIPOS>MOLECULE
UN8
   68    72     1     0     0
SMALL
bcc


@<TRIPOS>ATOM
      1 O2         -1.1060   -1.6940   -2.1470 o         1 UN8     -0.654300
      2 S1          0.2330   -1.8320   -1.7610 sy        1 UN8      1.484800
      3 O1          0.5330   -2.9420   -0.9400 o         1 UN8     -0.654300
      4 C1          1.2120   -1.9180   -3.1100 cc        1 UN8     -0.035800
      5 C2          1.9940   -3.0100   -3.5560 cd        1 UN8     -0.087600
      6 N5          2.5930   -2.6190   -4.7390 na        1 UN8     -0.194900
      7 C4          3.4460   -3.4070   -5.5690 c3        1 UN8      0.011600
      8 C3          2.1680   -1.2940   -4.9930 cd        1 UN8      0.402400
      9 N7          1.3450   -0.8600   -4.0300 nc        1 UN8     -0.613000
     10 N4          0.7630   -0.4950   -0.9800 nu        1 UN8     -0.766500
     11 C8          0.7760    0.8080   -1.4930 ca        1 UN8      0.187600
     12 C9          1.8160    1.7040   -1.1530 ca        1 UN8     -0.161500
     13 C30         1.9050    2.9430   -1.7760 ca        1 UN8     -0.095500
     14 C7         -0.2310    1.2470   -2.3850 ca        1 UN8     -0.161500
     15 C6         -0.1200    2.4850   -3.0030 ca        1 UN8     -0.095500
     16 C5          0.9700    3.3240   -2.7420 ca        1 UN8     -0.148300
     17 C16         1.1580    4.5690   -3.5350 c3        1 UN8     -0.062400
     18 C14         1.8340    4.2840   -4.8430 cc        1 UN8      0.467800
     19 N15         2.1100    2.9930   -5.2940 na        1 UN8     -0.251900
     20 C55         2.7390    3.1270   -6.5290 cc        1 UN8     -0.366200
     21 C56         3.2620    2.1270   -7.4350 c         1 UN8      0.774100
     22 O57         3.2370    0.8970   -7.2230 o         1 UN8     -0.671500
     23 C54         2.8210    4.5350   -6.7890 cd        1 UN8      0.496200
     24 N13         2.2500    5.2490   -5.7280 nd        1 UN8     -0.694000
     25 N53         3.4310    5.0010   -7.9460 n         1 UN8     -0.410300
     26 C59         3.4000    6.4080   -8.2940 c3        1 UN8      0.103000
     27 C10         2.0740    6.8950   -8.8770 c3        1 UN8     -0.104400
     28 C11         2.1640    8.3760   -9.1810 c3        1 UN8     -0.077400
     29 C12         0.8740    8.8930   -9.7630 c3        1 UN8     -0.092100
     30 C52         3.8650    4.0480   -8.9050 c         1 UN8      0.812500
     31 O58         4.3130    4.4450  -10.0010 o         1 UN8     -0.624500
     32 N51         3.8160    2.6540   -8.6210 n         1 UN8     -0.479400
     33 C17         4.3850    1.7460   -9.6050 c3        1 UN8      0.141300
     34 C18         5.8490    1.4620   -9.4280 ca        1 UN8     -0.146300
     35 C19         6.7690    1.7360  -10.4630 ca        1 UN8      0.149900
     36 F24         6.3540    2.2770  -11.6330 f         1 UN8     -0.130900
     37 C20         8.1360    1.4380  -10.2950 ca        1 UN8     -0.171000
     38 C21         8.5770    0.8720   -9.1050 ca        1 UN8     -0.098000
     39 C22         7.6710    0.5910   -8.0810 ca        1 UN8     -0.152000
     40 C23         6.3200    0.8830   -8.2460 ca        1 UN8     -0.094000
     41 H2          2.1400   -3.9930   -3.1010 h4        1 UN8      0.202000
     42 H41         4.2140   -3.9320   -4.9400 h1        1 UN8      0.064700
     43 H42         3.9650   -2.7420   -6.3100 h1        1 UN8      0.064700
     44 H43         2.8420   -4.1750   -6.1250 h1        1 UN8      0.064700
     45 H3          2.4970   -0.7240   -5.8770 h5        1 UN8      0.103100
     46 HN4         1.2480   -0.5900   -0.1160 hn        1 UN8      0.454800
     47 H9          2.5740    1.4190   -0.4080 ha        1 UN8      0.155000
     48 H30         2.7360    3.6190   -1.5200 ha        1 UN8      0.139000
     49 H7         -1.0920    0.5960   -2.6230 ha        1 UN8      0.155000
     50 H6         -0.8970    2.8020   -3.7160 ha        1 UN8      0.139000
     51 H161        0.1650    5.0530   -3.7510 hc        1 UN8      0.084200
     52 H162        1.7820    5.3120   -2.9670 hc        1 UN8      0.084200
     53 HN15        1.8910    2.1390   -4.8400 hn        1 UN8      0.339700
     54 H591        4.2220    6.5900   -9.0450 h1        1 UN8      0.078200
     55 H592        3.6310    6.9920   -7.3570 h1        1 UN8      0.078200
     56 H101        1.8390    6.3310   -9.8170 hc        1 UN8      0.055200
     57 H102        1.2410    6.7090   -8.1500 hc        1 UN8      0.055200
     58 H111        3.0030    8.5600   -9.9030 hc        1 UN8      0.041700
     59 H112        2.4050    8.9390   -8.2410 hc        1 UN8      0.041700
     60 H121        0.6290    8.3610  -10.7140 hc        1 UN8      0.035033
     61 H122        0.0290    8.7390   -9.0480 hc        1 UN8      0.035033
     62 H123        0.9580    9.9850   -9.9810 hc        1 UN8      0.035033
     63 H171        3.8220    0.7690   -9.5260 h1        1 UN8      0.091200
     64 H172        4.2080    2.1890  -10.6300 h1        1 UN8      0.091200
     65 H20         8.8390    1.6620  -11.1100 ha        1 UN8      0.150000
     66 H21         9.6450    0.6450   -8.9730 ha        1 UN8      0.137000
     67 H22         8.0250    0.1410   -7.1420 ha        1 UN8      0.135000
     68 H23         5.6010    0.6540   -7.4420 ha        1 UN8      0.151000
@<TRIPOS>BOND
     1    1    2 2   
     2    2    3 2   
     3    2    4 1   
     4    2   10 1   
     5    4    5 2   
     6    4    9 1   
     7    5    6 1   
     8    5   41 1   
     9    6    7 1   
    10    6    8 1   
    11    7   42 1   
    12    7   43 1   
    13    7   44 1   
    14    8    9 2   
    15    8   45 1   
    16   10   11 1   
    17   10   46 1   
    18   11   12 ar  
    19   11   14 ar  
    20   12   13 ar  
    21   12   47 1   
    22   13   16 ar  
    23   13   48 1   
    24   14   15 ar  
    25   14   49 1   
    26   15   16 ar  
    27   15   50 1   
    28   16   17 1   
    29   17   18 1   
    30   17   51 1   
    31   17   52 1   
    32   18   19 1   
    33   18   24 2   
    34   19   20 1   
    35   19   53 1   
    36   20   21 1   
    37   20   23 2   
    38   21   22 2   
    39   21   32 1   
    40   23   24 1   
    41   23   25 1   
    42   25   26 1   
    43   25   30 1   
    44   26   27 1   
    45   26   54 1   
    46   26   55 1   
    47   27   28 1   
    48   27   56 1   
    49   27   57 1   
    50   28   29 1   
    51   28   58 1   
    52   28   59 1   
    53   29   60 1   
    54   29   61 1   
    55   29   62 1   
    56   30   31 2   
    57   30   32 1   
    58   32   33 1   
    59   33   34 1   
    60   33   63 1   
    61   33   64 1   
    62   34   35 ar  
    63   34   40 ar  
    64   35   36 1   
    65   35   37 ar  
    66   37   38 ar  
    67   37   65 1   
    68   38   39 ar  
    69   38   66 1   
    70   39   40 ar  
    71   39   67 1   
    72   40   68 1   
@<TRIPOS>SUBSTRUCTURE
     1 UN8         1 TEMP              0 ****  ****    0 ROOT
