@<TRIPOS>MOLECULE
UN8
   68    58     1     0     0
SMALL
bcc


@<TRIPOS>ATOM
      1 O2         -3.9610   -4.3460   -0.1120 o         1 UN8     -0.931000
      2 S1         -4.7800   -3.1800   -0.2260 ss        1 UN8      2.896000
      3 O1         -3.9770   -2.3580   -1.0980 o         1 UN8     -0.931000
      4 C1         -6.3590   -3.5650   -0.9680 c1        1 UN8     -0.444000
      5 C2         -6.6050   -4.5780   -1.8680 c1        1 UN8     -0.444000
      6 N5         -7.8960   -4.5030   -2.2340 n2        1 UN8     -0.101500
      7 C4         -8.5940   -5.4420   -3.0860 c2        1 UN8     -0.100000
      8 C3         -8.4590   -3.4560   -1.5740 c1        1 UN8     -0.094000
      9 N7         -7.4980   -2.8820   -0.7930 n2        1 UN8     -0.101500
     10 N4         -5.0010   -2.4540    1.2500 n2        1 UN8     -0.808000
     11 C8         -3.9740   -1.6320    1.8020 c2        1 UN8      0.106000
     12 C9         -3.1080   -0.9460    0.9610 c2        1 UN8     -0.180000
     13 C30        -2.0570   -0.2180    1.4950 c1        1 UN8     -0.108000
     14 C7         -3.7870   -1.5870    3.1770 c1        1 UN8     -0.166000
     15 C6         -2.7390   -0.8610    3.7100 c1        1 UN8     -0.088000
     16 C5         -1.8710   -0.1740    2.8700 c1        1 UN8     -0.139000
     17 C16        -0.7350    0.6960    3.4740 c3        1 UN8     -0.056000
     18 C14         0.4800    0.6710    2.5390 c2        1 UN8      0.024000
     19 N15         0.7330   -0.1050    1.4580 n2        1 UN8     -0.143000
     20 C55         1.9920    0.1900    1.0120 c1        1 UN8     -0.256000
     21 C56         2.7020   -0.2260   -0.1110 c1        1 UN8      0.408000
     22 O57         2.2310   -1.0580   -0.8500 o         1 UN8     -0.392000
     23 C54         2.5080    1.1470    1.8200 c1        1 UN8      0.090000
     24 N13         1.5740    1.4460    2.7660 n1        1 UN8     -0.165000
     25 N53         3.7250    1.7030    1.5310 n2        1 UN8     -0.226000
     26 C59         4.2990    2.6720    2.4210 c3        1 UN8     -0.014000
     27 C10         4.3830    4.0330    1.7100 c3        1 UN8     -0.183000
     28 C11         5.2670    4.9590    2.5000 c3        1 UN8     -0.156000
     29 C12         5.5890    6.1640    1.6750 c3        1 UN8     -0.210000
     30 C52         4.4210    1.2920    0.4260 c1        1 UN8      0.403000
     31 O58         5.4620    1.8410    0.1280 o         1 UN8     -0.347000
     32 N51         3.9000    0.3230   -0.3930 n2        1 UN8     -0.308000
     33 C17         4.6370   -0.1100   -1.5590 c3        1 UN8      0.019000
     34 C18         3.7800    0.1700   -2.8580 c2        1 UN8     -0.143000
     35 C19         3.9690    1.3480   -3.5760 c2        1 UN8      0.116000
     36 F24         4.8980    2.2350   -3.1790 f         1 UN8     -0.096000
     37 C20         3.2320    1.5830   -4.7320 c1        1 UN8     -0.172000
     38 C21         2.3070    0.6420   -5.1720 c1        1 UN8     -0.123500
     39 C22         2.1190   -0.5350   -4.4550 c1        1 UN8     -0.123500
     40 C23         2.8560   -0.7710   -3.2970 c1        1 UN8     -0.094000
     41 H2         -5.9470   -5.2020   -2.2190 DU        1 UN8      0.231333
     42 H41        -9.5620   -5.3250   -2.9780 ha        1 UN8      0.112667
     43 H42        -8.3460   -6.3590   -2.8360 ha        1 UN8      0.112667
     44 H43        -8.3440   -5.2790   -4.0350 ha        1 UN8      0.112667
     45 H3         -9.3850   -3.1660   -1.6460 DU        1 UN8      0.231333
     46 HN4        -5.7570   -2.6210    1.7300 hn        1 UN8      0.254000
     47 H9         -3.2390   -0.9770   -0.0050 ha        1 UN8      0.174000
     48 H30        -1.4440    0.2660    0.9010 ha        1 UN8      0.139000
     49 H7         -4.3930   -2.0660    3.7640 ha        1 UN8      0.143000
     50 H6         -2.6090   -0.8300    4.6750 ha        1 UN8      0.140000
     51 H161       -1.0470    1.6120    3.5760 hc        1 UN8      0.125500
     52 H162       -0.4820    0.3400    4.3450 hc        1 UN8      0.125500
     53 HN15        0.1820   -0.7620    1.1240 DU        1 UN8      0.231333
     54 H591        3.7390    2.7550    3.2190 h1        1 UN8      0.118500
     55 H592        5.2030    2.3820    2.6820 h1        1 UN8      0.118500
     56 H101        4.7550    3.9120    0.8200 hc        1 UN8      0.094000
     57 H102        3.4870    4.4190    1.6400 hc        1 UN8      0.094000
     58 H111        6.0930    4.4960    2.7370 hc        1 UN8      0.081500
     59 H112        4.7980    5.2390    3.3240 hc        1 UN8      0.081500
     60 H121        5.9990    5.8820    0.8310 hc        1 UN8      0.074667
     61 H122        4.7640    6.6620    1.4870 hc        1 UN8      0.074667
     62 H123        6.2210    6.7460    2.1710 hc        1 UN8      0.074667
     63 H171        5.4900    0.3870   -1.6130 h1        1 UN8      0.129500
     64 H172        4.8220   -1.0720   -1.4900 h1        1 UN8      0.129500
     65 H20         3.3640    2.4130   -5.2380 ha        1 UN8      0.150000
     66 H21         1.7850    0.8110   -5.9930 ha        1 UN8      0.137500
     67 H22         1.4680   -1.1970   -4.7640 ha        1 UN8      0.137500
     68 H23         2.7240   -1.5960   -2.7940 ha        1 UN8      0.152000
@<TRIPOS>BOND
     1    1    2 1   
     2    2    3 1   
     3    4    5 1   
     4    4    9 1   
     5    5    6 1   
     6    6    8 1   
     7    7   42 1   
     8    7   43 1   
     9    7   44 1   
    10    8    9 1   
    11   10   11 1   
    12   10   46 1   
    13   11   12 1   
    14   11   14 1   
    15   12   13 1   
    16   12   47 1   
    17   13   48 1   
    18   14   49 1   
    19   15   16 1   
    20   15   50 1   
    21   16   17 1   
    22   17   18 1   
    23   17   51 1   
    24   17   52 1   
    25   18   19 1   
    26   18   24 1   
    27   19   20 1   
    28   20   23 1   
    29   21   22 1   
    30   21   32 1   
    31   25   26 1   
    32   25   30 1   
    33   26   27 1   
    34   26   54 1   
    35   26   55 1   
    36   27   28 1   
    37   27   56 1   
    38   27   57 1   
    39   28   29 1   
    40   28   58 1   
    41   28   59 1   
    42   29   60 1   
    43   29   61 1   
    44   29   62 1   
    45   30   31 1   
    46   32   33 1   
    47   33   34 1   
    48   33   63 1   
    49   33   64 1   
    50   34   35 1   
    51   34   40 1   
    52   35   36 1   
    53   35   37 1   
    54   37   65 1   
    55   38   39 1   
    56   38   66 1   
    57   39   67 1   
    58   40   68 1   
@<TRIPOS>SUBSTRUCTURE
     1 UN8         1 TEMP              0 ****  ****    0 ROOT
