@<TRIPOS>MOLECULE
UN8
   68    72     1     0     0
SMALL
bcc


@<TRIPOS>ATOM
      1 O2         -6.0300   -0.4600   -2.6730 o         1 UN8     -0.654300
      2 S1         -6.0160   -1.0450   -1.4000 sy        1 UN8      1.484800
      3 O1         -7.1010   -1.8960   -1.0950 o         1 UN8     -0.654300
      4 C1         -4.6100   -1.9170   -1.1860 cc        1 UN8     -0.035800
      5 C2         -4.4620   -3.3150   -1.0230 cd        1 UN8     -0.087600
      6 N5         -3.1060   -3.5680   -0.9250 na        1 UN8     -0.194900
      7 C4         -2.4820   -4.8440   -0.7860 c3        1 UN8      0.011600
      8 C3         -2.4500   -2.3200   -1.0280 cd        1 UN8      0.402400
      9 N7         -3.3320   -1.3240   -1.1820 nc        1 UN8     -0.613000
     10 N4         -5.9490    0.0950   -0.2280 nh        1 UN8     -0.766500
     11 C8         -4.9490    1.0650   -0.0760 ca        1 UN8      0.187600
     12 C9         -4.5440    1.4830    1.2110 ca        1 UN8     -0.161500
     13 C30        -3.4550    2.3340    1.3610 ca        1 UN8     -0.095500
     14 C7         -4.3030    1.6220   -1.2050 ca        1 UN8     -0.161500
     15 C6         -3.2130    2.4650   -1.0360 ca        1 UN8     -0.095500
     16 C5         -2.7490    2.7910    0.2440 ca        1 UN8     -0.148300
     17 C16        -1.4830    3.5570    0.4050 c3        1 UN8     -0.062400
     18 C14        -0.2870    2.6550    0.3240 cc        1 UN8      0.467800
     19 N15        -0.3740    1.3020   -0.0040 na        1 UN8     -0.251900
     20 C55         0.9250    0.8000    0.0250 cc        1 UN8     -0.366200
     21 C56         1.4260   -0.5370   -0.2110 c         1 UN8      0.774100
     22 O57         0.7100   -1.5230   -0.4850 o         1 UN8     -0.671500
     23 C54         1.7740    1.9010    0.3770 cd        1 UN8      0.496200
     24 N13         1.0050    3.0560    0.5610 nd        1 UN8     -0.694000
     25 N53         3.1420    1.7140    0.5190 n         1 UN8     -0.410300
     26 C59         4.0330    2.8380    0.7370 c3        1 UN8      0.103000
     27 C10         4.3420    3.6620   -0.5120 c3        1 UN8     -0.104400
     28 C11         5.2630    4.8080   -0.1510 c3        1 UN8     -0.077400
     29 C12         5.5950    5.6430   -1.3610 c3        1 UN8     -0.092100
     30 C52         3.6820    0.4410    0.1970 c         1 UN8      0.812500
     31 O58         4.9210    0.2810    0.2080 o         1 UN8     -0.624500
     32 N51         2.8280   -0.6550   -0.1130 n         1 UN8     -0.479400
     33 C17         3.4480   -1.9550   -0.3180 c3        1 UN8      0.141300
     34 C18         3.6140   -2.7790    0.9260 ca        1 UN8     -0.146300
     35 C19         4.8890   -3.2280    1.3310 ca        1 UN8      0.149900
     36 F24         5.9940   -2.9140    0.6150 f         1 UN8     -0.130900
     37 C20         5.0280   -4.0240    2.4860 ca        1 UN8     -0.171000
     38 C21         3.9030   -4.3660    3.2260 ca        1 UN8     -0.098000
     39 C22         2.6380   -3.9310    2.8270 ca        1 UN8     -0.152000
     40 C23         2.4990   -3.1460    1.6850 ca        1 UN8     -0.094000
     41 H2         -5.2280   -4.0940   -0.9740 h4        1 UN8      0.202000
     42 H41        -2.5210   -5.4020   -1.7600 h1        1 UN8      0.064700
     43 H42        -1.4080   -4.7040   -0.4870 h1        1 UN8      0.064700
     44 H43        -3.0100   -5.4460    0.0010 h1        1 UN8      0.064700
     45 H3         -1.3540   -2.2190   -0.9770 h5        1 UN8      0.103100
     46 HN4        -6.5810    0.0480    0.5400 hn        1 UN8      0.454800
     47 H9         -5.0730    1.1230    2.1060 ha        1 UN8      0.155000
     48 H30        -3.1340    2.6300    2.3720 ha        1 UN8      0.139000
     49 H7         -4.6380    1.3660   -2.2270 ha        1 UN8      0.155000
     50 H6         -2.7030    2.8700   -1.9230 ha        1 UN8      0.139000
     51 H161       -1.4620    4.0870    1.3960 hc        1 UN8      0.084200
     52 H162       -1.3890    4.3370   -0.4000 hc        1 UN8      0.084200
     53 HN15       -1.1920    0.7910   -0.2310 hn        1 UN8      0.339700
     54 H591        4.9970    2.4290    1.1580 h1        1 UN8      0.078200
     55 H592        3.5530    3.5020    1.5110 h1        1 UN8      0.078200
     56 H101        3.3940    4.0640   -0.9540 hc        1 UN8      0.055200
     57 H102        4.8320    3.0140   -1.2860 hc        1 UN8      0.055200
     58 H111        6.2090    4.4030    0.2970 hc        1 UN8      0.041700
     59 H112        4.7740    5.4510    0.6280 hc        1 UN8      0.041700
     60 H121        6.1050    5.0250   -2.1390 hc        1 UN8      0.035033
     61 H122        4.6670    6.0750   -1.8090 hc        1 UN8      0.035033
     62 H123        6.2740    6.4830   -1.0770 hc        1 UN8      0.035033
     63 H171        2.7940   -2.5300   -1.0390 h1        1 UN8      0.091200
     64 H172        4.4590   -1.7860   -0.7960 h1        1 UN8      0.091200
     65 H20         6.0290   -4.3630    2.7880 ha        1 UN8      0.150000
     66 H21         4.0130   -4.9830    4.1310 ha        1 UN8      0.137000
     67 H22         1.7510   -4.2060    3.4150 ha        1 UN8      0.135000
     68 H23         1.5000   -2.8080    1.3630 ha        1 UN8      0.151000
@<TRIPOS>BOND
     1    1    2 2   
     2    2    3 2   
     3    2    4 1   
     4    2   10 1   
     5    4    5 2   
     6    4    9 1   
     7    5    6 1   
     8    5   41 1   
     9    6    7 1   
    10    6    8 1   
    11    7   42 1   
    12    7   43 1   
    13    7   44 1   
    14    8    9 2   
    15    8   45 1   
    16   10   11 1   
    17   10   46 1   
    18   11   12 ar  
    19   11   14 ar  
    20   12   13 ar  
    21   12   47 1   
    22   13   16 ar  
    23   13   48 1   
    24   14   15 ar  
    25   14   49 1   
    26   15   16 ar  
    27   15   50 1   
    28   16   17 1   
    29   17   18 1   
    30   17   51 1   
    31   17   52 1   
    32   18   19 1   
    33   18   24 2   
    34   19   20 1   
    35   19   53 1   
    36   20   21 1   
    37   20   23 2   
    38   21   22 2   
    39   21   32 1   
    40   23   24 1   
    41   23   25 1   
    42   25   26 1   
    43   25   30 1   
    44   26   27 1   
    45   26   54 1   
    46   26   55 1   
    47   27   28 1   
    48   27   56 1   
    49   27   57 1   
    50   28   29 1   
    51   28   58 1   
    52   28   59 1   
    53   29   60 1   
    54   29   61 1   
    55   29   62 1   
    56   30   31 2   
    57   30   32 1   
    58   32   33 1   
    59   33   34 1   
    60   33   63 1   
    61   33   64 1   
    62   34   35 ar  
    63   34   40 ar  
    64   35   36 1   
    65   35   37 ar  
    66   37   38 ar  
    67   37   65 1   
    68   38   39 ar  
    69   38   66 1   
    70   39   40 ar  
    71   39   67 1   
    72   40   68 1   
@<TRIPOS>SUBSTRUCTURE
     1 UN8         1 TEMP              0 ****  ****    0 ROOT
