@<TRIPOS>MOLECULE
UN8
   69    73     1     0     0
SMALL
bcc


@<TRIPOS>ATOM
      1 O2          0.2420   -2.4250   -1.8610 o         1 UN8     -0.571800
      2 S1          0.8130   -1.4530   -1.0750 sy        1 UN8      1.454800
      3 O1          0.0830   -0.3720   -0.6270 o         1 UN8     -0.571800
      4 C1          1.8460   -1.9720    0.0360 cc        1 UN8     -0.194800
      5 C2          1.8290   -1.7890    1.4540 cd        1 UN8     -0.007600
      6 N5          2.8700   -2.5160    1.9680 na        1 UN8     -0.165900
      7 C4          3.2340   -2.6630    3.3470 c3        1 UN8     -0.007400
      8 C3          3.5300   -3.1320    0.8680 cd        1 UN8      0.447400
      9 N7          2.9410   -2.8200   -0.2850 nc        1 UN8     -0.602000
     10 N4          2.1070   -0.7200   -2.2450 n4        1 UN8     -0.558300
     11 C8          1.4860    0.0260   -3.3290 ca        1 UN8     -0.066400
     12 C9          1.5110    1.4330   -3.3260 ca        1 UN8     -0.097000
     13 C30         0.9070    2.1320   -4.3670 ca        1 UN8     -0.092500
     14 C7          0.8740   -0.6690   -4.3890 ca        1 UN8     -0.097000
     15 C6          0.2790    0.0480   -5.4230 ca        1 UN8     -0.092500
     16 C5          0.2940    1.4480   -5.4240 ca        1 UN8     -0.021300
     17 C16        -0.3470    2.2080   -6.5370 c3        1 UN8     -0.074400
     18 C14         0.6770    2.8220   -7.4380 cc        1 UN8      0.431800
     19 N15         0.6540    2.6810   -8.8260 na        1 UN8     -0.250900
     20 C55         1.7370    3.4050   -9.3140 cc        1 UN8     -0.341200
     21 C56         2.1950    3.6080  -10.6800 c         1 UN8      0.761100
     22 O57         1.6270    3.1250  -11.6760 o         1 UN8     -0.620500
     23 C54         2.4010    3.9660   -8.1770 cd        1 UN8      0.493200
     24 N13         1.7260    3.5940   -7.0060 nd        1 UN8     -0.695000
     25 N53         3.5580    4.7140   -8.3370 n         1 UN8     -0.414300
     26 C59         4.1390    5.4420   -7.2260 c3        1 UN8      0.102000
     27 C10         3.4120    6.7330   -6.8500 c3        1 UN8     -0.106400
     28 C11         4.1080    7.3890   -5.6770 c3        1 UN8     -0.075400
     29 C12         3.4180    8.6680   -5.2780 c3        1 UN8     -0.094100
     30 C52         3.9870    5.0070   -9.6650 c         1 UN8      0.811500
     31 O58         4.9550    5.7760   -9.8260 o         1 UN8     -0.607500
     32 N51         3.3420    4.4190  -10.7870 n         1 UN8     -0.477400
     33 C17         3.9110    4.6680  -12.1070 c3        1 UN8      0.142300
     34 C18         4.8830    3.6250  -12.5750 ca        1 UN8     -0.159300
     35 C19         6.2660    3.8960  -12.6450 ca        1 UN8      0.151900
     36 F24         6.7560    5.0960  -12.2600 f         1 UN8     -0.126900
     37 C20         7.1560    2.9170  -13.1320 ca        1 UN8     -0.173000
     38 C21         6.6650    1.6830  -13.5430 ca        1 UN8     -0.092000
     39 C22         5.2980    1.4120  -13.4800 ca        1 UN8     -0.153000
     40 C23         4.4170    2.3770  -13.0010 ca        1 UN8     -0.090000
     41 H2          1.1380   -1.1960    2.0670 h4        1 UN8      0.223000
     42 H41         4.3150   -2.3860    3.4800 h1        1 UN8      0.088033
     43 H42         2.5970   -1.9950    3.9850 h1        1 UN8      0.088033
     44 H43         3.0850   -3.7320    3.6630 h1        1 UN8      0.088033
     45 H3          4.4090   -3.7800    0.9990 h5        1 UN8      0.104100
     46 HN4         2.6660   -1.4730   -2.6560 hn        1 UN8      0.457300
     47 H9          1.9960    1.9950   -2.5110 ha        1 UN8      0.160000
     48 H30         0.9320    3.2360   -4.3670 ha        1 UN8      0.172000
     49 H7          0.8430   -1.7730   -4.4050 ha        1 UN8      0.160000
     50 H6         -0.2040   -0.5030   -6.2470 ha        1 UN8      0.172000
     51 H161       -0.9800    3.0370   -6.1080 hc        1 UN8      0.085700
     52 H162       -1.0280    1.5320   -7.1230 hc        1 UN8      0.085700
     53 HN15       -0.0090    2.2030   -9.3820 hn        1 UN8      0.329700
     54 H591        5.2050    5.6880   -7.5040 h1        1 UN8      0.075700
     55 H592        4.1500    4.7480   -6.3380 h1        1 UN8      0.075700
     56 H101        2.3450    6.5130   -6.5830 hc        1 UN8      0.055700
     57 H102        3.4060    7.4350   -7.7250 hc        1 UN8      0.055700
     58 H111        4.1250    6.6820   -4.8060 hc        1 UN8      0.039700
     59 H112        5.1760    7.6070   -5.9480 hc        1 UN8      0.039700
     60 H121        2.3590    8.4700   -4.9830 hc        1 UN8      0.037700
     61 H122        3.4150    9.3950   -6.1260 hc        1 UN8      0.037700
     62 H123        3.9440    9.1380   -4.4120 hc        1 UN8      0.037700
     63 H171        4.4210    5.6760  -12.0820 h1        1 UN8      0.095200
     64 H172        3.0490    4.7100  -12.8360 h1        1 UN8      0.095200
     65 H20         8.2300    3.1460  -13.1830 ha        1 UN8      0.153000
     66 H21         7.3620    0.9210  -13.9250 ha        1 UN8      0.140000
     67 H22         4.9150    0.4370  -13.8150 ha        1 UN8      0.139000
     68 H23         3.3340    2.1690  -12.9590 ha        1 UN8      0.158000
     69 H421        2.7490   -0.1060   -1.7450 hn        1 UN8      0.457300
@<TRIPOS>BOND
     1    1    2 2   
     2    2    3 2   
     3    2    4 1   
     4    2   10 1   
     5    4    5 2   
     6    4    9 1   
     7    5    6 1   
     8    5   41 1   
     9    6    7 1   
    10    6    8 1   
    11    7   42 1   
    12    7   43 1   
    13    7   44 1   
    14    8    9 2   
    15    8   45 1   
    16   10   11 1   
    17   10   46 1   
    18   10   69 1   
    19   11   12 ar  
    20   11   14 ar  
    21   12   13 ar  
    22   12   47 1   
    23   13   16 ar  
    24   13   48 1   
    25   14   15 ar  
    26   14   49 1   
    27   15   16 ar  
    28   15   50 1   
    29   16   17 1   
    30   17   18 1   
    31   17   51 1   
    32   17   52 1   
    33   18   19 1   
    34   18   24 2   
    35   19   20 1   
    36   19   53 1   
    37   20   21 1   
    38   20   23 2   
    39   21   22 2   
    40   21   32 1   
    41   23   24 1   
    42   23   25 1   
    43   25   26 1   
    44   25   30 1   
    45   26   27 1   
    46   26   54 1   
    47   26   55 1   
    48   27   28 1   
    49   27   56 1   
    50   27   57 1   
    51   28   29 1   
    52   28   58 1   
    53   28   59 1   
    54   29   60 1   
    55   29   61 1   
    56   29   62 1   
    57   30   31 2   
    58   30   32 1   
    59   32   33 1   
    60   33   34 1   
    61   33   63 1   
    62   33   64 1   
    63   34   35 ar  
    64   34   40 ar  
    65   35   36 1   
    66   35   37 ar  
    67   37   38 ar  
    68   37   65 1   
    69   38   39 ar  
    70   38   66 1   
    71   39   40 ar  
    72   39   67 1   
    73   40   68 1   
@<TRIPOS>SUBSTRUCTURE
     1 UN8         1 TEMP              0 ****  ****    0 ROOT
