@<TRIPOS>MOLECULE
UN9
   28    29     1     0     0
SMALL
bcc


@<TRIPOS>ATOM
      1 O18        -0.8340    0.4230   -1.5680 o         1 UN9     -0.776800
      2 C16         0.0530   -0.1400   -0.8560 c         1 UN9      0.927600
      3 O17        -0.0620   -0.6320    0.2770 o         1 UN9     -0.776800
      4 C15         1.4830   -0.2450   -1.5180 c3        1 UN9     -0.056200
      5 N14         1.5960    0.7000   -2.6660 n4        1 UN9     -0.656800
      6 C12         1.9290    0.0400   -3.9710 c         1 UN9      0.495600
      7 O13         3.0610   -0.3920   -4.1260 o         1 UN9     -0.428100
      8 C9          0.8030    0.0350   -4.9390 ca        1 UN9      0.241800
      9 N8          1.0400    0.6450   -6.1490 nb        1 UN9     -0.610000
     10 C7          0.0470    0.6810   -7.0260 ca        1 UN9      0.496300
     11 CL1         0.3430    1.4500   -8.5290 cl        1 UN9     -0.128000
     12 C2         -1.2690    0.1200   -6.7900 ca        1 UN9     -0.099300
     13 C10        -0.4110   -0.5700   -4.6030 ca        1 UN9      0.141800
     14 O19        -0.4800   -1.2650   -3.4370 oh        1 UN9     -0.514100
     15 C3         -1.4950   -0.5170   -5.5420 ca        1 UN9     -0.072000
     16 C4         -2.7640   -1.0790   -5.2600 ca        1 UN9     -0.098000
     17 C5         -3.7750   -1.0070   -6.1940 ca        1 UN9     -0.108000
     18 C6         -3.5510   -0.3740   -7.4340 ca        1 UN9     -0.098000
     19 C1         -2.3220    0.1790   -7.7300 ca        1 UN9     -0.110000
     20 H151        2.2720   -0.0100   -0.7600 hx        1 UN9      0.097200
     21 H152        1.6050   -1.2990   -1.8830 hx        1 UN9      0.097200
     22 HN14        2.2970    1.4130   -2.4620 hn        1 UN9      0.463300
     23 HO19       -1.2800   -0.9870   -2.9340 ho        1 UN9      0.498000
     24 H4         -2.9270   -1.5740   -4.2890 ha        1 UN9      0.155000
     25 H5         -4.7630   -1.4420   -5.9790 ha        1 UN9      0.151000
     26 H6         -4.3710   -0.3260   -8.1690 ha        1 UN9      0.148000
     27 H1         -2.1560    0.6720   -8.7010 ha        1 UN9      0.157000
     28 H142        0.6520    1.1500   -2.7480 hn        1 UN9      0.463300
@<TRIPOS>BOND
     1    1    2 1   
     2    2    3 1   
     3    2    4 1   
     4    4    5 1   
     5    4   20 1   
     6    4   21 1   
     7    5    6 1   
     8    5   22 1   
     9    5   28 1   
    10    6    7 2   
    11    6    8 1   
    12    8    9 ar  
    13    8   13 ar  
    14    9   10 ar  
    15   10   11 1   
    16   10   12 ar  
    17   12   15 ar  
    18   12   19 ar  
    19   13   14 1   
    20   13   15 ar  
    21   14   23 1   
    22   15   16 ar  
    23   16   17 ar  
    24   16   24 1   
    25   17   18 ar  
    26   17   25 1   
    27   18   19 ar  
    28   18   26 1   
    29   19   27 1   
@<TRIPOS>SUBSTRUCTURE
     1 UN9         1 TEMP              0 ****  ****    0 ROOT
