@<TRIPOS>MOLECULE
UN9
   28    29     1     0     0
SMALL
bcc


@<TRIPOS>ATOM
      1 O18        -0.8220    0.3560   -1.5550 o         1 UN9     -0.776800
      2 C16         0.0590   -0.2360   -0.8580 c         1 UN9      0.927600
      3 O17        -0.0610   -0.7540    0.2630 o         1 UN9     -0.776800
      4 C15         1.4860   -0.3430   -1.5250 c3        1 UN9     -0.056200
      5 N14         1.6100    0.6280   -2.6510 n4        1 UN9     -0.656800
      6 C12         1.9320   -0.0040   -3.9710 c         1 UN9      0.495600
      7 O13         3.0580   -0.4460   -4.1390 o         1 UN9     -0.428100
      8 C9          0.8040    0.0290   -4.9370 ca        1 UN9      0.241800
      9 N8          1.0470    0.6650   -6.1320 nb        1 UN9     -0.610000
     10 C7          0.0530    0.7350   -7.0060 ca        1 UN9      0.496300
     11 CL1         0.3570    1.5360   -8.4910 cl        1 UN9     -0.128000
     12 C2         -1.2690    0.1850   -6.7810 ca        1 UN9     -0.099300
     13 C10        -0.4170   -0.5690   -4.6140 ca        1 UN9      0.141800
     14 O19        -0.4920   -1.2920   -3.4640 oh        1 UN9     -0.514100
     15 C3         -1.5010   -0.4800   -5.5480 ca        1 UN9     -0.072000
     16 C4         -2.7760   -1.0320   -5.2780 ca        1 UN9     -0.098000
     17 C5         -3.7880   -0.9250   -6.2070 ca        1 UN9     -0.108000
     18 C6         -3.5580   -0.2660   -7.4330 ca        1 UN9     -0.098000
     19 C1         -2.3240    0.2800   -7.7170 ca        1 UN9     -0.110000
     20 H151        2.2790   -0.1360   -0.7630 hx        1 UN9      0.097200
     21 H152        1.5950   -1.3890   -1.9160 hx        1 UN9      0.097200
     22 HN14        2.3200    1.3270   -2.4300 hn        1 UN9      0.463300
     23 HO19       -1.2880   -1.0160   -2.9530 ho        1 UN9      0.498000
     24 H4         -2.9440   -1.5490   -4.3190 ha        1 UN9      0.155000
     25 H5         -4.7810   -1.3530   -6.0010 ha        1 UN9      0.151000
     26 H6         -4.3780   -0.1890   -8.1640 ha        1 UN9      0.148000
     27 H1         -2.1530    0.7930   -8.6770 ha        1 UN9      0.157000
     28 H142        0.6710    1.0920   -2.7200 hn        1 UN9      0.463300
@<TRIPOS>BOND
     1    1    2 1   
     2    2    3 1   
     3    2    4 1   
     4    4    5 1   
     5    4   20 1   
     6    4   21 1   
     7    5    6 1   
     8    5   22 1   
     9    5   28 1   
    10    6    7 2   
    11    6    8 1   
    12    8    9 ar  
    13    8   13 ar  
    14    9   10 ar  
    15   10   11 1   
    16   10   12 ar  
    17   12   15 ar  
    18   12   19 ar  
    19   13   14 1   
    20   13   15 ar  
    21   14   23 1   
    22   15   16 ar  
    23   16   17 ar  
    24   16   24 1   
    25   17   18 ar  
    26   17   25 1   
    27   18   19 ar  
    28   18   26 1   
    29   19   27 1   
@<TRIPOS>SUBSTRUCTURE
     1 UN9         1 TEMP              0 ****  ****    0 ROOT
