@<TRIPOS>MOLECULE
UN9
   27    28     1     0     0
SMALL
bcc


@<TRIPOS>ATOM
      1 O18       -37.9750  -17.0760    3.5710 o         1 UN9     -0.835800
      2 C16       -36.9400  -17.5350    4.1500 c         1 UN9      0.898600
      3 O17       -35.8530  -16.9140    4.2530 o         1 UN9     -0.835800
      4 C15       -37.0030  -18.9590    4.7640 c3        1 UN9     -0.080000
      5 N14       -38.1640  -19.7240    4.3620 n         1 UN9     -0.487900
      6 C12       -39.2680  -19.7760    5.1990 c         1 UN9      0.556600
      7 O13       -39.2030  -19.7580    6.4410 o         1 UN9     -0.587100
      8 C9        -40.6060  -19.9440    4.5100 ca        1 UN9      0.238800
      9 N8        -41.1780  -21.1830    4.5670 nb        1 UN9     -0.580000
     10 C7        -42.3780  -21.3500    4.0240 ca        1 UN9      0.447300
     11 CL1       -43.0760  -22.9250    4.1010 cl        1 UN9     -0.188000
     12 C2        -43.1290  -20.3070    3.3760 ca        1 UN9     -0.103300
     13 C10       -41.2210  -18.8460    3.8880 ca        1 UN9      0.113800
     14 O19       -40.7140  -17.5950    3.8050 oh        1 UN9     -0.502100
     15 C3        -42.5260  -19.0250    3.3090 ca        1 UN9     -0.056000
     16 C4        -43.2140  -17.9580    2.6750 ca        1 UN9     -0.080000
     17 C5        -44.4600  -18.1630    2.1330 ca        1 UN9     -0.148000
     18 C6        -45.0650  -19.4380    2.2030 ca        1 UN9     -0.123000
     19 C1        -44.4160  -20.4880    2.8100 ca        1 UN9     -0.121000
     20 H151      -36.0930  -19.5300    4.4320 h1        1 UN9      0.060700
     21 H152      -36.9750  -18.8640    5.8830 h1        1 UN9      0.060700
     22 HN14      -38.3890  -19.5780    3.3960 hn        1 UN9      0.291500
     23 HO19      -39.7470  -17.5790    4.0190 ho        1 UN9      0.508000
     24 H4        -42.7180  -16.9740    2.6340 ha        1 UN9      0.163000
     25 H5        -44.9980  -17.3400    1.6410 ha        1 UN9      0.128000
     26 H6        -46.0630  -19.5820    1.7650 ha        1 UN9      0.124000
     27 H1        -44.8890  -21.4800    2.8620 ha        1 UN9      0.140000
@<TRIPOS>BOND
     1    1    2 1   
     2    2    3 1   
     3    2    4 1   
     4    4    5 1   
     5    4   20 1   
     6    4   21 1   
     7    5    6 1   
     8    5   22 1   
     9    6    7 2   
    10    6    8 1   
    11    8    9 ar  
    12    8   13 ar  
    13    9   10 ar  
    14   10   11 1   
    15   10   12 ar  
    16   12   15 ar  
    17   12   19 ar  
    18   13   14 1   
    19   13   15 ar  
    20   14   23 1   
    21   15   16 ar  
    22   16   17 ar  
    23   16   24 1   
    24   17   18 ar  
    25   17   25 1   
    26   18   19 ar  
    27   18   26 1   
    28   19   27 1   
@<TRIPOS>SUBSTRUCTURE
     1 UN9         1 TEMP              0 ****  ****    0 ROOT
