@<TRIPOS>MOLECULE
UNA
   34    33     1     0     0
SMALL
bcc


@<TRIPOS>ATOM
      1 C11         0.0120    0.0230   -0.0140 c3        1 UNA     -0.093100
      2 C10         1.5180    0.0030    0.0150 c3        1 UNA     -0.080400
      3 C9          2.0470    0.0130    1.4330 c3        1 UNA     -0.079400
      4 C8          3.5610   -0.0060    1.4570 c3        1 UNA     -0.079400
      5 C7          4.0880    0.0040    2.8750 c3        1 UNA     -0.079400
      6 C6          5.6020   -0.0160    2.8990 c3        1 UNA     -0.079400
      7 C5          6.1290   -0.0050    4.3170 c3        1 UNA     -0.079400
      8 C4          7.6420   -0.0250    4.3400 c3        1 UNA     -0.078400
      9 C3          8.1690   -0.0140    5.7590 c3        1 UNA     -0.076400
     10 C2          9.6810   -0.0360    5.7780 c3        1 UNA     -0.204400
     11 C1         10.2200    0.0010    7.1740 c         1 UNA      0.564900
     12 O1         11.3120   -0.4740    7.4840 o         1 UNA     -0.528100
     13 H113       -0.3570    0.0140   -1.0680 hc        1 UNA      0.032700
     14 H112       -0.3800    0.9390    0.4900 hc        1 UNA      0.032700
     15 H111       -0.4040   -0.8700    0.5130 hc        1 UNA      0.032700
     16 H102        1.9170    0.8930   -0.5400 hc        1 UNA      0.038700
     17 H101        1.8930   -0.9120   -0.5170 hc        1 UNA      0.038700
     18 H92         1.6510   -0.8770    1.9880 hc        1 UNA      0.039700
     19 H91         1.6750    0.9280    1.9660 hc        1 UNA      0.039700
     20 H82         3.9570    0.8840    0.9010 hc        1 UNA      0.039700
     21 H81         3.9330   -0.9210    0.9240 hc        1 UNA      0.039700
     22 H72         3.7160    0.9190    3.4080 hc        1 UNA      0.039700
     23 H71         3.6920   -0.8860    3.4310 hc        1 UNA      0.039700
     24 H62         5.9980    0.8750    2.3430 hc        1 UNA      0.040200
     25 H61         5.9740   -0.9300    2.3660 hc        1 UNA      0.040200
     26 H52         5.7320   -0.8950    4.8730 hc        1 UNA      0.040200
     27 H51         5.7570    0.9100    4.8500 hc        1 UNA      0.040200
     28 H42         8.0150   -0.9400    3.8080 hc        1 UNA      0.042700
     29 H41         8.0390    0.8650    3.7840 hc        1 UNA      0.042700
     30 H32         7.7960    0.9010    6.2910 hc        1 UNA      0.043700
     31 H31         7.7720   -0.9050    6.3140 hc        1 UNA      0.043700
     32 H22        10.0620   -0.9480    5.2460 hc        1 UNA      0.074200
     33 H21        10.0850    0.8590    5.2290 hc        1 UNA      0.074200
     34 H1          9.5700    0.5020    7.9280 h4        1 UNA     -0.006800
@<TRIPOS>BOND
     1    1    2 1   
     2    1   13 1   
     3    1   14 1   
     4    1   15 1   
     5    2    3 1   
     6    2   16 1   
     7    2   17 1   
     8    3    4 1   
     9    3   18 1   
    10    3   19 1   
    11    4    5 1   
    12    4   20 1   
    13    4   21 1   
    14    5    6 1   
    15    5   22 1   
    16    5   23 1   
    17    6    7 1   
    18    6   24 1   
    19    6   25 1   
    20    7    8 1   
    21    7   26 1   
    22    7   27 1   
    23    8    9 1   
    24    8   28 1   
    25    8   29 1   
    26    9   10 1   
    27    9   30 1   
    28    9   31 1   
    29   10   11 1   
    30   10   32 1   
    31   10   33 1   
    32   11   12 2   
    33   11   34 1   
@<TRIPOS>SUBSTRUCTURE
     1 UNA         1 TEMP              0 ****  ****    0 ROOT
