@<TRIPOS>MOLECULE
UNA
   34    33     1     0     0
SMALL
bcc


@<TRIPOS>ATOM
      1 C11         0.0150    0.0520   -0.0190 c3        1 UNA     -0.093100
      2 C10         1.5210    0.0090    0.0110 c3        1 UNA     -0.080400
      3 C9          2.0490    0.0350    1.4300 c3        1 UNA     -0.079400
      4 C8          3.5620   -0.0090    1.4550 c3        1 UNA     -0.079400
      5 C7          4.0890    0.0170    2.8740 c3        1 UNA     -0.079400
      6 C6          5.6020   -0.0270    2.8990 c3        1 UNA     -0.079400
      7 C5          6.1280   -0.0000    4.3180 c3        1 UNA     -0.079400
      8 C4          7.6410   -0.0460    4.3420 c3        1 UNA     -0.078400
      9 C3          8.1670   -0.0180    5.7620 c3        1 UNA     -0.076400
     10 C2          9.6780   -0.0660    5.7820 c3        1 UNA     -0.204400
     11 C1         10.2160   -0.0130    7.1790 c         1 UNA      0.564900
     12 O1         11.2990   -0.5040    7.4990 o         1 UNA     -0.528100
     13 H113       -0.3530    0.0330   -1.0730 hc        1 UNA      0.032700
     14 H112       -0.3630    0.9830    0.4700 hc        1 UNA      0.032700
     15 H111       -0.4150   -0.8260    0.5210 hc        1 UNA      0.032700
     16 H102        1.9340    0.8840   -0.5570 hc        1 UNA      0.038700
     17 H101        1.8820   -0.9190   -0.5050 hc        1 UNA      0.038700
     18 H92         1.6380   -0.8400    1.9990 hc        1 UNA      0.039700
     19 H91         1.6910    0.9630    1.9470 hc        1 UNA      0.039700
     20 H82         3.9730    0.8660    0.8850 hc        1 UNA      0.039700
     21 H81         3.9200   -0.9380    0.9380 hc        1 UNA      0.039700
     22 H72         3.7310    0.9470    3.3910 hc        1 UNA      0.039700
     23 H71         3.6770   -0.8570    3.4440 hc        1 UNA      0.039700
     24 H62         6.0130    0.8470    2.3290 hc        1 UNA      0.040200
     25 H61         5.9590   -0.9570    2.3830 hc        1 UNA      0.040200
     26 H52         5.7160   -0.8740    4.8890 hc        1 UNA      0.040200
     27 H51         5.7710    0.9300    4.8340 hc        1 UNA      0.040200
     28 H42         7.9980   -0.9760    3.8270 hc        1 UNA      0.042700
     29 H41         8.0530    0.8280    3.7710 hc        1 UNA      0.042700
     30 H32         7.8090    0.9130    6.2770 hc        1 UNA      0.043700
     31 H31         7.7540   -0.8920    6.3320 hc        1 UNA      0.043700
     32 H22        10.0440   -0.9950    5.2680 hc        1 UNA      0.074200
     33 H21        10.0980    0.8110    5.2180 hc        1 UNA      0.074200
     34 H1          9.5760    0.5150    7.9210 h4        1 UNA     -0.006800
@<TRIPOS>BOND
     1    1    2 1   
     2    1   13 1   
     3    1   14 1   
     4    1   15 1   
     5    2    3 1   
     6    2   16 1   
     7    2   17 1   
     8    3    4 1   
     9    3   18 1   
    10    3   19 1   
    11    4    5 1   
    12    4   20 1   
    13    4   21 1   
    14    5    6 1   
    15    5   22 1   
    16    5   23 1   
    17    6    7 1   
    18    6   24 1   
    19    6   25 1   
    20    7    8 1   
    21    7   26 1   
    22    7   27 1   
    23    8    9 1   
    24    8   28 1   
    25    8   29 1   
    26    9   10 1   
    27    9   30 1   
    28    9   31 1   
    29   10   11 1   
    30   10   32 1   
    31   10   33 1   
    32   11   12 2   
    33   11   34 1   
@<TRIPOS>SUBSTRUCTURE
     1 UNA         1 TEMP              0 ****  ****    0 ROOT
