@<TRIPOS>MOLECULE
UNA
   34    33     1     0     0
SMALL
bcc


@<TRIPOS>ATOM
      1 C11        -0.4200    0.0510    6.8220 c3        1 UNA     -0.093100
      2 C10         0.4340    0.1170    5.5820 c3        1 UNA     -0.080400
      3 C9         -0.4000   -0.0100    4.3250 c3        1 UNA     -0.079400
      4 C8          0.4610    0.0570    3.0830 c3        1 UNA     -0.079400
      5 C7         -0.3740   -0.0700    1.8270 c3        1 UNA     -0.079400
      6 C6          0.4880   -0.0020    0.5850 c3        1 UNA     -0.079400
      7 C5         -0.3480   -0.1290   -0.6710 c3        1 UNA     -0.079400
      8 C4          0.5150   -0.0620   -1.9130 c3        1 UNA     -0.078400
      9 C3         -0.3220   -0.1890   -3.1680 c3        1 UNA     -0.076400
     10 C2          0.5430   -0.1200   -4.4070 c3        1 UNA     -0.204400
     11 C1         -0.2660   -0.2710   -5.6580 c         1 UNA      0.564900
     12 O1          0.0760    0.2090   -6.7390 o         1 UNA     -0.528100
     13 H113       -0.9670   -0.9220    6.8720 hc        1 UNA      0.032700
     14 H112        0.2150    0.1460    7.7360 hc        1 UNA      0.032700
     15 H111       -1.1720    0.8760    6.8270 hc        1 UNA      0.032700
     16 H102        0.9950    1.0890    5.5620 hc        1 UNA      0.038700
     17 H101        1.1990   -0.7040    5.6070 hc        1 UNA      0.038700
     18 H92        -0.9600   -0.9820    4.3430 hc        1 UNA      0.039700
     19 H91        -1.1650    0.8110    4.2980 hc        1 UNA      0.039700
     20 H82         1.0210    1.0300    3.0650 hc        1 UNA      0.039700
     21 H81         1.2260   -0.7630    3.1100 hc        1 UNA      0.039700
     22 H72        -0.9340   -1.0420    1.8440 hc        1 UNA      0.039700
     23 H71        -1.1390    0.7510    1.7990 hc        1 UNA      0.039700
     24 H62         1.0470    0.9700    0.5670 hc        1 UNA      0.040200
     25 H61         1.2520   -0.8230    0.6120 hc        1 UNA      0.040200
     26 H52        -0.9080   -1.1010   -0.6530 hc        1 UNA      0.040200
     27 H51        -1.1120    0.6920   -0.6990 hc        1 UNA      0.040200
     28 H42         1.0740    0.9100   -1.9310 hc        1 UNA      0.042700
     29 H41         1.2790   -0.8830   -1.8850 hc        1 UNA      0.042700
     30 H32        -0.8820   -1.1620   -3.1490 hc        1 UNA      0.043700
     31 H31        -1.0850    0.6320   -3.1950 hc        1 UNA      0.043700
     32 H22         1.1070    0.8500   -4.4320 hc        1 UNA      0.074200
     33 H21         1.3060   -0.9460   -4.3890 hc        1 UNA      0.074200
     34 H1         -1.2060   -0.8600   -5.5560 h4        1 UNA     -0.006800
@<TRIPOS>BOND
     1    1    2 1   
     2    1   13 1   
     3    1   14 1   
     4    1   15 1   
     5    2    3 1   
     6    2   16 1   
     7    2   17 1   
     8    3    4 1   
     9    3   18 1   
    10    3   19 1   
    11    4    5 1   
    12    4   20 1   
    13    4   21 1   
    14    5    6 1   
    15    5   22 1   
    16    5   23 1   
    17    6    7 1   
    18    6   24 1   
    19    6   25 1   
    20    7    8 1   
    21    7   26 1   
    22    7   27 1   
    23    8    9 1   
    24    8   28 1   
    25    8   29 1   
    26    9   10 1   
    27    9   30 1   
    28    9   31 1   
    29   10   11 1   
    30   10   32 1   
    31   10   33 1   
    32   11   12 2   
    33   11   34 1   
@<TRIPOS>SUBSTRUCTURE
     1 UNA         1 TEMP              0 ****  ****    0 ROOT
