@<TRIPOS>MOLECULE
UNB
   64    67     1     0     0
SMALL
bcc


@<TRIPOS>ATOM
      1 C1          1.5410   -0.6530   -2.2140 ca        1 UNB      0.068000
      2 C2          2.5980   -1.5620   -1.8890 ca        1 UNB     -0.447500
      3 C3          1.6660    0.7180   -1.8590 ca        1 UNB     -0.073000
      4 C4          0.3560   -1.0710   -2.8800 ca        1 UNB     -0.195000
      5 S5          2.5310   -3.1670   -2.2360 sy        1 UNB      1.535200
      6 C6          3.7290   -1.0630   -1.2480 ca        1 UNB      0.031000
      7 C7          2.8410    1.1730   -1.2100 ca        1 UNB      0.007000
      8 C8          0.6100    1.6240   -2.1600 ca        1 UNB     -0.085000
      9 C9         -0.6480   -0.1740   -3.1610 ca        1 UNB     -0.056000
     10 N10         1.4420   -3.7320   -1.1440 nu        1 UNB     -0.772500
     11 O11         3.7990   -3.8130   -2.0060 o         1 UNB     -0.703800
     12 O12         2.0760   -3.4790   -3.5320 o         1 UNB     -0.703800
     13 C13         3.8610    0.2920   -0.9140 ca        1 UNB     -0.180000
     14 C14        -0.5260    1.1870   -2.7930 ca        1 UNB     -0.125000
     15 C15         1.6230   -4.9670   -0.5070 ca        1 UNB      0.096600
     16 C16         2.0280   -6.1030   -1.2500 ca        1 UNB      0.063100
     17 C17         1.4680   -5.1250    0.8880 ca        1 UNB     -0.087000
     18 C18         2.5500   -7.2440   -0.6060 ca        1 UNB     -0.157300
     19 O19         2.0840   -6.1050   -2.6340 oh        1 UNB     -0.569100
     20 C20         1.8270   -6.3150    1.5040 ca        1 UNB     -0.118000
     21 C21         2.4160   -7.3670    0.7830 ca        1 UNB     -0.017300
     22 C22         3.2370   -8.2620   -1.4390 c3        1 UNB     -0.085100
     23 C23         2.8740   -8.5790    1.5020 c3        1 UNB     -0.075800
     24 C24         4.6330   -7.8440   -1.8410 c         1 UNB      0.554100
     25 N25         4.8140   -6.4040   -2.2520 ny        1 UNB     -0.669800
     26 O26         5.6220   -8.5630   -1.8880 o         1 UNB     -0.446100
     27 C27         6.1930   -6.0080   -2.6540 c3        1 UNB      0.158100
     28 C28         6.5120   -6.3210   -4.0840 ca        1 UNB     -0.106300
     29 C29         6.1230   -5.4350   -5.0950 ca        1 UNB     -0.089000
     30 C30         7.2460   -7.4700   -4.4040 ca        1 UNB     -0.089000
     31 C31         6.4750   -5.6870   -6.4210 ca        1 UNB     -0.092000
     32 C32         7.6040   -7.7240   -5.7270 ca        1 UNB     -0.092000
     33 C33         7.2190   -6.8300   -6.7340 ca        1 UNB     -0.230900
     34 C34         7.5460   -7.1190   -8.1490 ce        1 UNB      0.576800
     35 N35         9.0160   -6.9640   -8.4380 nz        1 UNB     -0.821600
     36 N36         6.8080   -7.4620   -9.1310 n2        1 UNB     -0.686100
     37 H4          0.2500   -2.1160   -3.2130 ha        1 UNB      0.146000
     38 H6          4.5550   -1.7530   -0.9910 ha        1 UNB      0.149000
     39 H7          2.9260    2.2410   -0.9450 ha        1 UNB      0.161000
     40 H8          0.7250    2.6830   -1.8740 ha        1 UNB      0.155000
     41 H9         -1.5610   -0.5080   -3.6830 ha        1 UNB      0.155000
     42 H10         0.6910   -3.1840   -0.7880 hn        1 UNB      0.476800
     43 H13         4.7770    0.6420   -0.4120 ha        1 UNB      0.161000
     44 H14        -1.3480    1.8830   -3.0270 ha        1 UNB      0.162000
     45 H17         1.0700   -4.2940    1.4950 ha        1 UNB      0.166000
     46 H19         1.3060   -5.6380   -2.9880 ho        1 UNB      0.477000
     47 H20         1.6740   -6.4270    2.5910 ha        1 UNB      0.170000
     48 H221        3.3300   -9.2460   -0.8960 hc        1 UNB      0.128200
     49 H222        2.6550   -8.4420   -2.3900 hc        1 UNB      0.128200
     50 H231        2.7420   -8.4660    2.6080 hc        1 UNB      0.066367
     51 H232        2.2810   -9.4710    1.1740 hc        1 UNB      0.066367
     52 H233        3.9560   -8.7780    1.3010 hc        1 UNB      0.066367
     53 H25         4.1570   -6.1950   -3.0250 hn        1 UNB      0.494300
     54 H271        6.9240   -6.5290   -1.9680 hx        1 UNB      0.125700
     55 H272        6.2640   -4.8890   -2.4870 hx        1 UNB      0.125700
     56 H29         5.5400   -4.5290   -4.8490 ha        1 UNB      0.179500
     57 H30         7.5360   -8.1800   -3.6090 ha        1 UNB      0.179500
     58 H31         6.1600   -4.9850   -7.2110 ha        1 UNB      0.162500
     59 H32         8.1670   -8.6400   -5.9680 ha        1 UNB      0.162500
     60 H351        9.2720   -5.9780   -8.3120 hn        1 UNB      0.476133
     61 H352        9.2520   -7.2540   -9.3980 hn        1 UNB      0.476133
     62 H36         5.8250   -7.5820   -8.9900 hn        1 UNB      0.496400
     63 H252        4.5140   -5.7890   -1.4690 hn        1 UNB      0.494300
     64 H353        9.5400   -7.5380   -7.7690 hn        1 UNB      0.476133
@<TRIPOS>BOND
     1    1    2 ar  
     2    1    3 ar  
     3    1    4 ar  
     4    2    5 1   
     5    2    6 ar  
     6    3    7 ar  
     7    3    8 ar  
     8    4    9 ar  
     9    4   37 1   
    10    5   10 1   
    11    5   11 2   
    12    5   12 2   
    13    6   13 ar  
    14    6   38 1   
    15    7   13 ar  
    16    7   39 1   
    17    8   14 ar  
    18    8   40 1   
    19    9   14 ar  
    20    9   41 1   
    21   10   15 1   
    22   10   42 1   
    23   13   43 1   
    24   14   44 1   
    25   15   16 ar  
    26   15   17 ar  
    27   16   18 ar  
    28   16   19 1   
    29   17   20 ar  
    30   17   45 1   
    31   18   21 ar  
    32   18   22 1   
    33   19   46 1   
    34   20   21 ar  
    35   20   47 1   
    36   21   23 1   
    37   22   24 1   
    38   22   48 1   
    39   22   49 1   
    40   23   50 1   
    41   23   51 1   
    42   23   52 1   
    43   24   25 1   
    44   24   26 2   
    45   25   27 1   
    46   25   53 1   
    47   25   63 1   
    48   27   28 1   
    49   27   54 1   
    50   27   55 1   
    51   28   29 ar  
    52   28   30 ar  
    53   29   31 ar  
    54   29   56 1   
    55   30   32 ar  
    56   30   57 1   
    57   31   33 ar  
    58   31   58 1   
    59   32   33 ar  
    60   32   59 1   
    61   33   34 1   
    62   34   35 1   
    63   34   36 2   
    64   35   60 1   
    65   35   61 1   
    66   35   64 1   
    67   36   62 1   
@<TRIPOS>SUBSTRUCTURE
     1 UNB         1 TEMP              0 ****  ****    0 ROOT
