@<TRIPOS>MOLECULE
UNB
   65    67     1     0     0
SMALL
bcc


@<TRIPOS>ATOM
      1 C1         -0.0390    0.8150   -0.4840 ca        1 UNB      0.112000
      2 C2          1.2280    0.1460   -0.2890 ca        1 UNB     -0.643500
      3 C3         -0.6090    1.5640    0.5890 ca        1 UNB     -0.106000
      4 C4         -0.7440    0.7720   -1.7090 ca        1 UNB     -0.228000
      5 S5          2.0040   -0.6430   -1.3630 s4        1 UNB      1.673300
      6 C6          1.8340    0.2740    0.9940 ca        1 UNB      0.057000
      7 C7          0.0540    1.6510    1.8290 ca        1 UNB      0.095000
      8 C8         -1.8510    2.2400    0.4030 ca        1 UNB     -0.051000
      9 C9         -1.9450    1.4400   -1.8650 ca        1 UNB     -0.007000
     10 N10         0.8680   -2.8320   -1.0100 nh        1 UNB     -0.863200
     11 O11         3.2390   -1.1090   -1.0300 o         1 UNB     -0.441400
     12 O12         1.5810   -0.7060   -2.6530 o         1 UNB     -0.441400
     13 C13         1.2720    1.0000    2.0240 ca        1 UNB     -0.187000
     14 C14        -2.5080    2.1790   -0.8030 ca        1 UNB     -0.128000
     15 C15         1.6990   -3.9570   -0.7180 ca        1 UNB      0.001600
     16 C16         2.2200   -4.7930   -1.7330 ca        1 UNB      0.121100
     17 C17         2.0570   -4.2380    0.6180 ca        1 UNB     -0.080000
     18 C18         3.1030   -5.8500   -1.4260 ca        1 UNB     -0.133300
     19 O19         1.9600   -4.5770   -3.0720 oh        1 UNB     -0.523100
     20 C20         2.9270   -5.2770    0.9170 ca        1 UNB     -0.106000
     21 C21         3.4650   -6.0880   -0.0920 ca        1 UNB     -0.009300
     22 C22         3.5810   -6.7340   -2.5230 c3        1 UNB     -0.076100
     23 C23         4.3850   -7.1900    0.2730 c3        1 UNB     -0.073800
     24 C24         4.9520   -6.3450   -3.0110 c         1 UNB      0.557100
     25 N25         5.4020   -7.0700   -4.2950 n4        1 UNB     -0.696800
     26 O26         5.7650   -5.5590   -2.5660 o         1 UNB     -0.378100
     27 C27         6.7210   -7.7500   -4.1110 c3        1 UNB      0.154100
     28 C28         7.2930   -8.2900   -5.3840 ca        1 UNB     -0.130300
     29 C29         8.0150   -7.4490   -6.2390 ca        1 UNB     -0.091500
     30 C30         7.1850   -9.6550   -5.6780 ca        1 UNB     -0.091500
     31 C31         8.6320   -7.9680   -7.3790 ca        1 UNB     -0.082000
     32 C32         7.8020  -10.1790   -6.8150 ca        1 UNB     -0.082000
     33 C33         8.5270   -9.3350   -7.6640 ca        1 UNB     -0.213900
     34 C34         9.1370   -9.8760   -8.9050 ce        1 UNB      0.565800
     35 N35        10.4790  -10.5110   -8.6630 n4        1 UNB     -0.819600
     36 N36         8.7130   -9.8860  -10.1070 n2        1 UNB     -0.668100
     37 H4         -0.3490    0.2230   -2.5790 ha        1 UNB      0.162000
     38 H6          2.8130   -0.2210    1.1670 ha        1 UNB      0.171000
     39 H7         -0.3960    2.2440    2.6490 ha        1 UNB      0.183000
     40 H8         -2.2720    2.8160    1.2450 ha        1 UNB      0.172000
     41 H9         -2.4740    1.4020   -2.8340 ha        1 UNB      0.172000
     42 H10         0.1760   -2.7190   -0.2840 hn        1 UNB      0.403300
     43 H13         1.7890    1.0770    2.9970 ha        1 UNB      0.188000
     44 H14        -3.4660    2.7050   -0.9530 ha        1 UNB      0.182000
     45 H17         1.6460   -3.6310    1.4440 ha        1 UNB      0.160000
     46 H19         0.9970   -4.5300   -3.1920 ho        1 UNB      0.438000
     47 H20         3.1970   -5.4700    1.9700 ha        1 UNB      0.176000
     48 H221        2.8540   -6.6850   -3.3850 hc        1 UNB      0.114700
     49 H222        3.6320   -7.8010   -2.1580 hc        1 UNB      0.114700
     50 H231        4.7510   -7.0800    1.3250 hc        1 UNB      0.063367
     51 H232        3.8580   -8.1760    0.1930 hc        1 UNB      0.063367
     52 H233        5.2750   -7.2000   -0.4040 hc        1 UNB      0.063367
     53 H25         4.6930   -7.7530   -4.5740 hn        1 UNB      0.456800
     54 H271        7.4340   -6.9910   -3.6640 hx        1 UNB      0.126200
     55 H272        6.5740   -8.5820   -3.3620 hx        1 UNB      0.126200
     56 H29         8.1230   -6.3750   -6.0110 ha        1 UNB      0.168000
     57 H30         6.6280  -10.3330   -5.0090 ha        1 UNB      0.168000
     58 H31         9.1950   -7.2930   -8.0470 ha        1 UNB      0.173500
     59 H32         7.7020  -11.2550   -7.0380 ha        1 UNB      0.173500
     60 H351       11.1230   -9.7980   -8.3030 hn        1 UNB      0.480133
     61 H352       10.8720  -10.9120   -9.5300 hn        1 UNB      0.480133
     62 H36         7.8260   -9.4810  -10.3310 hn        1 UNB      0.498400
     63 H102        0.3970   -2.9530   -1.8930 hn        1 UNB      0.403300
     64 H252        5.4880   -6.3730   -5.0450 hn        1 UNB      0.456800
     65 H353       10.3710  -11.2560   -7.9660 hn        1 UNB      0.480133
@<TRIPOS>BOND
     1    1    2 ar  
     2    1    3 ar  
     3    1    4 ar  
     4    2    5 1   
     5    2    6 ar  
     6    3    7 ar  
     7    3    8 ar  
     8    4    9 ar  
     9    4   37 1   
    10    5   11 1   
    11    5   12 1   
    12    6   13 ar  
    13    6   38 1   
    14    7   13 ar  
    15    7   39 1   
    16    8   14 ar  
    17    8   40 1   
    18    9   14 ar  
    19    9   41 1   
    20   10   15 1   
    21   10   42 1   
    22   10   63 1   
    23   13   43 1   
    24   14   44 1   
    25   15   16 ar  
    26   15   17 ar  
    27   16   18 ar  
    28   16   19 1   
    29   17   20 ar  
    30   17   45 1   
    31   18   21 ar  
    32   18   22 1   
    33   19   46 1   
    34   20   21 ar  
    35   20   47 1   
    36   21   23 1   
    37   22   24 1   
    38   22   48 1   
    39   22   49 1   
    40   23   50 1   
    41   23   51 1   
    42   23   52 1   
    43   24   25 1   
    44   24   26 2   
    45   25   27 1   
    46   25   53 1   
    47   25   64 1   
    48   27   28 1   
    49   27   54 1   
    50   27   55 1   
    51   28   29 ar  
    52   28   30 ar  
    53   29   31 ar  
    54   29   56 1   
    55   30   32 ar  
    56   30   57 1   
    57   31   33 ar  
    58   31   58 1   
    59   32   33 ar  
    60   32   59 1   
    61   33   34 1   
    62   34   35 1   
    63   34   36 2   
    64   35   60 1   
    65   35   61 1   
    66   35   65 1   
    67   36   62 1   
@<TRIPOS>SUBSTRUCTURE
     1 UNB         1 TEMP              0 ****  ****    0 ROOT
