@<TRIPOS>MOLECULE
UNB
   62    65     1     0     0
SMALL
bcc


@<TRIPOS>ATOM
      1 C1          5.4100   -0.5910   -0.7850 ca        1 UNB      0.066000
      2 C2          5.2910    0.2150    0.3880 ca        1 UNB     -0.374500
      3 C3          5.9540   -0.0250   -1.9690 ca        1 UNB     -0.066000
      4 C4          5.0060   -1.9580   -0.8210 ca        1 UNB     -0.147000
      5 S5          4.6310   -0.3400    1.8440 sy        1 UNB      1.511200
      6 C6          5.7390    1.5240    0.3430 ca        1 UNB      0.006000
      7 C7          6.3950    1.3240   -1.9650 ca        1 UNB     -0.045000
      8 C8          6.0560   -0.8140   -3.1490 ca        1 UNB     -0.107000
      9 C9          5.1180   -2.6980   -1.9720 ca        1 UNB     -0.096000
     10 N10         3.0400   -0.4740    1.5140 nh        1 UNB     -0.761500
     11 O11         4.8670    0.6430    2.8300 o         1 UNB     -0.651800
     12 O12         5.1030   -1.6350    2.1440 o         1 UNB     -0.651800
     13 C13         6.2960    2.0840   -0.8240 ca        1 UNB     -0.169000
     14 C14         5.6430   -2.1220   -3.1530 ca        1 UNB     -0.133000
     15 C15         2.0760    0.5370    1.4020 ca        1 UNB      0.147600
     16 C16         0.9250    0.3470    0.5800 ca        1 UNB      0.106100
     17 C17         2.1870    1.7550    2.1000 ca        1 UNB     -0.147000
     18 C18        -0.0580    1.3450    0.4520 ca        1 UNB     -0.128300
     19 O19         0.8580   -0.8410   -0.1160 oh        1 UNB     -0.525100
     20 C20         1.2140    2.7380    1.9630 ca        1 UNB     -0.130000
     21 C21         0.0950    2.5550    1.1480 ca        1 UNB     -0.064300
     22 C22        -1.2170    1.1150   -0.4540 c3        1 UNB     -0.110100
     23 C23        -0.8970    3.6500    1.0300 c3        1 UNB     -0.051800
     24 C24        -2.2610    0.2100    0.1890 c         1 UNB      0.659100
     25 N25        -3.3050    0.7950    0.8710 n         1 UNB     -0.547900
     26 O26        -2.1450   -1.0340    0.1160 o         1 UNB     -0.635100
     27 C27        -4.3900    0.0260    1.4220 c3        1 UNB      0.128300
     28 C28        -5.5880   -0.0960    0.5230 ca        1 UNB     -0.114300
     29 C29        -5.5080   -0.8750   -0.6360 ca        1 UNB     -0.124500
     30 C30        -6.7860    0.5470    0.8440 ca        1 UNB     -0.124500
     31 C31        -6.6170   -1.0120   -1.4690 ca        1 UNB     -0.102000
     32 C32        -7.9010    0.4080    0.0180 ca        1 UNB     -0.102000
     33 C33        -7.8170   -0.3730   -1.1380 ca        1 UNB     -0.135900
     34 C34        -9.0080   -0.5210   -2.0340 ce        1 UNB      0.649800
     35 N35       -10.2010   -0.8650   -1.3600 nh        1 UNB     -0.957800
     36 N36        -8.8640   -0.2640   -3.2990 n2        1 UNB     -0.825100
     37 H4          4.6250   -2.4380    0.0950 ha        1 UNB      0.153000
     38 H6          5.6670    2.1580    1.2480 ha        1 UNB      0.162000
     39 H7          6.8180    1.7470   -2.8900 ha        1 UNB      0.137000
     40 H8          6.4750   -0.3510   -4.0560 ha        1 UNB      0.134000
     41 H9          4.8030   -3.7530   -1.9860 ha        1 UNB      0.139000
     42 H10         2.6770   -1.3650    1.2390 hn        1 UNB      0.467800
     43 H13         6.6420    3.1280   -0.8070 ha        1 UNB      0.143000
     44 H14         5.7170   -2.7350   -4.0630 ha        1 UNB      0.137000
     45 H17         3.0450    1.9400    2.7710 ha        1 UNB      0.174000
     46 H19        -0.0740   -1.1200   -0.1630 ho        1 UNB      0.454000
     47 H20         1.3330    3.6820    2.5190 ha        1 UNB      0.138000
     48 H221       -1.6700    2.0910   -0.7710 hc        1 UNB      0.079700
     49 H222       -0.8650    0.5950   -1.3890 hc        1 UNB      0.079700
     50 H231       -0.9300    4.0370   -0.0200 hc        1 UNB      0.043700
     51 H232       -1.9190    3.2920    1.3080 hc        1 UNB      0.043700
     52 H233       -0.6360    4.5030    1.7040 hc        1 UNB      0.043700
     53 H25        -3.4500    1.7720    0.7720 hn        1 UNB      0.311500
     54 H271       -4.0080   -1.0130    1.6540 h1        1 UNB      0.072700
     55 H272       -4.6950    0.5160    2.3920 h1        1 UNB      0.072700
     56 H29        -4.5590   -1.3810   -0.8840 ha        1 UNB      0.144000
     57 H30        -6.8550    1.1650    1.7520 ha        1 UNB      0.144000
     58 H31        -6.5450   -1.6120   -2.3890 ha        1 UNB      0.148000
     59 H32        -8.8380    0.9260    0.2720 ha        1 UNB      0.148000
     60 H351      -10.9210   -1.2760   -1.9070 hn        1 UNB      0.398800
     61 H352      -10.0800   -1.2810   -0.4660 hn        1 UNB      0.398800
     62 H36        -9.6750   -0.3710   -3.8710 hn        1 UNB      0.383400
@<TRIPOS>BOND
     1    1    2 ar  
     2    1    3 ar  
     3    1    4 ar  
     4    2    5 1   
     5    2    6 ar  
     6    3    7 ar  
     7    3    8 ar  
     8    4    9 ar  
     9    4   37 1   
    10    5   10 1   
    11    5   11 2   
    12    5   12 2   
    13    6   13 ar  
    14    6   38 1   
    15    7   13 ar  
    16    7   39 1   
    17    8   14 ar  
    18    8   40 1   
    19    9   14 ar  
    20    9   41 1   
    21   10   15 1   
    22   10   42 1   
    23   13   43 1   
    24   14   44 1   
    25   15   16 ar  
    26   15   17 ar  
    27   16   18 ar  
    28   16   19 1   
    29   17   20 ar  
    30   17   45 1   
    31   18   21 ar  
    32   18   22 1   
    33   19   46 1   
    34   20   21 ar  
    35   20   47 1   
    36   21   23 1   
    37   22   24 1   
    38   22   48 1   
    39   22   49 1   
    40   23   50 1   
    41   23   51 1   
    42   23   52 1   
    43   24   25 1   
    44   24   26 2   
    45   25   27 1   
    46   25   53 1   
    47   27   28 1   
    48   27   54 1   
    49   27   55 1   
    50   28   29 ar  
    51   28   30 ar  
    52   29   31 ar  
    53   29   56 1   
    54   30   32 ar  
    55   30   57 1   
    56   31   33 ar  
    57   31   58 1   
    58   32   33 ar  
    59   32   59 1   
    60   33   34 1   
    61   34   35 1   
    62   34   36 2   
    63   35   60 1   
    64   35   61 1   
    65   36   62 1   
@<TRIPOS>SUBSTRUCTURE
     1 UNB         1 TEMP              0 ****  ****    0 ROOT
