@<TRIPOS>MOLECULE
UNB
   64    67     1     0     0
SMALL
bcc


@<TRIPOS>ATOM
      1 C1          1.6350   -0.5990   -2.2120 ca        1 UNB      0.068000
      2 C2          2.6620   -1.5380   -1.8760 ca        1 UNB     -0.447500
      3 C3          1.7880    0.7650   -1.8380 ca        1 UNB     -0.073000
      4 C4          0.4540   -0.9770   -2.9080 ca        1 UNB     -0.195000
      5 S5          2.5610   -3.1370   -2.2440 sy        1 UNB      1.535200
      6 C6          3.7910   -1.0760   -1.2050 ca        1 UNB      0.031000
      7 C7          2.9600    1.1810   -1.1600 ca        1 UNB      0.007000
      8 C8          0.7610    1.7020   -2.1500 ca        1 UNB     -0.085000
      9 C9         -0.5210   -0.0520   -3.1980 ca        1 UNB     -0.056000
     10 N10         1.4350   -3.6860   -1.1820 nh        1 UNB     -0.772500
     11 O11         3.8060   -3.8180   -1.9960 o         1 UNB     -0.703800
     12 O12         2.1250   -3.4220   -3.5530 o         1 UNB     -0.703800
     13 C13         3.9500    0.2710   -0.8530 ca        1 UNB     -0.180000
     14 C14        -0.3720    1.3010   -2.8120 ca        1 UNB     -0.125000
     15 C15         1.5710   -4.9330   -0.5570 ca        1 UNB      0.096600
     16 C16         1.9620   -6.0700   -1.3050 ca        1 UNB      0.063100
     17 C17         1.3830   -5.1030    0.8330 ca        1 UNB     -0.087000
     18 C18         2.4410   -7.2310   -0.6640 ca        1 UNB     -0.157300
     19 O19         2.0470   -6.0580   -2.6870 oh        1 UNB     -0.569100
     20 C20         1.6980   -6.3100    1.4420 ca        1 UNB     -0.118000
     21 C21         2.2750   -7.3670    0.7200 ca        1 UNB     -0.017300
     22 C22         3.1190   -8.2580   -1.4950 c3        1 UNB     -0.085100
     23 C23         2.6860   -8.5990    1.4330 c3        1 UNB     -0.075800
     24 C24         4.5340   -7.8710   -1.8630 c         1 UNB      0.554100
     25 N25         4.7600   -6.4310   -2.2530 n4        1 UNB     -0.669800
     26 O26         5.5040   -8.6140   -1.8990 o         1 UNB     -0.446100
     27 C27         6.1570   -6.0670   -2.6210 c3        1 UNB      0.158100
     28 C28         6.4980   -6.3700   -4.0480 ca        1 UNB     -0.106300
     29 C29         6.1560   -5.4610   -5.0550 ca        1 UNB     -0.088500
     30 C30         7.2070   -7.5350   -4.3660 ca        1 UNB     -0.088500
     31 C31         6.5300   -5.7070   -6.3760 ca        1 UNB     -0.092000
     32 C32         7.5870   -7.7840   -5.6840 ca        1 UNB     -0.092000
     33 C33         7.2490   -6.8670   -6.6870 ca        1 UNB     -0.230900
     34 C34         7.5990   -7.1470   -8.0990 ce        1 UNB      0.576800
     35 N35         9.0790   -7.0300   -8.3540 n4        1 UNB     -0.821600
     36 N36         6.8740   -7.4570   -9.1010 n2        1 UNB     -0.686100
     37 H4          0.3280   -2.0160   -3.2550 ha        1 UNB      0.146000
     38 H6          4.5940   -1.7900   -0.9400 ha        1 UNB      0.149000
     39 H7          3.0670    2.2440   -0.8790 ha        1 UNB      0.161000
     40 H8          0.8980    2.7530   -1.8490 ha        1 UNB      0.155000
     41 H9         -1.4300   -0.3560   -3.7430 ha        1 UNB      0.155000
     42 H10         0.6910   -3.1230   -0.8340 hn        1 UNB      0.476800
     43 H13         4.8640    0.5910   -0.3270 ha        1 UNB      0.161000
     44 H14        -1.1700    2.0210   -3.0540 ha        1 UNB      0.162000
     45 H17         0.9930   -4.2690    1.4420 ha        1 UNB      0.166000
     46 H19         1.2890   -5.5660   -3.0520 ho        1 UNB      0.477000
     47 H20         1.5190   -6.4300    2.5240 ha        1 UNB      0.170000
     48 H221        3.1750   -9.2500   -0.9630 hc        1 UNB      0.128200
     49 H222        2.5530   -8.4110   -2.4610 hc        1 UNB      0.128200
     50 H231        2.0770   -9.4710    1.0830 hc        1 UNB      0.066367
     51 H232        3.7670   -8.8240    1.2520 hc        1 UNB      0.066367
     52 H233        2.5350   -8.4960    2.5380 hc        1 UNB      0.066367
     53 H25         4.4590   -5.8190   -1.4680 hn        1 UNB      0.494300
     54 H271        6.2530   -4.9520   -2.4380 hx        1 UNB      0.125700
     55 H272        6.8590   -6.6140   -1.9260 hx        1 UNB      0.125700
     56 H29         5.5930   -4.5430   -4.8100 ha        1 UNB      0.179500
     57 H30         7.4590   -8.2640   -3.5740 ha        1 UNB      0.179500
     58 H31         6.2520   -4.9870   -7.1640 ha        1 UNB      0.162500
     59 H32         8.1300   -8.7120   -5.9250 ha        1 UNB      0.162500
     60 H351        9.5720   -7.6270   -7.6810 hn        1 UNB      0.476133
     61 H352        9.3280   -7.3150   -9.3120 hn        1 UNB      0.476133
     62 H36         5.8850   -7.5520   -8.9830 hn        1 UNB      0.496400
     63 H252        4.1250   -6.1960   -3.0360 hn        1 UNB      0.494300
     64 H353        9.3590   -6.0530   -8.2100 hn        1 UNB      0.476133
@<TRIPOS>BOND
     1    1    2 ar  
     2    1    3 ar  
     3    1    4 ar  
     4    2    5 1   
     5    2    6 ar  
     6    3    7 ar  
     7    3    8 ar  
     8    4    9 ar  
     9    4   37 1   
    10    5   10 1   
    11    5   11 2   
    12    5   12 2   
    13    6   13 ar  
    14    6   38 1   
    15    7   13 ar  
    16    7   39 1   
    17    8   14 ar  
    18    8   40 1   
    19    9   14 ar  
    20    9   41 1   
    21   10   15 1   
    22   10   42 1   
    23   13   43 1   
    24   14   44 1   
    25   15   16 ar  
    26   15   17 ar  
    27   16   18 ar  
    28   16   19 1   
    29   17   20 ar  
    30   17   45 1   
    31   18   21 ar  
    32   18   22 1   
    33   19   46 1   
    34   20   21 ar  
    35   20   47 1   
    36   21   23 1   
    37   22   24 1   
    38   22   48 1   
    39   22   49 1   
    40   23   50 1   
    41   23   51 1   
    42   23   52 1   
    43   24   25 1   
    44   24   26 2   
    45   25   27 1   
    46   25   53 1   
    47   25   63 1   
    48   27   28 1   
    49   27   54 1   
    50   27   55 1   
    51   28   29 ar  
    52   28   30 ar  
    53   29   31 ar  
    54   29   56 1   
    55   30   32 ar  
    56   30   57 1   
    57   31   33 ar  
    58   31   58 1   
    59   32   33 ar  
    60   32   59 1   
    61   33   34 1   
    62   34   35 1   
    63   34   36 2   
    64   35   60 1   
    65   35   61 1   
    66   35   64 1   
    67   36   62 1   
@<TRIPOS>SUBSTRUCTURE
     1 UNB         1 TEMP              0 ****  ****    0 ROOT
