@<TRIPOS>MOLECULE
UNC
   16    16     1     0     0
SMALL
bcc


@<TRIPOS>ATOM
      1 OD2         2.5030   -1.6720    0.0200 o         1 UNC     -0.213000
      2 N4          2.1240   -0.5310    0.0100 no        1 UNC      0.314100
      3 OD1         2.9020    0.3900    0.0060 o         1 UNC     -0.213000
      4 C4          0.6620   -0.2530    0.0030 cc        1 UNC     -0.182500
      5 N3         -0.1890   -1.3760    0.0090 n         1 UNC     -0.453100
      6 C2         -1.5740   -1.2550    0.0030 c         1 UNC      0.815500
      7 O2         -2.3110   -2.2620    0.0080 o         1 UNC     -0.622500
      8 C5          0.1410    1.0420   -0.0080 cd        1 UNC      0.158800
      9 N5          0.8490    2.1970   -0.0140 nh        1 UNC     -0.824600
     10 C6         -1.3700    1.1950   -0.0140 c         1 UNC      0.697700
     11 O6         -1.9150    2.3120   -0.0240 o         1 UNC     -0.597500
     12 N1         -2.1330    0.0420   -0.0080 n         1 UNC     -0.569500
     13 HN3         0.2050   -2.2950    0.0170 hn        1 UNC      0.380500
     14 HN51        1.8430    2.2010   -0.0110 hn        1 UNC      0.471300
     15 HN52        0.3520    3.0590   -0.0210 hn        1 UNC      0.471300
     16 HN1        -3.1300    0.1090   -0.0120 hn        1 UNC      0.367500
@<TRIPOS>BOND
     1    1    2 1   
     2    2    3 1   
     3    2    4 1   
     4    4    5 1   
     5    4    8 2   
     6    5    6 1   
     7    5   13 1   
     8    6    7 2   
     9    6   12 1   
    10    8    9 1   
    11    8   10 1   
    12    9   14 1   
    13    9   15 1   
    14   10   11 2   
    15   10   12 1   
    16   12   16 1   
@<TRIPOS>SUBSTRUCTURE
     1 UNC         1 TEMP              0 ****  ****    0 ROOT
