@<TRIPOS>MOLECULE
UNC
   16    16     1     0     0
SMALL
bcc


@<TRIPOS>ATOM
      1 OD2        -0.0930   -0.0600   -0.0940 o         1 UNC     -0.213000
      2 N4          1.1030   -0.1120    0.0070 no        1 UNC      0.314100
      3 OD1         1.6400   -0.2130    1.0800 o         1 UNC     -0.213000
      4 C4          1.9380   -0.0500   -1.2240 cc        1 UNC     -0.182500
      5 N3          1.2440    0.0690   -2.4460 n         1 UNC     -0.453100
      6 C2          1.9040    0.1370   -3.6680 c         1 UNC      0.815500
      7 O2          1.2720    0.2420   -4.7390 o         1 UNC     -0.622500
      8 C5          3.3320   -0.1040   -1.1940 cd        1 UNC      0.158800
      9 N5          4.1120   -0.2160   -0.0910 nh        1 UNC     -0.824600
     10 C6          4.0710   -0.0310   -2.5190 c         1 UNC      0.697700
     11 O6          5.3120   -0.0720   -2.5800 o         1 UNC     -0.597500
     12 N1          3.3150    0.0850   -3.6710 n         1 UNC     -0.569500
     13 HN3         0.2450    0.1060   -2.4450 hn        1 UNC      0.380500
     14 HN51        3.7210   -0.2710    0.8220 hn        1 UNC      0.471300
     15 HN52        5.0990   -0.2440   -0.2080 hn        1 UNC      0.471300
     16 HN1         3.7720    0.1350   -4.5590 hn        1 UNC      0.367500
@<TRIPOS>BOND
     1    1    2 1   
     2    2    3 1   
     3    2    4 1   
     4    4    5 1   
     5    4    8 2   
     6    5    6 1   
     7    5   13 1   
     8    6    7 2   
     9    6   12 1   
    10    8    9 1   
    11    8   10 1   
    12    9   14 1   
    13    9   15 1   
    14   10   11 2   
    15   10   12 1   
    16   12   16 1   
@<TRIPOS>SUBSTRUCTURE
     1 UNC         1 TEMP              0 ****  ****    0 ROOT
