@<TRIPOS>MOLECULE
UNC
   16    16     1     0     0
SMALL
bcc


@<TRIPOS>ATOM
      1 OD2        -0.0980   -0.0520   -0.1020 o         1 UNC     -0.213000
      2 N4          1.0980   -0.1090    0.0020 no        1 UNC      0.314100
      3 OD1         1.6320   -0.2160    1.0770 o         1 UNC     -0.213000
      4 C4          1.9360   -0.0470   -1.2260 cc        1 UNC     -0.182500
      5 N3          1.2470    0.0820   -2.4490 ns        1 UNC     -0.453100
      6 C2          1.9110    0.1480   -3.6690 c         1 UNC      0.815500
      7 O2          1.2820    0.2600   -4.7420 o         1 UNC     -0.622500
      8 C5          3.3300   -0.1100   -1.1920 cd        1 UNC      0.158800
      9 N5          4.1060   -0.2310   -0.0880 nv        1 UNC     -0.824600
     10 C6          4.0730   -0.0360   -2.5150 c         1 UNC      0.697700
     11 O6          5.3140   -0.0850   -2.5730 o         1 UNC     -0.597500
     12 N1          3.3210    0.0870   -3.6690 ns        1 UNC     -0.569500
     13 HN3         0.2480    0.1230   -2.4510 hn        1 UNC      0.380500
     14 HN51        3.7130   -0.2860    0.8240 hn        1 UNC      0.471300
     15 HN52        5.0930   -0.2650   -0.2020 hn        1 UNC      0.471300
     16 HN1         3.7810    0.1380   -4.5550 hn        1 UNC      0.367500
@<TRIPOS>BOND
     1    1    2 1   
     2    2    3 1   
     3    2    4 1   
     4    4    5 1   
     5    4    8 2   
     6    5    6 1   
     7    5   13 1   
     8    6    7 2   
     9    6   12 1   
    10    8    9 1   
    11    8   10 1   
    12    9   14 1   
    13    9   15 1   
    14   10   11 2   
    15   10   12 1   
    16   12   16 1   
@<TRIPOS>SUBSTRUCTURE
     1 UNC         1 TEMP              0 ****  ****    0 ROOT
