@<TRIPOS>MOLECULE
UND
   35    34     1     0     0
SMALL
bcc


@<TRIPOS>ATOM
      1 C1         -5.2590    0.0040   -3.2600 c3        1 UND     -0.092100
      2 C2         -3.7460    0.0040   -3.2600 c3        1 UND     -0.080400
      3 C3         -3.2420    0.0040   -1.8340 c3        1 UND     -0.079400
      4 C4         -1.7290    0.0010   -1.8340 c3        1 UND     -0.079400
      5 C5         -1.2250    0.0050   -0.4080 c3        1 UND     -0.079400
      6 C6          0.2880   -0.0040   -0.4080 c3        1 UND     -0.079400
      7 C7          0.7920    0.0050    1.0190 c3        1 UND     -0.079400
      8 C8          2.3050   -0.0110    1.0190 c3        1 UND     -0.079400
      9 C9          2.8100    0.0050    2.4450 c3        1 UND     -0.079400
     10 C10         4.3220   -0.0160    2.4450 c3        1 UND     -0.080400
     11 C11         4.8270    0.0020    3.8710 c3        1 UND     -0.092100
     12 H11        -5.5840    0.8000   -2.7990 hc        1 UND      0.032700
     13 H12        -5.5840    0.0050   -4.1810 hc        1 UND      0.032700
     14 H13        -5.5840   -0.7940   -2.8010 hc        1 UND      0.032700
     15 H21        -3.4210    0.8010   -3.7200 hc        1 UND      0.038700
     16 H22        -3.4210   -0.7930   -3.7200 hc        1 UND      0.038700
     17 H31        -3.5660    0.8020   -1.3740 hc        1 UND      0.039700
     18 H32        -3.5690   -0.7920   -1.3730 hc        1 UND      0.039700
     19 H41        -1.4050   -0.7980   -2.2910 hc        1 UND      0.039700
     20 H42        -1.4020    0.7960   -2.2970 hc        1 UND      0.039700
     21 H51        -1.5450    0.8060    0.0490 hc        1 UND      0.039700
     22 H52        -1.5550   -0.7880    0.0570 hc        1 UND      0.039700
     23 H61         0.6090   -0.8070   -0.8610 hc        1 UND      0.039700
     24 H62         0.6180    0.7870   -0.8740 hc        1 UND      0.039700
     25 H71         0.4760    0.8100    1.4710 hc        1 UND      0.039700
     26 H72         0.4580   -0.7830    1.4870 hc        1 UND      0.039700
     27 H81         2.6220   -0.8190    0.5710 hc        1 UND      0.039700
     28 H82         2.6390    0.7750    0.5470 hc        1 UND      0.039700
     29 H91         2.4730   -0.7810    2.9180 hc        1 UND      0.039700
     30 H92         2.4950    0.8130    2.8930 hc        1 UND      0.039700
     31 H101        4.6590    0.7680    1.9710 hc        1 UND      0.038700
     32 H102        4.6370   -0.8260    1.9990 hc        1 UND      0.038700
     33 H111        5.8030   -0.0120    3.8720 hc        1 UND      0.032700
     34 H112        4.4900   -0.7810    4.3460 hc        1 UND      0.032700
     35 H113        4.5130    0.8120    4.3170 hc        1 UND      0.032700
@<TRIPOS>BOND
     1    1    2 1   
     2    1   12 1   
     3    1   13 1   
     4    1   14 1   
     5    2    3 1   
     6    2   15 1   
     7    2   16 1   
     8    3    4 1   
     9    3   17 1   
    10    3   18 1   
    11    4    5 1   
    12    4   19 1   
    13    4   20 1   
    14    5    6 1   
    15    5   21 1   
    16    5   22 1   
    17    6    7 1   
    18    6   23 1   
    19    6   24 1   
    20    7    8 1   
    21    7   25 1   
    22    7   26 1   
    23    8    9 1   
    24    8   27 1   
    25    8   28 1   
    26    9   10 1   
    27    9   29 1   
    28    9   30 1   
    29   10   11 1   
    30   10   31 1   
    31   10   32 1   
    32   11   33 1   
    33   11   34 1   
    34   11   35 1   
@<TRIPOS>SUBSTRUCTURE
     1 UND         1 TEMP              0 ****  ****    0 ROOT
