@<TRIPOS>MOLECULE
UND
   35    34     1     0     0
SMALL
bcc


@<TRIPOS>ATOM
      1 C1         -0.3780   -0.0000    6.2470 c3        1 UND     -0.092100
      2 C2          0.4680   -0.0000    4.9990 c3        1 UND     -0.080400
      3 C3         -0.3860   -0.0000    3.7490 c3        1 UND     -0.079400
      4 C4          0.4680    0.0000    2.4990 c3        1 UND     -0.079400
      5 C5         -0.3860    0.0000    1.2500 c3        1 UND     -0.079400
      6 C6          0.4680    0.0000   -0.0000 c3        1 UND     -0.078400
      7 C7         -0.3860    0.0000   -1.2500 c3        1 UND     -0.079400
      8 C8          0.4680    0.0000   -2.4990 c3        1 UND     -0.079400
      9 C9         -0.3860    0.0000   -3.7490 c3        1 UND     -0.079400
     10 C10         0.4680   -0.0000   -4.9990 c3        1 UND     -0.080400
     11 C11        -0.3770   -0.0000   -6.2470 c3        1 UND     -0.092100
     12 H11        -1.0310   -0.9050    6.2800 hc        1 UND      0.032700
     13 H12         0.2710   -0.0000    7.1560 hc        1 UND      0.032700
     14 H13        -1.0310    0.9050    6.2800 hc        1 UND      0.032700
     15 H21         1.1350    0.9020    4.9960 hc        1 UND      0.038700
     16 H22         1.1350   -0.9020    4.9960 hc        1 UND      0.038700
     17 H31        -1.0520   -0.9020    3.7500 hc        1 UND      0.039700
     18 H32        -1.0520    0.9020    3.7500 hc        1 UND      0.039700
     19 H41         1.1350    0.9030    2.4990 hc        1 UND      0.039700
     20 H42         1.1350   -0.9030    2.4990 hc        1 UND      0.039700
     21 H51        -1.0530   -0.9030    1.2500 hc        1 UND      0.039700
     22 H52        -1.0530    0.9030    1.2500 hc        1 UND      0.039700
     23 H61         1.1340    0.9030   -0.0000 hc        1 UND      0.039700
     24 H62         1.1340   -0.9030   -0.0000 hc        1 UND      0.039700
     25 H71        -1.0530   -0.9030   -1.2500 hc        1 UND      0.039700
     26 H72        -1.0530    0.9030   -1.2500 hc        1 UND      0.039700
     27 H81         1.1350    0.9030   -2.4990 hc        1 UND      0.039700
     28 H82         1.1350   -0.9030   -2.4990 hc        1 UND      0.039700
     29 H91        -1.0520   -0.9020   -3.7500 hc        1 UND      0.039700
     30 H92        -1.0520    0.9020   -3.7500 hc        1 UND      0.039700
     31 H101        1.1350    0.9020   -4.9960 hc        1 UND      0.038700
     32 H102        1.1350   -0.9020   -4.9960 hc        1 UND      0.038700
     33 H111        0.2710    0.0000   -7.1560 hc        1 UND      0.032700
     34 H112       -1.0310   -0.9050   -6.2800 hc        1 UND      0.032700
     35 H113       -1.0310    0.9050   -6.2800 hc        1 UND      0.032700
@<TRIPOS>BOND
     1    1    2 1   
     2    1   12 1   
     3    1   13 1   
     4    1   14 1   
     5    2    3 1   
     6    2   15 1   
     7    2   16 1   
     8    3    4 1   
     9    3   17 1   
    10    3   18 1   
    11    4    5 1   
    12    4   19 1   
    13    4   20 1   
    14    5    6 1   
    15    5   21 1   
    16    5   22 1   
    17    6    7 1   
    18    6   23 1   
    19    6   24 1   
    20    7    8 1   
    21    7   25 1   
    22    7   26 1   
    23    8    9 1   
    24    8   27 1   
    25    8   28 1   
    26    9   10 1   
    27    9   29 1   
    28    9   30 1   
    29   10   11 1   
    30   10   31 1   
    31   10   32 1   
    32   11   33 1   
    33   11   34 1   
    34   11   35 1   
@<TRIPOS>SUBSTRUCTURE
     1 UND         1 TEMP              0 ****  ****    0 ROOT
