@<TRIPOS>MOLECULE
UNE
   21    22     1     0     0
SMALL
bcc


@<TRIPOS>ATOM
      1 O01        -2.2830    0.7720   -0.0000 os        1 UNE     -0.144200
      2 C02        -2.8790   -0.5000   -0.0000 cc        1 UNE      0.033900
      3 C03        -1.9190   -1.4990   -0.0000 cd        1 UNE     -0.235200
      4 C04        -0.6300   -0.8510   -0.0000 ca        1 UNE     -0.065800
      5 C05        -0.9110    0.5540   -0.0000 ca        1 UNE      0.023100
      6 C06         0.1150    1.5070   -0.0000 ca        1 UNE      0.136100
      7 C07         1.4350    1.0480   -0.0000 ca        1 UNE     -0.206000
      8 C08         1.7050   -0.3320   -0.0000 ca        1 UNE     -0.012900
      9 C09         0.6960   -1.2880   -0.0000 ca        1 UNE     -0.105000
     10 BR10        3.5050   -0.8860   -0.0000 br        1 UNE     -0.143100
     11 O11        -0.2630    2.8360   -0.0000 os        1 UNE     -0.301900
     12 C12         0.7980    3.7810    0.0000 c3        1 UNE      0.114700
     13 C13        -4.4030   -0.5710   -0.0000 c         1 UNE      0.934800
     14 O14        -4.8830   -1.7350    0.0000 o         1 UNE     -0.791300
     15 O15        -5.0510    0.5020   -0.0000 o         1 UNE     -0.791300
     16 H03        -2.1090   -2.5670   -0.0000 ha        1 UNE      0.169000
     17 H07         2.2670    1.7640   -0.0000 ha        1 UNE      0.135000
     18 H09         0.9190   -2.3640   -0.0000 ha        1 UNE      0.141000
     19 H12         1.4270    3.6720    0.9170 h1        1 UNE      0.036033
     20 H12A        1.4280    3.6730   -0.9160 h1        1 UNE      0.036033
     21 H12B        0.2690    4.7670    0.0010 h1        1 UNE      0.036033
@<TRIPOS>BOND
     1    1    2 1   
     2    1    5 1   
     3    2    3 2   
     4    2   13 1   
     5    3    4 1   
     6    3   16 1   
     7    4    5 ar  
     8    4    9 ar  
     9    5    6 ar  
    10    6    7 ar  
    11    6   11 1   
    12    7    8 ar  
    13    7   17 1   
    14    8    9 ar  
    15    8   10 1   
    16    9   18 1   
    17   11   12 1   
    18   12   19 1   
    19   12   20 1   
    20   12   21 1   
    21   13   14 1   
    22   13   15 1   
@<TRIPOS>SUBSTRUCTURE
     1 UNE         1 TEMP              0 ****  ****    0 ROOT
