@<TRIPOS>MOLECULE
UNE
   21    17     1     0     0
SMALL
bcc


@<TRIPOS>ATOM
      1 O01         0.6350    0.0260   -1.5110 os        1 UNE     -0.087000
      2 C02         1.9960   -0.0250   -1.4670 c1        1 UNE      0.010000
      3 C03         2.3880   -0.0610   -0.1240 c1        1 UNE     -0.244000
      4 C04         1.2410   -0.0320    0.6570 c1        1 UNE     -0.044000
      5 C05         0.1540    0.0220   -0.1870 c1        1 UNE     -0.063000
      6 C06        -1.1330    0.1120    0.3380 c1        1 UNE      0.094000
      7 C07        -1.3180    0.1460    1.7150 c2        1 UNE     -0.163000
      8 C08        -0.2060    0.0910    2.5750 c1        1 UNE     -0.152000
      9 C09         1.0550    0.0030    2.0540 c2        1 UNE     -0.114000
     10 BR10       -0.5060    0.1760    4.5210 br        1 UNE     -0.000000
     11 O11        -1.9650    0.5760   -0.7160 o         1 UNE     -0.223000
     12 C12        -3.2700   -0.0520   -0.7680 c3        1 UNE     -0.076000
     13 C13         2.6480   -0.1610   -2.8340 c1        1 UNE      0.385000
     14 O14         2.9650    0.9510   -3.5460 o         1 UNE     -0.527500
     15 O15         3.0280   -1.2950   -3.2380 o         1 UNE     -0.527500
     16 H03         3.2900   -0.1010    0.1970 DU        1 UNE      0.168000
     17 H07        -2.1570    0.2050    2.0610 ha        1 UNE      0.147000
     18 H09         1.8430   -0.0010    2.6600 ha        1 UNE      0.141000
     19 H12        -3.8530    0.3820   -0.1540 h1        1 UNE      0.092333
     20 H12A       -3.1940   -0.9910   -0.5320 h1        1 UNE      0.092333
     21 H12B       -3.6410    0.0280   -1.6990 h1        1 UNE      0.092333
@<TRIPOS>BOND
     1    1    2 1   
     2    1    5 1   
     3    2    3 1   
     4    3    4 1   
     5    4    9 1   
     6    5    6 1   
     7    6    7 1   
     8    7    8 1   
     9    7   17 1   
    10    8    9 1   
    11    9   18 1   
    12   11   12 1   
    13   12   19 1   
    14   12   20 1   
    15   12   21 1   
    16   13   14 1   
    17   13   15 1   
@<TRIPOS>SUBSTRUCTURE
     1 UNE         1 TEMP              0 ****  ****    0 ROOT
