@<TRIPOS>MOLECULE
UNF
   38    38     1     0     0
SMALL
bcc


@<TRIPOS>ATOM
      1 C1          0.9640    1.3050   -0.6070 c3        1 UNF      0.107000
      2 C2          2.2390    1.2850   -0.5960 c3        1 UNF      0.001000
      3 C3          2.9220    1.2660    0.8940 c3        1 UNF      0.057000
      4 C4          2.3730    2.3300    1.7670 c2        1 UNF     -0.382000
      5 C5          0.7170    2.7480    1.4650 c1        1 UNF      0.063000
      6 C6          0.0250    3.7980    2.3330 c1        1 UNF      0.381000
      7 O1          0.4870    0.0680   -0.0210 os        1 UNF     -0.264000
      8 O2          2.7060    0.0370   -1.3490 oh        1 UNF     -0.346000
      9 O3          4.3620    1.3280    0.8220 oh        1 UNF     -0.336000
     10 O5          0.2940    2.5350    0.1930 os        1 UNF     -0.220000
     11 O6         -0.0910    5.0000    1.9130 o         1 UNF     -0.554000
     12 C1'        -2.5610   -2.4890   -1.1740 c3        1 UNF      0.140000
     13 C2'        -2.9150   -1.1170   -0.7050 c3        1 UNF     -0.059000
     14 C3'        -1.8180   -0.4480   -0.0180 c3        1 UNF      0.061000
     15 C4'        -0.5440   -0.4580   -0.8140 c3        1 UNF     -0.009000
     16 C5'        -0.1340   -1.8860   -1.2880 c3        1 UNF     -0.076000
     17 C6'         0.3910   -2.7140   -0.1490 c2        1 UNF      0.320000
     18 O1'        -2.4090   -3.3090   -0.0660 oh        1 UNF     -0.400000
     19 O2'        -3.3030   -0.3100   -1.8660 oh        1 UNF     -0.332000
     20 O3'        -1.5800   -1.1300    1.2740 oh        1 UNF     -0.336000
     21 O5'        -1.2940   -2.5240   -1.9770 os        1 UNF     -0.289000
     22 O6'         0.5180   -3.9580   -0.2860 o         1 UNF     -0.570500
     23 OAC         0.5920   -2.1780    0.9830 o         1 UNF     -0.570500
     24 OAN        -0.4480    3.4720    3.4740 o         1 UNF     -0.554000
     25 H1          0.6700    1.3420   -1.5210 h2        1 UNF      0.108000
     26 H2          2.5540    2.0530   -1.0610 h1        1 UNF      0.098000
     27 H3          2.7960    0.3890    1.3110 h1        1 UNF      0.128000
     28 HA          3.3290    0.2660   -1.9490 ho        1 UNF      0.260000
     29 H41C        2.7650    2.4850    2.6590 ha        1 UNF      0.136000
     30 HB          4.7100    1.0680    1.6000 ho        1 UNF      0.183000
     31 H4'        -0.6590    0.1180   -1.6040 h1        1 UNF      0.099000
     32 H1'        -3.3040   -2.8390   -1.7320 h2        1 UNF      0.101000
     33 H2'        -3.6920   -1.1800   -0.0830 h1        1 UNF      0.127000
     34 HC         -2.9990   -3.9360   -0.0880 ho        1 UNF      0.261000
     35 H3'        -2.0700    0.4640    0.1540 h1        1 UNF      0.122000
     36 HD         -4.1560   -0.2660   -1.9110 ho        1 UNF      0.191000
     37 HE         -2.0830   -0.7590    1.9020 ho        1 UNF      0.244000
     38 H5'         0.6480   -1.8590   -1.8790 h1        1 UNF      0.108000
@<TRIPOS>BOND
     1    1    2 1   
     2    1    7 1   
     3    1   10 1   
     4    1   25 1   
     5    2    3 1   
     6    2    8 1   
     7    2   26 1   
     8    3    4 1   
     9    3    9 1   
    10    3   27 1   
    11    4    5 1   
    12    4   29 1   
    13    5   10 1   
    14    6   11 1   
    15    6   24 1   
    16    7   15 1   
    17    8   28 1   
    18    9   30 1   
    19   12   13 1   
    20   12   18 1   
    21   12   21 1   
    22   12   32 1   
    23   13   14 1   
    24   13   19 1   
    25   13   33 1   
    26   14   15 1   
    27   14   20 1   
    28   14   35 1   
    29   15   16 1   
    30   15   31 1   
    31   16   17 1   
    32   16   21 1   
    33   16   38 1   
    34   17   22 1   
    35   17   23 1   
    36   18   34 1   
    37   19   36 1   
    38   20   37 1   
@<TRIPOS>SUBSTRUCTURE
     1 UNF         1 TEMP              0 ****  ****    0 ROOT
