@<TRIPOS>MOLECULE
UNF
   38    39     1     0     0
SMALL
bcc


@<TRIPOS>ATOM
      1 C1         -0.8310    0.4950    0.1300 c3        1 UNF      0.278900
      2 C2         -1.2340    1.2990    1.3780 c3        1 UNF      0.093100
      3 C3         -2.7620    1.5210    1.3570 c3        1 UNF      0.173300
      4 C4         -3.4680    0.2980    0.8960 c2        1 UNF     -0.403200
      5 C5         -2.8440   -0.7600    0.3390 ce        1 UNF      0.090900
      6 C6         -3.5500   -2.0870    0.0150 c         1 UNF      0.931800
      7 O1          0.5080    0.0810    0.2890 os        1 UNF     -0.404600
      8 O2         -0.8600    0.6550    2.5820 oh        1 UNF     -0.602800
      9 O3         -3.0870    2.6730    0.5910 oh        1 UNF     -0.619800
     10 O5         -1.5000   -0.7780    0.0520 os        1 UNF     -0.363900
     11 O6         -3.4700   -3.0010    0.8770 o         1 UNF     -0.815800
     12 C1'         3.8240   -0.0790    0.2230 c3        1 UNF      0.306900
     13 C2'         2.9320   -1.3190    0.4640 c3        1 UNF      0.061100
     14 C3'         1.9420   -1.5240   -0.6940 c3        1 UNF      0.147100
     15 C4'         1.2040   -0.1890   -0.9350 c3        1 UNF      0.100100
     16 C5'         2.2380    0.8970   -1.2440 c3        1 UNF      0.008100
     17 C6'         1.6430    2.2790   -1.6480 c         1 UNF      0.937600
     18 O1'         4.4600    0.2980    1.4250 oh        1 UNF     -0.638800
     19 O2'         3.7650   -2.4670    0.5470 oh        1 UNF     -0.597800
     20 O3'         1.0510   -2.5810   -0.4190 oh        1 UNF     -0.600800
     21 O5'         3.1110    1.0870   -0.1320 os        1 UNF     -0.403600
     22 O6'         0.4060    2.3210   -1.8980 o         1 UNF     -0.827300
     23 OAC         2.4390    3.2430   -1.7840 o         1 UNF     -0.827300
     24 OAN        -4.1990   -2.1520   -1.0610 o         1 UNF     -0.815800
     25 H1         -1.0040    1.0830   -0.8160 h2        1 UNF      0.125700
     26 H2         -0.6850    2.2790    1.3810 h1        1 UNF      0.099700
     27 H3         -3.0960    1.7920    2.4000 h1        1 UNF      0.059700
     28 HA         -1.1030   -0.2760    2.4810 ho        1 UNF      0.414000
     29 H41C       -4.5510    0.2700    1.0590 ha        1 UNF      0.134000
     30 HB         -2.8600    2.4740   -0.3270 ho        1 UNF      0.410000
     31 H4'         0.4860   -0.2830   -1.7920 h1        1 UNF      0.093700
     32 H1'         4.6370   -0.3120   -0.5190 h2        1 UNF      0.048700
     33 H2'         2.3560   -1.1900    1.4210 h1        1 UNF      0.066700
     34 HC          3.8970    0.9570    1.8560 ho        1 UNF      0.430000
     35 H3'         2.4970   -1.8390   -1.6200 h1        1 UNF      0.062700
     36 HD          4.3670   -2.2960    1.2820 ho        1 UNF      0.390000
     37 HE          0.3080   -2.2180    0.0910 ho        1 UNF      0.439000
     38 H5'         2.8500    0.5410   -2.1240 h1        1 UNF      0.020700
@<TRIPOS>BOND
     1    1    2 1   
     2    1    7 1   
     3    1   10 1   
     4    1   25 1   
     5    2    3 1   
     6    2    8 1   
     7    2   26 1   
     8    3    4 1   
     9    3    9 1   
    10    3   27 1   
    11    4    5 2   
    12    4   29 1   
    13    5    6 1   
    14    5   10 1   
    15    6   11 1   
    16    6   24 1   
    17    7   15 1   
    18    8   28 1   
    19    9   30 1   
    20   12   13 1   
    21   12   18 1   
    22   12   21 1   
    23   12   32 1   
    24   13   14 1   
    25   13   19 1   
    26   13   33 1   
    27   14   15 1   
    28   14   20 1   
    29   14   35 1   
    30   15   16 1   
    31   15   31 1   
    32   16   17 1   
    33   16   21 1   
    34   16   38 1   
    35   17   22 1   
    36   17   23 1   
    37   18   34 1   
    38   19   36 1   
    39   20   37 1   
@<TRIPOS>SUBSTRUCTURE
     1 UNF         1 TEMP              0 ****  ****    0 ROOT
