@<TRIPOS>MOLECULE
UNG
   38    39     1     0     0
SMALL
bcc


@<TRIPOS>ATOM
      1 C1         -0.1860    0.0090    0.1530 c3        1 UNG      0.296900
      2 C2          1.3120    0.3480    0.0680 c3        1 UNG      0.100100
      3 C3          2.0930   -0.0450    1.3370 c3        1 UNG      0.205300
      4 C4          1.4330   -1.1170    2.1190 c2        1 UNG     -0.397200
      5 C5          0.2410   -1.6610    1.8100 ce        1 UNG      0.102900
      6 C6         -0.3820   -2.8330    2.5860 c         1 UNG      0.928800
      7 O1         -0.6380   -0.2300   -1.1680 os        1 UNG     -0.423600
      8 O2          1.9640   -0.2900   -1.0200 oh        1 UNG     -0.612800
      9 O3          2.3340    1.1180    2.1260 oh        1 UNG     -0.625800
     10 O5         -0.5490   -1.2280    0.7770 os        1 UNG     -0.357900
     11 O6         -0.9130   -2.5630    3.6970 o         1 UNG     -0.818300
     12 C1'        -1.8870   -0.1010   -4.2970 c3        1 UNG      0.330900
     13 C2'        -1.8890   -1.3610   -3.4180 c3        1 UNG      0.097100
     14 C3'        -2.6390   -1.0980   -2.1010 c3        1 UNG      0.100100
     15 C4'        -1.9990    0.1280   -1.4190 c3        1 UNG      0.118100
     16 C5'        -2.1010    1.3140   -2.3840 c3        1 UNG     -0.003900
     17 C6'        -1.5580    2.6640   -1.8260 c         1 UNG      0.938600
     18 O1'        -3.1930    0.1940   -4.7540 oh        1 UNG     -0.643800
     19 O2'        -2.4540   -2.4340   -4.1530 oh        1 UNG     -0.610800
     20 O3'        -2.6230   -2.2600   -1.3020 oh        1 UNG     -0.623800
     21 O5'        -1.4270    1.0460   -3.6160 os        1 UNG     -0.409600
     22 O6'        -1.6920    3.6800   -2.5570 o         1 UNG     -0.829800
     23 OAC        -1.0960    2.6690   -0.6530 o         1 UNG     -0.829800
     24 OAN        -0.2870   -3.9840    2.0870 o         1 UNG     -0.818300
     25 H1         -0.7450    0.8480    0.6590 h2        1 UNG      0.106700
     26 H2          1.3700    1.4680   -0.0830 h1        1 UNG      0.075700
     27 H3          3.1290   -0.3710    1.0260 h1        1 UNG      0.069700
     28 HA          1.4040   -0.1600   -1.7960 ho        1 UNG      0.421000
     29 H4C1        1.9930   -1.4890    2.9850 ha        1 UNG      0.133000
     30 HB          1.4920    1.3630    2.5260 ho        1 UNG      0.400000
     31 H4'        -2.5340    0.3730   -0.4640 h1        1 UNG      0.081700
     32 H1'        -1.1920   -0.2270   -5.1750 h2        1 UNG      0.052700
     33 H2'        -0.8160   -1.6150   -3.1800 h1        1 UNG      0.066700
     34 HC         -3.2280    1.1490   -4.9000 ho        1 UNG      0.415000
     35 H3'        -3.7240   -0.8970   -2.3180 h1        1 UNG      0.071700
     36 HD         -2.7920   -3.0570   -3.4940 ho        1 UNG      0.414000
     37 HE         -1.8130   -2.2450   -0.7640 ho        1 UNG      0.453000
     38 H5'        -3.1970    1.4660   -2.6040 h1        1 UNG      0.025700
@<TRIPOS>BOND
     1    1    2 1   
     2    1    7 1   
     3    1   10 1   
     4    1   25 1   
     5    2    3 1   
     6    2    8 1   
     7    2   26 1   
     8    3    4 1   
     9    3    9 1   
    10    3   27 1   
    11    4    5 2   
    12    4   29 1   
    13    5    6 1   
    14    5   10 1   
    15    6   11 1   
    16    6   24 1   
    17    7   15 1   
    18    8   28 1   
    19    9   30 1   
    20   12   13 1   
    21   12   18 1   
    22   12   21 1   
    23   12   32 1   
    24   13   14 1   
    25   13   19 1   
    26   13   33 1   
    27   14   15 1   
    28   14   20 1   
    29   14   35 1   
    30   15   16 1   
    31   15   31 1   
    32   16   17 1   
    33   16   21 1   
    34   16   38 1   
    35   17   22 1   
    36   17   23 1   
    37   18   34 1   
    38   19   36 1   
    39   20   37 1   
@<TRIPOS>SUBSTRUCTURE
     1 UNG         1 TEMP              0 ****  ****    0 ROOT
