@<TRIPOS>MOLECULE
UNG
   38    39     1     0     0
SMALL
bcc


@<TRIPOS>ATOM
      1 C1          2.4520   -3.0630   -0.8820 c3        1 UNG      0.279900
      2 C2          3.9020   -3.0200   -0.3730 c3        1 UNG      0.094100
      3 C3          4.0800   -4.1050    0.7130 c3        1 UNG      0.173300
      4 C4          3.3700   -5.3530    0.3340 c2        1 UNG     -0.402200
      5 C5          2.4950   -5.4350   -0.6880 ce        1 UNG      0.090900
      6 C6          1.8850   -6.7590   -1.1800 c         1 UNG      0.930800
      7 O1          2.3650   -2.2520   -2.0330 os        1 UNG     -0.402600
      8 O2          4.8480   -3.2170   -1.4060 oh        1 UNG     -0.601800
      9 O3          3.6880   -3.6050    1.9840 oh        1 UNG     -0.619800
     10 O5          2.0970   -4.3480   -1.4290 os        1 UNG     -0.365900
     11 O6          0.8920   -7.2090   -0.5510 o         1 UNG     -0.816300
     12 C1'         1.9750    0.2940   -4.0760 c3        1 UNG      0.302900
     13 C2'         1.9500   -1.1590   -4.5900 c3        1 UNG      0.097100
     14 C3'         0.8850   -1.9980   -3.8610 c3        1 UNG      0.112100
     15 C4'         1.0440   -1.7910   -2.3400 c3        1 UNG      0.107100
     16 C5'         0.8710   -0.3000   -2.0500 c3        1 UNG     -0.004900
     17 C6'         0.8310    0.1060   -0.5460 c         1 UNG      0.940600
     18 O1'         0.8680    0.9910   -4.6300 oh        1 UNG     -0.676800
     19 O2'         1.7620   -1.1580   -5.9920 oh        1 UNG     -0.598800
     20 O3'         0.9740   -3.3550   -4.2320 oh        1 UNG     -0.605800
     21 O5'         1.9000    0.4630   -2.6840 os        1 UNG     -0.395600
     22 O6'         0.6680    1.3280   -0.2900 o         1 UNG     -0.829300
     23 OAC         0.8750   -0.8150    0.3130 o         1 UNG     -0.829300
     24 OAN         2.4550   -7.3250   -2.1490 o         1 UNG     -0.816300
     25 H1          1.7200   -2.7680   -0.0780 h2        1 UNG      0.125700
     26 H2          4.1200   -1.9980    0.0410 h1        1 UNG      0.098700
     27 H3          5.1840   -4.3070    0.8350 h1        1 UNG      0.059700
     28 HA          4.5190   -3.9530   -1.9420 ho        1 UNG      0.414000
     29 H4C1        3.6150   -6.2480    0.9180 ha        1 UNG      0.134000
     30 HB          2.7340   -3.4580    1.9460 ho        1 UNG      0.410000
     31 H4'         0.2740   -2.3810   -1.7760 h1        1 UNG      0.089700
     32 H1'         2.9290    0.8060   -4.3880 h2        1 UNG      0.056700
     33 H2'         2.9620   -1.6250   -4.4280 h1        1 UNG      0.100700
     34 HC          0.5840    1.6430   -3.9760 ho        1 UNG      0.426000
     35 H3'        -0.1410   -1.6690   -4.1860 h1        1 UNG      0.056700
     36 HD          0.8810   -0.7980   -6.1520 ho        1 UNG      0.400000
     37 HE          1.6070   -3.7840   -3.6330 ho        1 UNG      0.441000
     38 H5'        -0.1230    0.0090   -2.4890 h1        1 UNG      0.020700
@<TRIPOS>BOND
     1    1    2 1   
     2    1    7 1   
     3    1   10 1   
     4    1   25 1   
     5    2    3 1   
     6    2    8 1   
     7    2   26 1   
     8    3    4 1   
     9    3    9 1   
    10    3   27 1   
    11    4    5 2   
    12    4   29 1   
    13    5    6 1   
    14    5   10 1   
    15    6   11 1   
    16    6   24 1   
    17    7   15 1   
    18    8   28 1   
    19    9   30 1   
    20   12   13 1   
    21   12   18 1   
    22   12   21 1   
    23   12   32 1   
    24   13   14 1   
    25   13   19 1   
    26   13   33 1   
    27   14   15 1   
    28   14   20 1   
    29   14   35 1   
    30   15   16 1   
    31   15   31 1   
    32   16   17 1   
    33   16   21 1   
    34   16   38 1   
    35   17   22 1   
    36   17   23 1   
    37   18   34 1   
    38   19   36 1   
    39   20   37 1   
@<TRIPOS>SUBSTRUCTURE
     1 UNG         1 TEMP              0 ****  ****    0 ROOT
