@<TRIPOS>MOLECULE
UNG
   38    38     1     0     0
SMALL
bcc


@<TRIPOS>ATOM
      1 C1          1.1360   -0.2870    0.8060 c3        1 UNG      0.100000
      2 C2          2.4000   -0.2870    0.8060 c3        1 UNG      0.011000
      3 C3          3.1010   -0.2870    2.2990 c3        1 UNG      0.075000
      4 C4          2.5420   -1.3480    3.1690 c2        1 UNG     -0.381000
      5 C5          0.8920   -1.7300    2.8810 c1        1 UNG      0.060000
      6 C6         -0.1020   -1.7290    4.0350 c1        1 UNG      0.381000
      7 O1          0.6700   -0.3370   -0.6100 os        1 UNG     -0.268000
      8 O2          2.8730   -1.5220    0.0620 oh        1 UNG     -0.344000
      9 O3          3.0260    1.0040    2.9210 oh        1 UNG     -0.338000
     10 O5          0.4570   -1.5010    1.6020 os        1 UNG     -0.226000
     11 O6         -0.6830   -2.7990    4.3670 o         1 UNG     -0.555000
     12 C1'        -2.6850    1.3310   -2.4350 c3        1 UNG      0.112000
     13 C2'        -2.8550    0.0950   -1.6250 c3        1 UNG     -0.059000
     14 C3'        -1.5850   -0.5720   -1.3240 c3        1 UNG      0.028000
     15 C4'        -0.5740    0.3550   -0.7270 c3        1 UNG     -0.018000
     16 C5'        -0.3540    1.6360   -1.5720 c3        1 UNG     -0.071000
     17 C6'         0.4210    1.3410   -2.8160 c2        1 UNG      0.329000
     18 O1'        -3.9170    1.9820   -2.5250 oh        1 UNG     -0.332000
     19 O2'        -3.5120    0.4480   -0.3600 oh        1 UNG     -0.343000
     20 O3'        -1.0410   -1.1260   -2.5620 oh        1 UNG     -0.342000
     21 O5'        -1.6840    2.2730   -1.8560 os        1 UNG     -0.314000
     22 O6'         0.4360    2.1770   -3.7630 o         1 UNG     -0.573500
     23 OAC         1.1120    0.2920   -2.8920 o         1 UNG     -0.573500
     24 OAN        -0.3050   -0.6730    4.6910 o         1 UNG     -0.555000
     25 H1          0.8290    0.5500    1.2030 h2        1 UNG      0.141000
     26 H2          2.7070    0.5030    0.3220 h1        1 UNG      0.075000
     27 H3          4.0680   -0.3940    2.2160 h1        1 UNG      0.126000
     28 HA          3.6680   -1.3640   -0.2990 ho        1 UNG      0.252000
     29 H4C1        2.9380   -1.5210    4.0440 ha        1 UNG      0.134000
     30 HB          3.8080    1.2000    3.2910 ho        1 UNG      0.183000
     31 H4'        -0.8740    0.6150    0.1640 h1        1 UNG      0.099000
     32 H1'        -2.3960    1.0800   -3.3330 h2        1 UNG      0.180000
     33 H2'        -3.4270   -0.5260   -2.1140 h1        1 UNG      0.118000
     34 HC         -4.0630    2.2210   -3.3670 ho        1 UNG      0.200000
     35 H3'        -1.7520   -1.3020   -0.6980 h1        1 UNG      0.117000
     36 HD         -4.1980   -0.0970   -0.2210 ho        1 UNG      0.210000
     37 HE         -1.3210   -1.9630   -2.6590 ho        1 UNG      0.250000
     38 H5'         0.2420    2.2640   -1.1220 h1        1 UNG      0.113000
@<TRIPOS>BOND
     1    1    2 1   
     2    1    7 1   
     3    1   10 1   
     4    1   25 1   
     5    2    3 1   
     6    2    8 1   
     7    2   26 1   
     8    3    4 1   
     9    3    9 1   
    10    3   27 1   
    11    4    5 1   
    12    4   29 1   
    13    5   10 1   
    14    6   11 1   
    15    6   24 1   
    16    7   15 1   
    17    8   28 1   
    18    9   30 1   
    19   12   13 1   
    20   12   18 1   
    21   12   21 1   
    22   12   32 1   
    23   13   14 1   
    24   13   19 1   
    25   13   33 1   
    26   14   15 1   
    27   14   20 1   
    28   14   35 1   
    29   15   16 1   
    30   15   31 1   
    31   16   17 1   
    32   16   21 1   
    33   16   38 1   
    34   17   22 1   
    35   17   23 1   
    36   18   34 1   
    37   19   36 1   
    38   20   37 1   
@<TRIPOS>SUBSTRUCTURE
     1 UNG         1 TEMP              0 ****  ****    0 ROOT
