@<TRIPOS>MOLECULE
UNI
   65    68     1     0     0
SMALL
bcc


@<TRIPOS>ATOM
      1 CA          0.0990   -0.5500    0.5520 cc        1 UNI     -0.313400
      2 CA2         0.6040    0.6970    1.0980 c         1 UNI      0.730800
      3 OA2         0.4140    1.8490    0.7040 o         1 UNI     -0.588500
      4 OA3         1.4120    0.6810    2.2330 os        1 UNI     -0.308200
      5 CA4         1.6740   -0.5040    2.8670 cc        1 UNI      0.199900
      6 CA5         1.1390   -1.6970    2.4510 cd        1 UNI     -0.263200
      7 CA6         0.3400   -1.7110    1.2480 cd        1 UNI      0.260100
      8 OA6        -0.2220   -2.8730    0.7920 oh        1 UNI     -0.513100
      9 CB1        -2.1070   -0.3630   -0.5270 ca        1 UNI     -0.148300
     10 CB2        -2.8350   -1.5440   -0.2750 ca        1 UNI      0.154000
     11 CB3        -4.2320   -1.5090   -0.0720 ca        1 UNI     -0.214000
     12 CB4        -4.9130   -0.3240   -0.1010 ca        1 UNI      0.021000
     13 CB5        -4.2080    0.9450   -0.3400 ca        1 UNI      0.002600
     14 CB6        -2.7530    0.8540   -0.5460 ca        1 UNI      0.086000
     15 CG1        -0.6170   -0.4190   -0.7540 c3        1 UNI      0.082800
     16 CG2        -0.2490   -1.4840   -1.7510 cx        1 UNI     -0.157700
     17 CG3        -0.4180   -1.2070   -3.2240 cx        1 UNI     -0.116400
     18 CG4         0.9560   -1.2710   -2.6330 cx        1 UNI     -0.116400
     19 CD1         2.5660   -0.2860    4.0440 c3        1 UNI     -0.053200
     20 CD2         4.0050   -0.6910    3.7800 c3        1 UNI     -0.075400
     21 CD3         4.2620   -2.1830    3.8150 c3        1 UNI     -0.083400
     22 CD4         3.8410   -2.9070    2.5510 c3        1 UNI     -0.080400
     23 CD5         2.5830   -3.7360    2.7060 c3        1 UNI     -0.078400
     24 CD6         1.3870   -2.9500    3.2120 c3        1 UNI     -0.031200
     25 N          -4.7680    2.1150   -0.3860 n2        1 UNI     -0.293400
     26 S          -8.9480    0.8460    0.2080 sy        1 UNI      1.408300
     27 O1         -9.1200   -0.5240    0.4310 o         1 UNI     -0.688300
     28 O2         -7.5930    1.2310    0.0280 o         1 UNI     -0.688300
     29 CZ1        -9.7100    1.7830    1.3310 ca        1 UNI     -0.412500
     30 CZ2        -9.4150    3.1480    1.4630 ca        1 UNI     -0.014000
     31 CZ3       -10.0540    3.9340    2.4140 ca        1 UNI     -0.115000
     32 CZ4       -11.0150    3.3550    3.2590 ca        1 UNI      0.086000
     33 CZ5       -11.3230    1.9920    3.1410 ca        1 UNI     -0.115000
     34 CZ6       -10.6720    1.2200    2.1830 ca        1 UNI     -0.014000
     35 CZ7       -11.6740    4.1530    4.2340 cg        1 UNI      0.196800
     36 NZ7       -12.2130    4.8050    5.0330 n1        1 UNI     -0.290800
     37 HO6         0.2350   -3.6290    1.1980 ho        1 UNI      0.454000
     38 HB2        -2.2930   -2.5120   -0.2240 ha        1 UNI      0.197000
     39 HB3        -4.7690   -2.4580    0.1130 ha        1 UNI      0.187000
     40 HB4        -6.0120   -0.2830    0.0560 ha        1 UNI      0.206000
     41 HB6        -2.1830    1.7940   -0.7070 ha        1 UNI      0.208000
     42 HG1        -0.3070    0.5790   -1.2020 hc        1 UNI      0.096700
     43 HG2        -0.4400   -2.5140   -1.3900 hc        1 UNI      0.091700
     44 HG31       -0.7620   -2.0270   -3.8810 hc        1 UNI      0.081700
     45 HG32       -0.8130   -0.2280   -3.5480 hc        1 UNI      0.081700
     46 HG41        1.5410   -0.3390   -2.5300 hc        1 UNI      0.081700
     47 HG42        1.6020   -2.1380   -2.8590 hc        1 UNI      0.081700
     48 HD11        2.1560   -0.8510    4.9230 hc        1 UNI      0.082200
     49 HD12        2.5460    0.8100    4.3060 hc        1 UNI      0.082200
     50 HD21        4.3380   -0.2670    2.7960 hc        1 UNI      0.061200
     51 HD22        4.6350   -0.2080    4.5770 hc        1 UNI      0.061200
     52 HD31        3.7570   -2.6350    4.7090 hc        1 UNI      0.051200
     53 HD32        5.3670   -2.3330    3.9590 hc        1 UNI      0.051200
     54 HD41        3.6970   -2.1690    1.7180 hc        1 UNI      0.049200
     55 HD42        4.6680   -3.5980    2.2320 hc        1 UNI      0.049200
     56 HD51        2.7760   -4.5790    3.4210 hc        1 UNI      0.045200
     57 HD52        2.3350   -4.1940    1.7110 hc        1 UNI      0.045200
     58 HD61        0.4720   -3.6030    3.1840 hc        1 UNI      0.055200
     59 HD62        1.5510   -2.7020    4.2970 hc        1 UNI      0.055200
     60 HN         -9.5710    1.2010   -0.7810 hs        1 UNI     -0.009200
     61 HZ2        -8.6550    3.6050    0.8040 ha        1 UNI      0.161500
     62 HZ3        -9.8110    5.0050    2.5050 ha        1 UNI      0.169500
     63 HZ5       -12.0770    1.5340    3.8030 ha        1 UNI      0.169500
     64 HZ6       -10.9120    0.1430    2.0960 ha        1 UNI      0.161500
     65 HN3        -5.7640    2.1610   -0.2450 hn        1 UNI      0.436800
@<TRIPOS>BOND
     1    1    2 1   
     2    1    7 2   
     3    1   15 1   
     4    2    3 2   
     5    2    4 1   
     6    4    5 1   
     7    5    6 2   
     8    5   19 1   
     9    6    7 1   
    10    6   24 1   
    11    7    8 1   
    12    8   37 1   
    13    9   10 ar  
    14    9   14 ar  
    15    9   15 1   
    16   10   11 ar  
    17   10   38 1   
    18   11   12 ar  
    19   11   39 1   
    20   12   13 ar  
    21   12   40 1   
    22   13   14 ar  
    23   13   25 1   
    24   14   41 1   
    25   15   16 1   
    26   15   42 1   
    27   16   17 1   
    28   16   18 1   
    29   16   43 1   
    30   17   18 1   
    31   17   44 1   
    32   17   45 1   
    33   18   46 1   
    34   18   47 1   
    35   19   20 1   
    36   19   48 1   
    37   19   49 1   
    38   20   21 1   
    39   20   50 1   
    40   20   51 1   
    41   21   22 1   
    42   21   52 1   
    43   21   53 1   
    44   22   23 1   
    45   22   54 1   
    46   22   55 1   
    47   23   24 1   
    48   23   56 1   
    49   23   57 1   
    50   24   58 1   
    51   24   59 1   
    52   25   65 1   
    53   26   27 2   
    54   26   28 2   
    55   26   29 1   
    56   26   60 1   
    57   29   30 ar  
    58   29   34 ar  
    59   30   31 ar  
    60   30   61 1   
    61   31   32 ar  
    62   31   62 1   
    63   32   33 ar  
    64   32   35 1   
    65   33   34 ar  
    66   33   63 1   
    67   34   64 1   
    68   35   36 3   
@<TRIPOS>SUBSTRUCTURE
     1 UNI         1 TEMP              0 ****  ****    0 ROOT
