@<TRIPOS>MOLECULE
UNI
   64    67     1     0     0
SMALL
bcc


@<TRIPOS>ATOM
      1 CA         -0.3020   -0.4770   -0.0360 cc        1 UNI     -0.256400
      2 CA2         0.2500   -1.8140   -0.0950 c         1 UNI      0.742800
      3 OA2         0.2870   -2.6460   -1.0030 o         1 UNI     -0.583500
      4 OA3         0.8800   -2.3450    1.0420 os        1 UNI     -0.331200
      5 CA4         0.9640   -1.6110    2.1920 cc        1 UNI      0.172900
      6 CA5         0.4560   -0.3460    2.3010 cd        1 UNI     -0.251200
      7 CA6        -0.1970    0.2250    1.1420 cd        1 UNI      0.223100
      8 OA6        -0.7290    1.4870    1.1710 oh        1 UNI     -0.487100
      9 CB1        -2.3520   -0.4520   -1.4230 ca        1 UNI     -0.049300
     10 CB2        -2.5590   -1.7420   -1.9220 ca        1 UNI     -0.131000
     11 CB3        -3.8560   -2.2210   -2.0910 ca        1 UNI     -0.107000
     12 CB4        -4.9590   -1.4380   -1.7700 ca        1 UNI     -0.176000
     13 CB5        -4.7670   -0.1400   -1.2490 ca        1 UNI      0.144600
     14 CB6        -3.4500    0.3430   -1.0840 ca        1 UNI     -0.155000
     15 CG1        -0.9680    0.1100   -1.2440 c3        1 UNI      0.080800
     16 CG2        -0.1350   -0.0690   -2.4860 cx        1 UNI     -0.127700
     17 CG3        -0.3000    0.8990   -3.6290 cx        1 UNI     -0.128400
     18 CG4         0.9480    0.9320   -2.7990 cx        1 UNI     -0.128400
     19 CD1         1.7000   -2.3760    3.2460 c3        1 UNI     -0.020000
     20 CD2         0.8200   -2.7760    4.3730 c2        1 UNI     -0.170200
     21 CD3         1.2110   -2.7650    5.6450 c2        1 UNI     -0.210000
     22 CD4        -0.6470    1.4160    5.5100 c3        1 UNI     -0.096100
     23 CD5        -0.7460    0.4990    4.3180 c3        1 UNI     -0.085400
     24 CD6         0.5690    0.4360    3.5610 c3        1 UNI     -0.031200
     25 N          -5.8590    0.6800   -0.9050 nu        1 UNI     -0.780500
     26 S          -7.2890    0.2250   -0.2860 sy        1 UNI      1.513200
     27 O1         -8.0970    1.3810   -0.2120 o         1 UNI     -0.646800
     28 O2         -7.8220   -0.8890   -0.9580 o         1 UNI     -0.646800
     29 CZ1        -6.8930   -0.2520    1.2940 ca        1 UNI     -0.355500
     30 CZ2        -7.0020    0.6530    2.3560 ca        1 UNI     -0.020000
     31 CZ3        -6.6950    0.2700    3.6580 ca        1 UNI     -0.121000
     32 CZ4        -6.2720   -1.0430    3.9120 ca        1 UNI      0.044000
     33 CZ5        -6.1710   -1.9640    2.8600 ca        1 UNI     -0.121000
     34 CZ6        -6.4830   -1.5620    1.5630 ca        1 UNI     -0.020000
     35 CZ7        -5.9440   -1.4400    5.2380 cg        1 UNI      0.222800
     36 NZ7        -5.6710   -1.7630    6.3220 n1        1 UNI     -0.344800
     37 HO6        -0.5780    1.8780    2.0460 ho        1 UNI      0.437000
     38 HB2        -1.6950   -2.3790   -2.1730 ha        1 UNI      0.163000
     39 HB3        -4.0140   -3.2340   -2.4930 ha        1 UNI      0.139000
     40 HB4        -5.9750   -1.8370   -1.9320 ha        1 UNI      0.165000
     41 HB6        -3.2790    1.3560   -0.6870 ha        1 UNI      0.135000
     42 HG1        -1.0690    1.2250   -1.0610 hc        1 UNI      0.072700
     43 HG2         0.0560   -1.1350   -2.7280 hc        1 UNI      0.106700
     44 HG31       -1.0280    1.7240   -3.5340 hc        1 UNI      0.070200
     45 HG32       -0.2530    0.5100   -4.6610 hc        1 UNI      0.070200
     46 HG41        1.1110    1.7810   -2.1120 hc        1 UNI      0.070200
     47 HG42        1.8950    0.5660   -3.2330 hc        1 UNI      0.070200
     48 HD11        2.5630   -1.7500    3.6030 hc        1 UNI      0.082700
     49 HD12        2.1320   -3.3100    2.7800 hc        1 UNI      0.082700
     50 HD21       -0.1870   -3.1210    4.0830 ha        1 UNI      0.134000
     51 HD22        2.2070   -2.4280    5.9610 ha        1 UNI      0.117500
     52 HD31       -0.4070    2.4590    5.1890 hc        1 UNI      0.037367
     53 HD32        0.5550   -3.1000    6.4590 ha        1 UNI      0.117500
     54 HD41        0.1540    1.0710    6.2070 hc        1 UNI      0.037367
     55 HD42       -1.6150    1.4310    6.0660 hc        1 UNI      0.037367
     56 HD51       -1.0210   -0.5360    4.6570 hc        1 UNI      0.046700
     57 HD52       -1.5660    0.8490    3.6360 hc        1 UNI      0.046700
     58 HD61        0.9310    1.4750    3.3310 hc        1 UNI      0.053200
     59 HD62        1.3450   -0.0280    4.2300 hc        1 UNI      0.053200
     60 HN         -5.6600    1.6510   -1.0130 hn        1 UNI      0.457800
     61 HZ2        -7.3520    1.6820    2.1560 ha        1 UNI      0.162500
     62 HZ3        -6.7880    0.9910    4.4850 ha        1 UNI      0.154000
     63 HZ5        -5.8490   -2.9980    3.0570 ha        1 UNI      0.154000
     64 HZ6        -6.4150   -2.2890    0.7340 ha        1 UNI      0.162500
@<TRIPOS>BOND
     1    1    2 1   
     2    1    7 2   
     3    1   15 1   
     4    2    3 2   
     5    2    4 1   
     6    4    5 1   
     7    5    6 2   
     8    5   19 1   
     9    6    7 1   
    10    6   24 1   
    11    7    8 1   
    12    8   37 1   
    13    9   10 ar  
    14    9   14 ar  
    15    9   15 1   
    16   10   11 ar  
    17   10   38 1   
    18   11   12 ar  
    19   11   39 1   
    20   12   13 ar  
    21   12   40 1   
    22   13   14 ar  
    23   13   25 1   
    24   14   41 1   
    25   15   16 1   
    26   15   42 1   
    27   16   17 1   
    28   16   18 1   
    29   16   43 1   
    30   17   18 1   
    31   17   44 1   
    32   17   45 1   
    33   18   46 1   
    34   18   47 1   
    35   19   20 1   
    36   19   48 1   
    37   19   49 1   
    38   20   21 2   
    39   20   50 1   
    40   21   51 1   
    41   21   53 1   
    42   22   23 1   
    43   22   52 1   
    44   22   54 1   
    45   22   55 1   
    46   23   24 1   
    47   23   56 1   
    48   23   57 1   
    49   24   58 1   
    50   24   59 1   
    51   25   26 1   
    52   25   60 1   
    53   26   27 2   
    54   26   28 2   
    55   26   29 1   
    56   29   30 ar  
    57   29   34 ar  
    58   30   31 ar  
    59   30   61 1   
    60   31   32 ar  
    61   31   62 1   
    62   32   33 ar  
    63   32   35 1   
    64   33   34 ar  
    65   33   63 1   
    66   34   64 1   
    67   35   36 3   
@<TRIPOS>SUBSTRUCTURE
     1 UNI         1 TEMP              0 ****  ****    0 ROOT
