@<TRIPOS>MOLECULE
UNI
   64    68     1     0     0
SMALL
bcc


@<TRIPOS>ATOM
      1 CA         -1.0890   -0.1700    2.5510 cc        1 UNI     -0.257400
      2 CA2        -0.9530    1.0320    3.3460 c         1 UNI      0.742800
      3 OA2        -1.7230    1.9730    3.5470 o         1 UNI     -0.585500
      4 OA3         0.2440    1.2610    4.0430 os        1 UNI     -0.330200
      5 CA4         1.2520    0.3390    4.0040 cc        1 UNI      0.176900
      6 CA5         1.1570   -0.8300    3.3000 cd        1 UNI     -0.254200
      7 CA6        -0.0440   -1.0650    2.5310 cd        1 UNI      0.224100
      8 OA6        -0.1890   -2.1890    1.7600 oh        1 UNI     -0.487100
      9 CB1        -2.3930    0.4230    0.5290 ca        1 UNI     -0.048300
     10 CB2        -2.6670    1.7940    0.5780 ca        1 UNI     -0.132000
     11 CB3        -2.7200    2.5340   -0.6000 ca        1 UNI     -0.106000
     12 CB4        -2.5020    1.9330   -1.8370 ca        1 UNI     -0.178000
     13 CB5        -2.2070    0.5540   -1.9010 ca        1 UNI      0.146600
     14 CB6        -2.1590   -0.1920   -0.7040 ca        1 UNI     -0.157000
     15 CG1        -2.3490   -0.4160    1.7770 c3        1 UNI      0.080800
     16 CG2        -3.5770   -0.2050    2.6250 cx        1 UNI     -0.127700
     17 CG3        -4.8500   -0.9280    2.2700 cx        1 UNI     -0.128400
     18 CG4        -4.0790   -1.3310    3.4900 cx        1 UNI     -0.128400
     19 CD1         2.4110    0.7870    4.8340 c3        1 UNI     -0.048200
     20 CD2         3.5530    1.3480    4.0070 c3        1 UNI     -0.073400
     21 CD3         4.4050    0.3050    3.3130 c3        1 UNI     -0.079400
     22 CD4         3.7780   -0.2560    2.0510 c3        1 UNI     -0.079400
     23 CD5         3.2520   -1.6680    2.2010 c3        1 UNI     -0.076400
     24 CD6         2.2530   -1.8340    3.3310 c3        1 UNI     -0.027200
     25 N          -1.9760   -0.0880   -3.1330 nh        1 UNI     -0.780500
     26 S          -1.2830    0.5270   -4.4660 sy        1 UNI      1.513200
     27 O1         -1.3810   -0.4550   -5.4760 o         1 UNI     -0.646800
     28 O2         -1.7700    1.8110   -4.7690 o         1 UNI     -0.646800
     29 CZ1         0.3480    0.6750   -4.0230 ca        1 UNI     -0.355500
     30 CZ2         1.2610   -0.3400   -4.3310 ca        1 UNI     -0.020000
     31 CZ3         2.6060   -0.2220   -3.9900 ca        1 UNI     -0.121000
     32 CZ4         3.0530    0.9300   -3.3280 ca        1 UNI      0.044000
     33 CZ5         2.1530    1.9600   -3.0230 ca        1 UNI     -0.121000
     34 CZ6         0.8110    1.8240   -3.3740 ca        1 UNI     -0.020000
     35 CZ7         4.4230    1.0530   -2.9640 cg        1 UNI      0.222800
     36 NZ7         5.5430    1.1520   -2.6640 n1        1 UNI     -0.343800
     37 HO6         0.6600   -2.6570    1.7230 ho        1 UNI      0.434000
     38 HB2        -2.8360    2.2860    1.5500 ha        1 UNI      0.163000
     39 HB3        -2.9460    3.6110   -0.5580 ha        1 UNI      0.139000
     40 HB4        -2.5710    2.5420   -2.7550 ha        1 UNI      0.165000
     41 HB6        -1.9390   -1.2710   -0.7330 ha        1 UNI      0.135000
     42 HG1        -2.3390   -1.5050    1.4610 hc        1 UNI      0.072700
     43 HG2        -3.6550    0.8300    3.0190 hc        1 UNI      0.106700
     44 HG31       -5.8100   -0.3950    2.3890 hc        1 UNI      0.070200
     45 HG32       -4.8600   -1.6020    1.3960 hc        1 UNI      0.070200
     46 HG41       -3.5380   -2.2940    3.4870 hc        1 UNI      0.070200
     47 HG42       -4.4830   -1.0900    4.4890 hc        1 UNI      0.070200
     48 HD11        2.0520    1.5900    5.5370 hc        1 UNI      0.074200
     49 HD12        2.7680   -0.0740    5.4600 hc        1 UNI      0.074200
     50 HD21        4.2130    1.9320    4.7050 hc        1 UNI      0.054200
     51 HD22        3.1460    2.0720    3.2530 hc        1 UNI      0.054200
     52 HD31        4.6480   -0.5240    4.0280 hc        1 UNI      0.044700
     53 HD32        5.3810    0.7920    3.0390 hc        1 UNI      0.044700
     54 HD41        4.5470   -0.2600    1.2320 hc        1 UNI      0.047700
     55 HD42        2.9430    0.4130    1.7110 hc        1 UNI      0.047700
     56 HD51        4.1090   -2.3700    2.3820 hc        1 UNI      0.040200
     57 HD52        2.7720   -1.9720    1.2320 hc        1 UNI      0.040200
     58 HD61        2.7990   -1.7600    4.3110 hc        1 UNI      0.051200
     59 HD62        1.8240   -2.8730    3.2990 hc        1 UNI      0.051200
     60 HN         -2.2310   -1.0520   -3.1170 hn        1 UNI      0.457800
     61 HZ2         0.9100   -1.2400   -4.8680 ha        1 UNI      0.162500
     62 HZ3         3.3140   -1.0270   -4.2410 ha        1 UNI      0.154000
     63 HZ5         2.5020    2.8700   -2.5130 ha        1 UNI      0.154000
     64 HZ6         0.1010    2.6400   -3.1450 ha        1 UNI      0.162500
@<TRIPOS>BOND
     1    1    2 1   
     2    1    7 2   
     3    1   15 1   
     4    2    3 2   
     5    2    4 1   
     6    4    5 1   
     7    5    6 2   
     8    5   19 1   
     9    6    7 1   
    10    6   24 1   
    11    7    8 1   
    12    8   37 1   
    13    9   10 ar  
    14    9   14 ar  
    15    9   15 1   
    16   10   11 ar  
    17   10   38 1   
    18   11   12 ar  
    19   11   39 1   
    20   12   13 ar  
    21   12   40 1   
    22   13   14 ar  
    23   13   25 1   
    24   14   41 1   
    25   15   16 1   
    26   15   42 1   
    27   16   17 1   
    28   16   18 1   
    29   16   43 1   
    30   17   18 1   
    31   17   44 1   
    32   17   45 1   
    33   18   46 1   
    34   18   47 1   
    35   19   20 1   
    36   19   48 1   
    37   19   49 1   
    38   20   21 1   
    39   20   50 1   
    40   20   51 1   
    41   21   22 1   
    42   21   52 1   
    43   21   53 1   
    44   22   23 1   
    45   22   54 1   
    46   22   55 1   
    47   23   24 1   
    48   23   56 1   
    49   23   57 1   
    50   24   58 1   
    51   24   59 1   
    52   25   26 1   
    53   25   60 1   
    54   26   27 2   
    55   26   28 2   
    56   26   29 1   
    57   29   30 ar  
    58   29   34 ar  
    59   30   31 ar  
    60   30   61 1   
    61   31   32 ar  
    62   31   62 1   
    63   32   33 ar  
    64   32   35 1   
    65   33   34 ar  
    66   33   63 1   
    67   34   64 1   
    68   35   36 3   
@<TRIPOS>SUBSTRUCTURE
     1 UNI         1 TEMP              0 ****  ****    0 ROOT
