@<TRIPOS>MOLECULE
UNJ
   17    18     1     0     0
SMALL
bcc


@<TRIPOS>ATOM
      1 C1         -2.8550   -0.1970   -0.0000 cc        1 UNJ      0.032900
      2 O2         -2.3120    1.1030    0.0010 os        1 UNJ     -0.169200
      3 C3         -1.8550   -1.1510   -0.0010 cd        1 UNJ     -0.231200
      4 C4         -0.5910   -0.4480   -0.0010 ca        1 UNJ     -0.088800
      5 C5         -4.3740   -0.3200   -0.0000 c         1 UNJ      0.934800
      6 C6         -0.9320    0.9480    0.0010 ca        1 UNJ      0.050100
      7 C7          0.7500   -0.8140   -0.0010 ca        1 UNJ     -0.079000
      8 O8         -5.0570    0.7330    0.0010 o         1 UNJ     -0.792800
      9 C9          0.0260    1.9540    0.0010 ca        1 UNJ     -0.125000
     10 C10         1.7130    0.1980   -0.0000 ca        1 UNJ     -0.047900
     11 O11        -4.8180   -1.4980   -0.0010 o         1 UNJ     -0.792800
     12 C12         1.3610    1.5570    0.0010 ca        1 UNJ     -0.123000
     13 BR13        3.5370   -0.2680   -0.0010 br        1 UNJ     -0.145100
     14 H3         -1.9970   -2.2270   -0.0020 ha        1 UNJ      0.168000
     15 H7          1.0350   -1.8750   -0.0020 ha        1 UNJ      0.139000
     16 H9         -0.2600    3.0130    0.0020 ha        1 UNJ      0.142000
     17 H12         2.1470    2.3270    0.0020 ha        1 UNJ      0.129000
@<TRIPOS>BOND
     1    1    2 1   
     2    1    3 2   
     3    1    5 1   
     4    2    6 1   
     5    3    4 1   
     6    3   14 1   
     7    4    6 ar  
     8    4    7 ar  
     9    5    8 1   
    10    5   11 1   
    11    6    9 ar  
    12    7   10 ar  
    13    7   15 1   
    14    9   12 ar  
    15    9   16 1   
    16   10   12 ar  
    17   10   13 1   
    18   12   17 1   
@<TRIPOS>SUBSTRUCTURE
     1 UNJ         1 TEMP              0 ****  ****    0 ROOT
