@<TRIPOS>MOLECULE
UNM
   38    40     1     0     0
SMALL
bcc


@<TRIPOS>ATOM
      1 C01         0.0080    0.0060   -0.0640 ca        1 UNM     -0.005900
      2 C02         2.0110    0.1350    1.2200 ca        1 UNM     -0.092800
      3 C03         1.3950    0.1340   -0.0300 ca        1 UNM     -0.088000
      4 C04         1.2220    0.0050    2.3960 ca        1 UNM      0.033100
      5 C05        -0.7660   -0.1200    1.1000 ca        1 UNM     -0.149000
      6 C06        -0.1840   -0.1360    2.3850 ca        1 UNM      0.167600
      7 O07         2.0310    0.0380    3.5360 os        1 UNM     -0.216200
      8 C08         3.3850    0.2520    1.6750 cc        1 UNM     -0.060200
      9 C09         3.3520    0.1900    3.0490 cd        1 UNM     -0.076100
     10 C10         4.4050    0.2490    4.0570 c         1 UNM      0.672300
     11 O11         4.0870    0.1330    5.3770 oh        1 UNM     -0.566100
     12 O12         5.6060    0.3990    3.8330 o         1 UNM     -0.476000
     13 Br13       -0.8700    0.0060   -1.7230 br        1 UNM     -0.081100
     14 C14        -2.3050   -0.0750    3.6380 c3        1 UNM      0.196500
     15 C15        -2.9130   -0.5460    4.9700 c3        1 UNM     -0.096400
     16 C16        -2.5030    0.3170    6.1410 c3        1 UNM     -0.078900
     17 C17        -2.8810    1.7870    5.9020 c3        1 UNM      0.171500
     18 C18        -2.2380    2.2710    4.5920 c3        1 UNM     -0.078900
     19 C19        -2.6690    1.4050    3.4320 c3        1 UNM     -0.096400
     20 N20        -2.4920    2.6240    7.0260 n8        1 UNM     -0.914800
     21 N21        -0.8850   -0.3780    3.5700 nu        1 UNM     -0.709600
     22 H03         1.9920    0.2320   -0.9480 ha        1 UNM      0.160000
     23 H05        -1.8600   -0.2130    1.0040 ha        1 UNM      0.156000
     24 H08         4.2640    0.3650    1.0410 ha        1 UNM      0.186000
     25 H14        -2.8010   -0.6720    2.8130 h1        1 UNM      0.062700
     26 H15        -2.6230   -1.6100    5.1700 hc        1 UNM      0.054200
     27 H15A       -4.0290   -0.5160    4.8520 hc        1 UNM      0.054200
     28 H16        -1.3990    0.2340    6.3220 hc        1 UNM      0.049950
     29 H16A       -3.0170   -0.0580    7.0660 hc        1 UNM      0.049950
     30 H17        -4.0070    1.8150    5.7450 h1        1 UNM      0.008700
     31 H18        -2.5420    3.3320    4.3910 hc        1 UNM      0.049950
     32 H18A       -1.1210    2.2570    4.6930 hc        1 UNM      0.049950
     33 H19        -2.1980    1.7830    2.4870 hc        1 UNM      0.054200
     34 H19A       -3.7820    1.4690    3.3040 hc        1 UNM      0.054200
     35 HN20        3.1320    0.0130    5.4900 ho        1 UNM      0.443000
     36 HN2A       -2.9370    2.3080    7.8640 hn        1 UNM      0.352800
     37 HN21       -0.3830   -0.0820    4.3850 hn        1 UNM      0.408800
     38 H203       -2.7420    3.5760    6.8520 hn        1 UNM      0.352800
@<TRIPOS>BOND
     1    1    3 ar  
     2    1    5 ar  
     3    1   13 1   
     4    2    3 ar  
     5    2    4 ar  
     6    2    8 1   
     7    3   22 1   
     8    4    6 ar  
     9    4    7 1   
    10    5    6 ar  
    11    5   23 1   
    12    6   21 1   
    13    7    9 1   
    14    8    9 2   
    15    8   24 1   
    16    9   10 1   
    17   10   11 1   
    18   10   12 2   
    19   11   35 1   
    20   14   15 1   
    21   14   19 1   
    22   14   21 1   
    23   14   25 1   
    24   15   16 1   
    25   15   26 1   
    26   15   27 1   
    27   16   17 1   
    28   16   28 1   
    29   16   29 1   
    30   17   18 1   
    31   17   20 1   
    32   17   30 1   
    33   18   19 1   
    34   18   31 1   
    35   18   32 1   
    36   19   33 1   
    37   19   34 1   
    38   20   36 1   
    39   20   38 1   
    40   21   37 1   
@<TRIPOS>SUBSTRUCTURE
     1 UNM         1 TEMP              0 ****  ****    0 ROOT
