@<TRIPOS>MOLECULE
UNM
   37    39     1     0     0
SMALL
bcc


@<TRIPOS>ATOM
      1 C01        -2.4840    0.8200    0.6500 ca        1 UNM     -0.031900
      2 C02        -1.4730   -1.1940   -0.1450 ca        1 UNM     -0.071800
      3 C03        -2.6190   -0.4250    0.0360 ca        1 UNM     -0.093000
      4 C04        -0.2180   -0.6770    0.3030 ca        1 UNM      0.006100
      5 C05        -1.2490    1.3180    1.0920 ca        1 UNM     -0.127000
      6 C06        -0.0670    0.5710    0.9330 ca        1 UNM      0.105600
      7 O07         0.8040   -1.5740    0.0150 os        1 UNM     -0.185200
      8 C08        -1.1680   -2.4800   -0.7380 cc        1 UNM     -0.229200
      9 C09         0.1970   -2.6670   -0.6310 cd        1 UNM      0.033900
     10 C10         1.1380   -3.7710   -1.1010 c         1 UNM      0.936800
     11 O11         0.5940   -4.8650   -1.4000 o         1 UNM     -0.793800
     12 O12         2.3630   -3.5010   -1.1680 o         1 UNM     -0.793800
     13 BR13       -4.0170    1.8860    0.8990 br        1 UNM     -0.142100
     14 C14         1.8080    2.1030    0.7070 c3        1 UNM      0.180500
     15 C15         3.1770    2.4690    1.3030 c3        1 UNM     -0.087900
     16 C16         4.2290    1.4160    1.0340 c3        1 UNM     -0.102900
     17 C17         4.3910    1.1560   -0.4720 c3        1 UNM      0.164500
     18 C18         3.0260    0.7910   -1.0780 c3        1 UNM     -0.102900
     19 C19         1.9980    1.8610   -0.7990 c3        1 UNM     -0.087900
     20 N20         5.4440    0.1890   -0.7410 n3        1 UNM     -0.904800
     21 N21         1.1810    1.0100    1.4480 nh        1 UNM     -0.688600
     22 H03        -3.5960   -0.7970   -0.3020 ha        1 UNM      0.141000
     23 H05        -1.1970    2.3060    1.5740 ha        1 UNM      0.141000
     24 H08        -1.8800   -3.1690   -1.1810 ha        1 UNM      0.167000
     25 H14         1.1210    2.9930    0.8290 h1        1 UNM      0.048700
     26 H15         3.4930    3.4420    0.8450 hc        1 UNM      0.042450
     27 H15A        3.0850    2.6270    2.4090 hc        1 UNM      0.042450
     28 H16         5.2090    1.7630    1.4570 hc        1 UNM      0.055700
     29 H16A        3.9630    0.4600    1.5570 hc        1 UNM      0.055700
     30 H17         4.7270    2.1260   -0.9510 h1        1 UNM      0.040700
     31 H18         3.1330    0.6680   -2.1880 hc        1 UNM      0.055700
     32 H18A        2.6750   -0.1980   -0.6730 hc        1 UNM      0.055700
     33 H19         1.0190    1.5650   -1.2600 hc        1 UNM      0.042450
     34 H19A        2.3170    2.8280   -1.2690 hc        1 UNM      0.042450
     35 HN20        5.2950   -0.6430   -0.2020 hn        1 UNM      0.349800
     36 HN2A        5.4230   -0.0630   -1.7110 hn        1 UNM      0.349800
     37 HN21        1.8110    0.2260    1.5020 hn        1 UNM      0.385800
@<TRIPOS>BOND
     1    1    3 ar  
     2    1    5 ar  
     3    1   13 1   
     4    2    3 ar  
     5    2    4 ar  
     6    2    8 1   
     7    3   22 1   
     8    4    6 ar  
     9    4    7 1   
    10    5    6 ar  
    11    5   23 1   
    12    6   21 1   
    13    7    9 1   
    14    8    9 2   
    15    8   24 1   
    16    9   10 1   
    17   10   11 1   
    18   10   12 1   
    19   14   15 1   
    20   14   19 1   
    21   14   21 1   
    22   14   25 1   
    23   15   16 1   
    24   15   26 1   
    25   15   27 1   
    26   16   17 1   
    27   16   28 1   
    28   16   29 1   
    29   17   18 1   
    30   17   20 1   
    31   17   30 1   
    32   18   19 1   
    33   18   31 1   
    34   18   32 1   
    35   19   33 1   
    36   19   34 1   
    37   20   35 1   
    38   20   36 1   
    39   21   37 1   
@<TRIPOS>SUBSTRUCTURE
     1 UNM         1 TEMP              0 ****  ****    0 ROOT
