@<TRIPOS>MOLECULE
UNM
   39    41     1     0     0
SMALL
bcc


@<TRIPOS>ATOM
      1 C01         0.0100   -0.5090   -0.2600 ca        1 UNM     -0.044900
      2 C02         1.5370    0.3830    1.3710 ca        1 UNM     -0.061800
      3 C03         1.2160    0.1480    0.0400 ca        1 UNM     -0.007000
      4 C04         0.6340   -0.0860    2.3790 ca        1 UNM      0.061100
      5 C05        -0.8800   -0.9380    0.7330 ca        1 UNM     -0.072000
      6 C06        -0.5720   -0.7250    2.0890 ca        1 UNM     -0.081400
      7 O07         1.0980    0.2330    3.6390 os        1 UNM     -0.243200
      8 C08         2.5910    1.0740    2.0990 cc        1 UNM     -0.169200
      9 C09         2.2770    1.0070    3.4370 cd        1 UNM      0.036900
     10 C10         2.6860    1.7110    4.7220 c         1 UNM      0.961800
     11 O11         3.8490    1.6330    5.1340 o         1 UNM     -0.787800
     12 O12         1.7260    2.3550    5.2660 o         1 UNM     -0.787800
     13 BR13       -0.4350   -0.8230   -2.0500 br        1 UNM     -0.018100
     14 C14        -2.4880   -0.2540    3.6870 c3        1 UNM      0.134500
     15 C15        -2.2750    1.2340    3.4190 c3        1 UNM     -0.095400
     16 C16        -1.3510    1.9740    4.3580 c3        1 UNM     -0.119400
     17 C17        -1.5760    1.6380    5.8370 c3        1 UNM      0.140500
     18 C18        -1.6530    0.1230    6.0500 c3        1 UNM     -0.119400
     19 C19        -2.7380   -0.4760    5.1830 c3        1 UNM     -0.095400
     20 N20        -0.4800    2.2330    6.6690 n4        1 UNM     -0.852600
     21 N21        -1.4060   -1.1920    3.1880 n4        1 UNM     -0.614400
     22 H03         1.8960    0.4790   -0.7650 ha        1 UNM      0.187000
     23 H05        -1.8170   -1.4450    0.4470 ha        1 UNM      0.161000
     24 H08         3.4550    1.5620    1.6510 ha        1 UNM      0.202000
     25 H14        -3.4180   -0.5610    3.1130 hx        1 UNM      0.104700
     26 H15        -3.3010    1.6980    3.4740 hc        1 UNM      0.091200
     27 H15A       -1.9020    1.3890    2.3690 hc        1 UNM      0.091200
     28 H16        -0.2700    1.7860    4.0910 hc        1 UNM      0.093700
     29 H16A       -1.5210    3.0760    4.2040 hc        1 UNM      0.093700
     30 H17        -2.5470    2.1070    6.1820 hx        1 UNM      0.092700
     31 H18        -0.6560   -0.3430    5.8200 hc        1 UNM      0.093700
     32 H18A       -1.8880   -0.1040    7.1250 hc        1 UNM      0.093700
     33 H19        -2.8440   -1.5690    5.4200 hc        1 UNM      0.091200
     34 H19A       -3.7270    0.0050    5.4220 hc        1 UNM      0.091200
     35 HN20       -0.7040    2.1790    7.6590 hn        1 UNM      0.478467
     36 HN2A        0.4300    1.7390    6.4700 hn        1 UNM      0.478467
     37 HN21       -0.7690   -1.3990    3.9740 hn        1 UNM      0.456300
     38 H203       -0.3190    3.2090    6.3900 hn        1 UNM      0.478467
     39 H212       -1.8580   -2.0690    2.9010 hn        1 UNM      0.456300
@<TRIPOS>BOND
     1    1    3 ar  
     2    1    5 ar  
     3    1   13 1   
     4    2    3 ar  
     5    2    4 ar  
     6    2    8 1   
     7    3   22 1   
     8    4    6 ar  
     9    4    7 1   
    10    5    6 ar  
    11    5   23 1   
    12    6   21 1   
    13    7    9 1   
    14    8    9 2   
    15    8   24 1   
    16    9   10 1   
    17   10   11 1   
    18   10   12 1   
    19   14   15 1   
    20   14   19 1   
    21   14   21 1   
    22   14   25 1   
    23   15   16 1   
    24   15   26 1   
    25   15   27 1   
    26   16   17 1   
    27   16   28 1   
    28   16   29 1   
    29   17   18 1   
    30   17   20 1   
    31   17   30 1   
    32   18   19 1   
    33   18   31 1   
    34   18   32 1   
    35   19   33 1   
    36   19   34 1   
    37   20   35 1   
    38   20   36 1   
    39   20   38 1   
    40   21   37 1   
    41   21   39 1   
@<TRIPOS>SUBSTRUCTURE
     1 UNM         1 TEMP              0 ****  ****    0 ROOT
