@<TRIPOS>MOLECULE
UNN
   47    50     1     0     0
SMALL
bcc


@<TRIPOS>ATOM
      1 C1          0.0120   -0.3590    0.1410 ca        1 UNN     -0.106000
      2 C2          1.3920   -0.4870    0.1360 ca        1 UNN      0.072900
      3 C3          2.1390   -0.2540    1.3430 ca        1 UNN      0.129900
      4 C4          1.4820    0.0990    2.5070 ca        1 UNN     -0.208300
      5 C5          0.0610    0.2330    2.5230 ca        1 UNN      0.457600
      6 N6         -0.5660    0.5880    3.7040 nb        1 UNN     -0.733000
      7 C7         -1.8950    0.6950    3.6480 ca        1 UNN      0.686900
      8 N8         -2.7250    0.5000    2.5770 nb        1 UNN     -0.796000
      9 C9         -2.1350    0.1530    1.4010 ca        1 UNN      0.730200
     10 C10        -0.6740   -0.0020    1.3190 ca        1 UNN     -0.299600
     11 N11        -2.9010   -0.0350    0.2750 nh        1 UNN     -0.863900
     12 C12        -4.3510    0.0360    0.2620 c3        1 UNN      0.240500
     13 C13        -4.3010   -2.0820   -1.1620 ca        1 UNN     -0.084300
     14 C14        -4.9430   -0.7450   -0.9480 c3        1 UNN      0.010900
     15 C15        -3.9660   -2.9250   -0.0960 ca        1 UNN     -0.122500
     16 C16        -3.3810   -4.1680   -0.3360 ca        1 UNN     -0.127500
     17 C17        -3.1250   -4.5830   -1.6430 ca        1 UNN     -0.125000
     18 C18        -3.4580   -3.7490   -2.7100 ca        1 UNN     -0.127500
     19 C19        -4.0420   -2.5070   -2.4730 ca        1 UNN     -0.122500
     20 C20        -6.4280   -0.8820   -0.7850 ca        1 UNN     -0.084300
     21 C21        -7.2820   -0.2540   -1.7010 ca        1 UNN     -0.122500
     22 C22        -8.6650   -0.3740   -1.5720 ca        1 UNN     -0.127500
     23 C23        -9.2090   -1.1210   -0.5280 ca        1 UNN     -0.125000
     24 C24        -8.3650   -1.7500    0.3870 ca        1 UNN     -0.127500
     25 C25        -6.9820   -1.6320    0.2590 ca        1 UNN     -0.122500
     26 F28         2.0530   -0.8290   -0.9940 f         1 UNN     -0.124900
     27 F29         3.4840   -0.3840    1.3160 f         1 UNN     -0.120900
     28 C31        -4.8600    1.4790    0.2060 c3        1 UNN     -0.110100
     29 H1         -0.5170   -0.5460   -0.8060 ha        1 UNN      0.148000
     30 H4          2.0550    0.2780    3.4320 ha        1 UNN      0.176000
     31 H7         -2.4140    0.9790    4.5890 h5        1 UNN      0.053100
     32 HN         -2.4610   -0.3940   -0.5400 hn        1 UNN      0.443800
     33 H12        -4.7490   -0.4390    1.2100 h1        1 UNN      0.076700
     34 H14        -4.7460   -0.1170   -1.8690 hc        1 UNN      0.062700
     35 H15        -4.1610   -2.6090    0.9400 ha        1 UNN      0.133750
     36 H16        -3.1210   -4.8210    0.5100 ha        1 UNN      0.134500
     37 H17        -2.6640   -5.5640   -1.8300 ha        1 UNN      0.134500
     38 H18        -3.2610   -4.0730   -3.7430 ha        1 UNN      0.134500
     39 H19        -4.3070   -1.8580   -3.3220 ha        1 UNN      0.133750
     40 H21        -6.8620    0.3380   -2.5280 ha        1 UNN      0.133750
     41 H22        -9.3270    0.1210   -2.2970 ha        1 UNN      0.134500
     42 H23       -10.3000   -1.2160   -0.4270 ha        1 UNN      0.134500
     43 H24        -8.7890   -2.3410    1.2120 ha        1 UNN      0.134500
     44 H25        -6.3210   -2.1390    0.9790 ha        1 UNN      0.133750
     45 H311       -5.9760    1.4630    0.1580 hc        1 UNN      0.050367
     46 H312       -4.5480    2.0390    1.1190 hc        1 UNN      0.050367
     47 H313       -4.4700    2.0120   -0.6930 hc        1 UNN      0.050367
@<TRIPOS>BOND
     1    1    2 ar  
     2    1   10 ar  
     3    1   29 1   
     4    2    3 ar  
     5    2   26 1   
     6    3    4 ar  
     7    3   27 1   
     8    4    5 ar  
     9    4   30 1   
    10    5    6 ar  
    11    5   10 ar  
    12    6    7 ar  
    13    7    8 ar  
    14    7   31 1   
    15    8    9 ar  
    16    9   10 ar  
    17    9   11 1   
    18   11   12 1   
    19   11   32 1   
    20   12   14 1   
    21   12   28 1   
    22   12   33 1   
    23   13   14 1   
    24   13   15 ar  
    25   13   19 ar  
    26   14   20 1   
    27   14   34 1   
    28   15   16 ar  
    29   15   35 1   
    30   16   17 ar  
    31   16   36 1   
    32   17   18 ar  
    33   17   37 1   
    34   18   19 ar  
    35   18   38 1   
    36   19   39 1   
    37   20   21 ar  
    38   20   25 ar  
    39   21   22 ar  
    40   21   40 1   
    41   22   23 ar  
    42   22   41 1   
    43   23   24 ar  
    44   23   42 1   
    45   24   25 ar  
    46   24   43 1   
    47   25   44 1   
    48   28   45 1   
    49   28   46 1   
    50   28   47 1   
@<TRIPOS>SUBSTRUCTURE
     1 UNN         1 TEMP              0 ****  ****    0 ROOT
