@<TRIPOS>MOLECULE
UNN
   48    51     1     0     0
SMALL
bcc


@<TRIPOS>ATOM
      1 C1         -0.2850    0.8590    0.1710 ca        1 UNN     -0.176000
      2 C2          0.7780    1.7460    0.1900 ca        1 UNN      0.158900
      3 C3          1.4870    2.0040    1.4260 ca        1 UNN      0.150900
      4 C4          1.1000    1.3720    2.5920 ca        1 UNN     -0.180300
      5 C5          0.0040    0.4540    2.5870 ca        1 UNN      0.441600
      6 N6         -0.3700   -0.1560    3.7650 nb        1 UNN     -0.614000
      7 C7         -1.3940   -1.0070    3.7090 ca        1 UNN      0.661900
      8 N8         -2.1200   -1.3560    2.5870 nb        1 UNN     -0.674000
      9 C9         -1.7590   -0.7680    1.4400 ca        1 UNN      0.534200
     10 C10        -0.6840    0.1910    1.3500 ca        1 UNN     -0.236600
     11 N11        -2.5050   -1.1660    0.2260 n4        1 UNN     -0.764700
     12 C12        -3.8980   -0.5660    0.1660 c3        1 UNN      0.136500
     13 C13        -4.5360   -2.6670   -1.1130 ca        1 UNN     -0.130300
     14 C14        -4.6940   -1.1810   -1.0160 c3        1 UNN      0.026900
     15 C15        -4.5680   -3.4980    0.0150 ca        1 UNN     -0.127750
     16 C16        -4.4490   -4.8800   -0.1250 ca        1 UNN     -0.115250
     17 C17        -4.3020   -5.4480   -1.3910 ca        1 UNN     -0.103000
     18 C18        -4.2750   -4.6270   -2.5190 ca        1 UNN     -0.115250
     19 C19        -4.3910   -3.2440   -2.3820 ca        1 UNN     -0.127750
     20 C20        -6.1310   -0.7730   -0.8910 ca        1 UNN     -0.130300
     21 C21        -6.6880    0.0640   -1.8680 ca        1 UNN     -0.127750
     22 C22        -8.0260    0.4450   -1.7850 ca        1 UNN     -0.115250
     23 C23        -8.8190   -0.0040   -0.7290 ca        1 UNN     -0.103000
     24 C24        -8.2700   -0.8400    0.2440 ca        1 UNN     -0.115250
     25 C25        -6.9320   -1.2240    0.1630 ca        1 UNN     -0.127750
     26 F28         1.1640    2.3840   -0.9310 f         1 UNN     -0.087900
     27 F29         2.5190    2.8690    1.4100 f         1 UNN     -0.082900
     28 C31        -3.8420    0.9470    0.0300 c3        1 UNN     -0.130100
     29 H1         -0.8070    0.7130   -0.7870 ha        1 UNN      0.150000
     30 H4          1.6370    1.5740    3.5370 ha        1 UNN      0.205000
     31 H7         -1.7130   -1.5060    4.6530 h5        1 UNN      0.098100
     32 HN         -2.6040   -2.1980    0.2060 hn        1 UNN      0.468800
     33 H12        -4.4090   -0.8450    1.1370 hx        1 UNN      0.125700
     34 H14        -4.2810   -0.7240   -1.9660 hc        1 UNN      0.070700
     35 H15        -4.7210   -3.0740    1.0190 ha        1 UNN      0.134750
     36 H16        -4.4860   -5.5260    0.7670 ha        1 UNN      0.151750
     37 H17        -4.2180   -6.5410   -1.5000 ha        1 UNN      0.154000
     38 H18        -4.1720   -5.0710   -3.5220 ha        1 UNN      0.151750
     39 H19        -4.3880   -2.6080   -3.2810 ha        1 UNN      0.134750
     40 H21        -6.0750    0.4180   -2.7110 ha        1 UNN      0.134750
     41 H22        -8.4580    1.0990   -2.5590 ha        1 UNN      0.151750
     42 H23        -9.8770    0.2950   -0.6660 ha        1 UNN      0.154000
     43 H24        -8.8940   -1.2030    1.0750 ha        1 UNN      0.151750
     44 H25        -6.5170   -1.9020    0.9240 ha        1 UNN      0.134750
     45 H311       -3.3110    1.2600   -0.9020 hc        1 UNN      0.077033
     46 H312       -4.8950    1.3270   -0.0240 hc        1 UNN      0.077033
     47 H313       -3.3410    1.4150    0.9120 hc        1 UNN      0.077033
     48 H112       -1.9750   -0.8760   -0.6020 hn        1 UNN      0.468800
@<TRIPOS>BOND
     1    1    2 ar  
     2    1   10 ar  
     3    1   29 1   
     4    2    3 ar  
     5    2   26 1   
     6    3    4 ar  
     7    3   27 1   
     8    4    5 ar  
     9    4   30 1   
    10    5    6 ar  
    11    5   10 ar  
    12    6    7 ar  
    13    7    8 ar  
    14    7   31 1   
    15    8    9 ar  
    16    9   10 ar  
    17    9   11 1   
    18   11   12 1   
    19   11   32 1   
    20   11   48 1   
    21   12   14 1   
    22   12   28 1   
    23   12   33 1   
    24   13   14 1   
    25   13   15 ar  
    26   13   19 ar  
    27   14   20 1   
    28   14   34 1   
    29   15   16 ar  
    30   15   35 1   
    31   16   17 ar  
    32   16   36 1   
    33   17   18 ar  
    34   17   37 1   
    35   18   19 ar  
    36   18   38 1   
    37   19   39 1   
    38   20   21 ar  
    39   20   25 ar  
    40   21   22 ar  
    41   21   40 1   
    42   22   23 ar  
    43   22   41 1   
    44   23   24 ar  
    45   23   42 1   
    46   24   25 ar  
    47   24   43 1   
    48   25   44 1   
    49   28   45 1   
    50   28   46 1   
    51   28   47 1   
@<TRIPOS>SUBSTRUCTURE
     1 UNN         1 TEMP              0 ****  ****    0 ROOT
