@<TRIPOS>MOLECULE
UNN
   47    50     1     0     0
SMALL
bcc


@<TRIPOS>ATOM
      1 C1          0.0090   -0.3470    0.1670 ca        1 UNN     -0.106000
      2 C2          1.3900   -0.4690    0.1690 ca        1 UNN      0.072900
      3 C3          2.1290   -0.2440    1.3820 ca        1 UNN      0.129900
      4 C4          1.4640    0.0940    2.5460 ca        1 UNN     -0.208300
      5 C5          0.0430    0.2230    2.5560 ca        1 UNN      0.457600
      6 N6         -0.5920    0.5640    3.7360 nb        1 UNN     -0.733000
      7 C7         -1.9210    0.6660    3.6740 ca        1 UNN      0.686900
      8 N8         -2.7440    0.4780    2.5960 nb        1 UNN     -0.796000
      9 C9         -2.1460    0.1450    1.4200 ca        1 UNN      0.730200
     10 C10        -0.6840   -0.0040    1.3450 ca        1 UNN     -0.299600
     11 N11        -2.9050   -0.0360    0.2870 nu        1 UNN     -0.863900
     12 C12        -4.3550    0.0310    0.2660 c3        1 UNN      0.240500
     13 C13        -4.2910   -2.0740   -1.1760 ca        1 UNN     -0.084300
     14 C14        -4.9370   -0.7400   -0.9530 c3        1 UNN      0.010900
     15 C15        -3.9600   -2.9260   -0.1160 ca        1 UNN     -0.122250
     16 C16        -3.3690   -4.1640   -0.3630 ca        1 UNN     -0.127500
     17 C17        -3.1040   -4.5670   -1.6710 ca        1 UNN     -0.125000
     18 C18        -3.4320   -3.7250   -2.7340 ca        1 UNN     -0.127500
     19 C19        -4.0210   -2.4860   -2.4890 ca        1 UNN     -0.122250
     20 C20        -6.4230   -0.8830   -0.8010 ca        1 UNN     -0.084300
     21 C21        -7.2740   -0.2500   -1.7170 ca        1 UNN     -0.122250
     22 C22        -8.6570   -0.3750   -1.5980 ca        1 UNN     -0.127500
     23 C23        -9.2050   -1.1330   -0.5630 ca        1 UNN     -0.125000
     24 C24        -8.3640   -1.7660    0.3510 ca        1 UNN     -0.127500
     25 C25        -6.9810   -1.6440    0.2330 ca        1 UNN     -0.122250
     26 F28         2.0590   -0.7990   -0.9600 f         1 UNN     -0.124900
     27 F29         3.4750   -0.3690    1.3620 f         1 UNN     -0.120900
     28 C31        -4.8690    1.4730    0.2210 c3        1 UNN     -0.110100
     29 H1         -0.5130   -0.5270   -0.7850 ha        1 UNN      0.148000
     30 H4          2.0320    0.2680    3.4760 ha        1 UNN      0.176000
     31 H7         -2.4470    0.9400    4.6140 h5        1 UNN      0.053100
     32 HN         -2.4590   -0.3840   -0.5280 hn        1 UNN      0.443800
     33 H12        -4.7570   -0.4540    1.2080 h1        1 UNN      0.076700
     34 H14        -4.7370   -0.1040   -1.8670 hc        1 UNN      0.061700
     35 H15        -4.1620   -2.6190    0.9220 ha        1 UNN      0.133750
     36 H16        -3.1130   -4.8240    0.4790 ha        1 UNN      0.134500
     37 H17        -2.6390   -5.5450   -1.8650 ha        1 UNN      0.134500
     38 H18        -3.2280   -4.0390   -3.7680 ha        1 UNN      0.134500
     39 H19        -4.2830   -1.8310   -3.3330 ha        1 UNN      0.133750
     40 H21        -6.8500    0.3500   -2.5370 ha        1 UNN      0.133750
     41 H22        -9.3150    0.1250   -2.3230 ha        1 UNN      0.134500
     42 H23       -10.2960   -1.2310   -0.4700 ha        1 UNN      0.134500
     43 H24        -8.7920   -2.3660    1.1680 ha        1 UNN      0.134500
     44 H25        -6.3230   -2.1550    0.9530 ha        1 UNN      0.133750
     45 H311       -4.5630    2.0260    1.1410 hc        1 UNN      0.050367
     46 H312       -5.9840    1.4540    0.1660 hc        1 UNN      0.050367
     47 H313       -4.4750    2.0150   -0.6710 hc        1 UNN      0.050367
@<TRIPOS>BOND
     1    1    2 ar  
     2    1   10 ar  
     3    1   29 1   
     4    2    3 ar  
     5    2   26 1   
     6    3    4 ar  
     7    3   27 1   
     8    4    5 ar  
     9    4   30 1   
    10    5    6 ar  
    11    5   10 ar  
    12    6    7 ar  
    13    7    8 ar  
    14    7   31 1   
    15    8    9 ar  
    16    9   10 ar  
    17    9   11 1   
    18   11   12 1   
    19   11   32 1   
    20   12   14 1   
    21   12   28 1   
    22   12   33 1   
    23   13   14 1   
    24   13   15 ar  
    25   13   19 ar  
    26   14   20 1   
    27   14   34 1   
    28   15   16 ar  
    29   15   35 1   
    30   16   17 ar  
    31   16   36 1   
    32   17   18 ar  
    33   17   37 1   
    34   18   19 ar  
    35   18   38 1   
    36   19   39 1   
    37   20   21 ar  
    38   20   25 ar  
    39   21   22 ar  
    40   21   40 1   
    41   22   23 ar  
    42   22   41 1   
    43   23   24 ar  
    44   23   42 1   
    45   24   25 ar  
    46   24   43 1   
    47   25   44 1   
    48   28   45 1   
    49   28   46 1   
    50   28   47 1   
@<TRIPOS>SUBSTRUCTURE
     1 UNN         1 TEMP              0 ****  ****    0 ROOT
