@<TRIPOS>MOLECULE
UNN
   47    50     1     0     0
SMALL
bcc


@<TRIPOS>ATOM
      1 C1         -0.5390    0.5330   -2.8000 ca        1 UNN     -0.106000
      2 C2         -1.0070    0.4910   -4.1040 ca        1 UNN      0.072900
      3 C3         -0.1970   -0.0950   -5.1380 ca        1 UNN      0.129900
      4 C4          1.0470   -0.6160   -4.8330 ca        1 UNN     -0.208300
      5 C5          1.5380   -0.5770   -3.4930 ca        1 UNN      0.457600
      6 N6          2.7870   -1.1050   -3.2210 nb        1 UNN     -0.733000
      7 C7          3.1830   -1.0370   -1.9490 ca        1 UNN      0.686900
      8 N8          2.5190   -0.5140   -0.8720 nb        1 UNN     -0.796000
      9 C9          1.2880    0.0160   -1.1110 ca        1 UNN      0.730200
     10 C10         0.7260    0.0060   -2.4710 ca        1 UNN     -0.299600
     11 N11         0.5710    0.5830   -0.0850 nh        1 UNN     -0.863900
     12 C12         1.0080    0.5920    1.2990 c3        1 UNN      0.240500
     13 C13        -1.3790   -0.0740    1.9120 ca        1 UNN     -0.084300
     14 C14        -0.1940    0.7720    2.2700 c3        1 UNN      0.010900
     15 C15        -1.2420   -1.3960    1.4730 ca        1 UNN     -0.122500
     16 C16        -2.3680   -2.1550    1.1590 ca        1 UNN     -0.127500
     17 C17        -3.6430   -1.6050    1.2820 ca        1 UNN     -0.125000
     18 C18        -3.7880   -0.2880    1.7200 ca        1 UNN     -0.127500
     19 C19        -2.6640    0.4730    2.0330 ca        1 UNN     -0.122500
     20 C20         0.2470    0.5080    3.6800 ca        1 UNN     -0.084300
     21 C21         0.2250    1.5500    4.6160 ca        1 UNN     -0.122500
     22 C22         0.6240    1.3240    5.9320 ca        1 UNN     -0.127500
     23 C23         1.0510    0.0570    6.3270 ca        1 UNN     -0.125000
     24 C24         1.0750   -0.9860    5.4010 ca        1 UNN     -0.127500
     25 C25         0.6740   -0.7620    4.0840 ca        1 UNN     -0.122500
     26 F28        -2.2210    0.9960   -4.4220 f         1 UNN     -0.124900
     27 F29        -0.6720   -0.1270   -6.4030 f         1 UNN     -0.120900
     28 C31         2.0290    1.6990    1.5780 c3        1 UNN     -0.110100
     29 H1         -1.1930    0.9930   -2.0420 ha        1 UNN      0.148000
     30 H4          1.6670   -1.0640   -5.6270 ha        1 UNN      0.176000
     31 H7          4.1850   -1.4570   -1.7140 h5        1 UNN      0.053100
     32 HN         -0.3650    0.8610   -0.2620 hn        1 UNN      0.443800
     33 H12         1.4980   -0.4020    1.5340 h1        1 UNN      0.076700
     34 H14        -0.5120    1.8560    2.1980 hc        1 UNN      0.062700
     35 H15        -0.2410   -1.8430    1.3700 ha        1 UNN      0.133750
     36 H16        -2.2480   -3.1930    0.8140 ha        1 UNN      0.134500
     37 H17        -4.5300   -2.2050    1.0350 ha        1 UNN      0.134500
     38 H18        -4.7920    0.1500    1.8220 ha        1 UNN      0.134500
     39 H19        -2.7880    1.5080    2.3850 ha        1 UNN      0.133750
     40 H21        -0.1100    2.5540    4.3130 ha        1 UNN      0.133750
     41 H22         0.6020    2.1490    6.6590 ha        1 UNN      0.134500
     42 H23         1.3660   -0.1210    7.3650 ha        1 UNN      0.134500
     43 H24         1.4090   -1.9880    5.7080 ha        1 UNN      0.134500
     44 H25         0.6860   -1.5920    3.3610 ha        1 UNN      0.133750
     45 H311        1.6130    2.7050    1.3300 hc        1 UNN      0.050367
     46 H312        2.2940    1.6780    2.6630 hc        1 UNN      0.050367
     47 H313        2.9560    1.5360    0.9780 hc        1 UNN      0.050367
@<TRIPOS>BOND
     1    1    2 ar  
     2    1   10 ar  
     3    1   29 1   
     4    2    3 ar  
     5    2   26 1   
     6    3    4 ar  
     7    3   27 1   
     8    4    5 ar  
     9    4   30 1   
    10    5    6 ar  
    11    5   10 ar  
    12    6    7 ar  
    13    7    8 ar  
    14    7   31 1   
    15    8    9 ar  
    16    9   10 ar  
    17    9   11 1   
    18   11   12 1   
    19   11   32 1   
    20   12   14 1   
    21   12   28 1   
    22   12   33 1   
    23   13   14 1   
    24   13   15 ar  
    25   13   19 ar  
    26   14   20 1   
    27   14   34 1   
    28   15   16 ar  
    29   15   35 1   
    30   16   17 ar  
    31   16   36 1   
    32   17   18 ar  
    33   17   37 1   
    34   18   19 ar  
    35   18   38 1   
    36   19   39 1   
    37   20   21 ar  
    38   20   25 ar  
    39   21   22 ar  
    40   21   40 1   
    41   22   23 ar  
    42   22   41 1   
    43   23   24 ar  
    44   23   42 1   
    45   24   25 ar  
    46   24   43 1   
    47   25   44 1   
    48   28   45 1   
    49   28   46 1   
    50   28   47 1   
@<TRIPOS>SUBSTRUCTURE
     1 UNN         1 TEMP              0 ****  ****    0 ROOT
