@<TRIPOS>MOLECULE
UNP
   42    42     1     0     0
SMALL
bcc


@<TRIPOS>ATOM
      1 O2G        -0.0220   -0.0220    0.2400 o         1 UNP     -1.149333
      2 PG          1.3730   -0.2220    0.6850 p3        1 UNP      2.440000
      3 O3G         1.6320   -0.6390    2.0780 o         1 UNP     -1.149333
      4 O1G         2.4220   -0.4250   -0.3370 o         1 UNP     -1.149333
      5 N2B         1.7170    2.3410    0.3160 n3        1 UNP     -0.983000
      6 PB          2.1050    3.7580    0.9930 p5        1 UNP      2.086000
      7 O1B         1.0530    4.2320    1.9270 o         1 UNP     -0.877000
      8 O3B         3.5400    3.8120    1.3710 o         1 UNP     -0.877000
      9 O3A         1.9780    4.8670   -0.3160 os        1 UNP     -1.285000
     10 PA          1.8890    6.0400   -1.3580 p5        1 UNP      2.088000
     11 O1A         0.6840    6.0380   -2.2150 o         1 UNP     -0.915500
     12 O2A         2.4060    7.3580   -0.8820 o         1 UNP     -0.915500
     13 O5'         3.1400    5.6540   -2.4500 os        1 UNP     -0.721000
     14 C5'         3.3060    6.5690   -3.4620 c3        1 UNP      0.075000
     15 C4'         4.5240    7.4780   -3.1840 c3        1 UNP     -0.062000
     16 C3'         4.1790    8.7960   -2.4640 c3        1 UNP      0.015000
     17 O3'         4.7210    8.8260   -1.1660 oh        1 UNP     -0.390000
     18 C2'         4.8460    9.9140   -3.2970 c3        1 UNP     -0.007000
     19 O2'         6.0020   10.4800   -2.7240 oh        1 UNP     -0.338000
     20 O4'         5.1750    7.8070   -4.4380 os        1 UNP     -0.285000
     21 C1'         5.2570    9.2080   -4.6320 c3        1 UNP      0.116000
     22 N1          4.4080    9.6060   -5.7730 n         1 UNP     -0.262000
     23 C2          4.9880   10.3080   -6.8540 c2        1 UNP      0.395000
     24 O2          6.1900   10.6640   -6.8720 o         1 UNP     -0.397000
     25 C6          3.0920    9.1900   -5.8580 c2        1 UNP      0.086000
     26 C5          2.2910    9.5010   -6.9170 c2        1 UNP     -0.345000
     27 C4          2.8160   10.2710   -8.0390 c2        1 UNP      0.359000
     28 N3          4.1690   10.6460   -7.9490 n         1 UNP     -0.378000
     29 O4          2.1770   10.6200   -9.0530 o         1 UNP     -0.398000
     30 HN2B        2.3560    1.9030   -0.3030 hn        1 UNP      0.206000
     31 H5'         2.3760    7.1960   -3.5850 h1        1 UNP      0.046000
     32 H5'A        3.5110    6.0200   -4.4260 h1        1 UNP      0.046000
     33 H4'         5.2860    6.8970   -2.5950 h1        1 UNP      0.139000
     34 H3'         3.0650    8.9540   -2.4180 h1        1 UNP      0.144000
     35 HO3'        4.1140    8.2890   -0.6060 ho        1 UNP      0.312000
     36 H2'         4.1450   10.7720   -3.4680 h1        1 UNP      0.104000
     37 HO2'        6.3220    9.8770   -2.0370 ho        1 UNP      0.234000
     38 H1'         6.3270    9.4450   -4.9080 h2        1 UNP      0.148000
     39 H6          2.7360    8.5810   -4.9950 h4        1 UNP      0.215000
     40 H5          1.2450    9.1800   -6.9690 ha        1 UNP      0.179000
     41 HN3         4.5970   11.1480   -8.6940 hn        1 UNP      0.242000
     42 H2B2        0.7770    2.1670    0.0490 hn        1 UNP      0.206000
@<TRIPOS>BOND
     1    1    2 1   
     2    2    3 1   
     3    2    4 1   
     4    5    6 1   
     5    5   30 1   
     6    5   42 1   
     7    6    7 1   
     8    6    8 1   
     9    6    9 1   
    10    9   10 1   
    11   10   11 1   
    12   10   12 1   
    13   10   13 1   
    14   13   14 1   
    15   14   15 1   
    16   14   31 1   
    17   14   32 1   
    18   15   16 1   
    19   15   20 1   
    20   15   33 1   
    21   16   17 1   
    22   16   18 1   
    23   16   34 1   
    24   17   35 1   
    25   18   19 1   
    26   18   21 1   
    27   18   36 1   
    28   19   37 1   
    29   20   21 1   
    30   21   22 1   
    31   21   38 1   
    32   22   23 1   
    33   22   25 1   
    34   23   24 1   
    35   23   28 1   
    36   25   26 1   
    37   25   39 1   
    38   26   27 1   
    39   26   40 1   
    40   27   28 1   
    41   27   29 1   
    42   28   41 1   
@<TRIPOS>SUBSTRUCTURE
     1 UNP         1 TEMP              0 ****  ****    0 ROOT
