@<TRIPOS>MOLECULE
UNP
   42    42     1     0     0
SMALL
bcc


@<TRIPOS>ATOM
      1 O2G        -0.0860    0.0200    0.2630 o         1 UNP     -1.149333
      2 PG          1.3040   -0.1820    0.7250 p3        1 UNP      2.440000
      3 O3G         1.5470   -0.5880    2.1240 o         1 UNP     -1.149333
      4 O1G         2.3630   -0.3970   -0.2840 o         1 UNP     -1.149333
      5 N2B         1.6620    2.3770    0.3390 n8        1 UNP     -0.983000
      6 PB          2.0490    3.7980    1.0080 p5        1 UNP      2.086000
      7 O1B         0.9890    4.2840    1.9270 o         1 UNP     -0.877000
      8 O3B         3.4790    3.8500    1.4000 o         1 UNP     -0.877000
      9 O3A         1.9400    4.8970   -0.3110 os        1 UNP     -1.285000
     10 PA          1.8670    6.0610   -1.3650 p5        1 UNP      2.088000
     11 O1A         0.6700    6.0570   -2.2340 o         1 UNP     -0.915500
     12 O2A         2.3850    7.3800   -0.8950 o         1 UNP     -0.915500
     13 O5'         3.1270    5.6600   -2.4400 os        1 UNP     -0.721000
     14 C5'         3.3080    6.5660   -3.4580 c3        1 UNP      0.075000
     15 C4'         4.5280    7.4710   -3.1760 c3        1 UNP     -0.062000
     16 C3'         4.1810    8.7970   -2.4710 c3        1 UNP      0.015000
     17 O3'         4.7100    8.8350   -1.1680 oh        1 UNP     -0.390000
     18 C2'         4.8620    9.9040   -3.3060 c3        1 UNP     -0.007000
     19 O2'         6.0150   10.4700   -2.7260 oh        1 UNP     -0.338000
     20 O4'         5.1920    7.7870   -4.4260 os        1 UNP     -0.285000
     21 C1'         5.2830    9.1860   -4.6310 c3        1 UNP      0.116000
     22 N1          4.4480    9.5770   -5.7840 n         1 UNP     -0.262000
     23 C2          5.0420   10.2680   -6.8640 c2        1 UNP      0.395000
     24 O2          6.2460   10.6180   -6.8730 o         1 UNP     -0.397000
     25 C6          3.1310    9.1670   -5.8790 c2        1 UNP      0.086000
     26 C5          2.3420    9.4730   -6.9490 c2        1 UNP     -0.345000
     27 C4          2.8810   10.2310   -8.0710 c2        1 UNP      0.359000
     28 N3          4.2360   10.6000   -7.9710 ns        1 UNP     -0.378000
     29 O4          2.2550   10.5740   -9.0950 o         1 UNP     -0.398000
     30 HN2B        0.7250    2.2040    0.0630 hn        1 UNP      0.206000
     31 H5'         2.3820    7.1950   -3.5960 h1        1 UNP      0.046000
     32 H5'A        3.5200    6.0070   -4.4150 h1        1 UNP      0.046000
     33 H4'         5.2810    6.8910   -2.5740 h1        1 UNP      0.139000
     34 H3'         3.0680    8.9600   -2.4370 h1        1 UNP      0.144000
     35 HO3'        4.0950    8.3060   -0.6090 ho        1 UNP      0.312000
     36 H2'         4.1670   10.7650   -3.4910 h1        1 UNP      0.104000
     37 HO2'        6.3250    9.8700   -2.0310 ho        1 UNP      0.234000
     38 H1'         6.3570    9.4140   -4.8990 h2        1 UNP      0.148000
     39 H6          2.7630    8.5660   -5.0140 h4        1 UNP      0.215000
     40 H5          1.2950    9.1550   -7.0090 ha        1 UNP      0.179000
     41 HN3         4.6730   11.0940   -8.7150 hn        1 UNP      0.242000
     42 H2B2        2.3060    1.9310   -0.2700 hn        1 UNP      0.206000
@<TRIPOS>BOND
     1    1    2 1   
     2    2    3 1   
     3    2    4 1   
     4    5    6 1   
     5    5   30 1   
     6    5   42 1   
     7    6    7 1   
     8    6    8 1   
     9    6    9 1   
    10    9   10 1   
    11   10   11 1   
    12   10   12 1   
    13   10   13 1   
    14   13   14 1   
    15   14   15 1   
    16   14   31 1   
    17   14   32 1   
    18   15   16 1   
    19   15   20 1   
    20   15   33 1   
    21   16   17 1   
    22   16   18 1   
    23   16   34 1   
    24   17   35 1   
    25   18   19 1   
    26   18   21 1   
    27   18   36 1   
    28   19   37 1   
    29   20   21 1   
    30   21   22 1   
    31   21   38 1   
    32   22   23 1   
    33   22   25 1   
    34   23   24 1   
    35   23   28 1   
    36   25   26 1   
    37   25   39 1   
    38   26   27 1   
    39   26   40 1   
    40   27   28 1   
    41   27   29 1   
    42   28   41 1   
@<TRIPOS>SUBSTRUCTURE
     1 UNP         1 TEMP              0 ****  ****    0 ROOT
