@<TRIPOS>MOLECULE
UNQ
   45    48     1     0     0
SMALL
bcc


@<TRIPOS>ATOM
      1 C01        -1.2150   -0.0860    0.6880 cp        1 UNQ     -0.201500
      2 C02        -3.3170    0.5330   -0.2950 ca        1 UNQ     -0.094800
      3 C03        -2.0640    0.9050    0.1720 ca        1 UNQ     -0.083000
      4 C04        -3.7010   -0.8500   -0.2340 ca        1 UNQ      0.059100
      5 C05        -1.6120   -1.4360    0.7280 ca        1 UNQ     -0.100000
      6 C06        -2.8650   -1.8390    0.2710 ca        1 UNQ     -0.135000
      7 O07        -4.9810   -1.0140   -0.7440 os        1 UNQ     -0.169200
      8 C08        -4.4490    1.2190   -0.8810 cc        1 UNQ     -0.232200
      9 C09        -5.4180    0.2680   -1.1340 cd        1 UNQ      0.031900
     10 C10        -6.8140    0.3780   -1.7370 c         1 UNQ      0.934800
     11 O11        -7.4970   -0.6670   -1.8510 o         1 UNQ     -0.792800
     12 O12        -7.1620    1.5400   -2.0740 o         1 UNQ     -0.792800
     13 C13         0.1060    0.3080    1.1960 cp        1 UNQ      0.415500
     14 C14         2.3850   -0.0590    1.4830 ca        1 UNQ      0.485900
     15 N15         1.1810   -0.4870    0.9870 nb        1 UNQ     -0.687000
     16 C16         2.4840    1.1930    2.1780 ca        1 UNQ      0.247900
     17 C17         0.2360    1.5470    1.9020 ca        1 UNQ      0.251900
     18 N18         1.4130    1.9800    2.3810 nb        1 UNQ     -0.625000
     19 N19         3.5310   -0.8980    1.3880 nh        1 UNQ     -0.798900
     20 C20         4.6560   -0.3260    0.6530 c3        1 UNQ      0.181500
     21 C21         5.9330   -1.1500    0.8880 c3        1 UNQ     -0.091900
     22 C22         7.1210   -0.4870    0.2260 c3        1 UNQ     -0.092400
     23 C23         6.9010   -0.3570   -1.2890 c3        1 UNQ      0.158500
     24 C24         5.6150    0.4530   -1.5320 c3        1 UNQ     -0.092400
     25 C25         4.4280   -0.1990   -0.8630 c3        1 UNQ     -0.091900
     26 N26         8.0780    0.1610   -1.9640 n3        1 UNQ     -0.901800
     27 H03        -1.7420    1.9540    0.1240 ha        1 UNQ      0.129000
     28 H05        -0.9220   -2.1930    1.1300 ha        1 UNQ      0.132000
     29 H06        -3.1810   -2.8890    0.3040 ha        1 UNQ      0.142000
     30 H08        -4.5260    2.2830   -1.0850 ha        1 UNQ      0.167000
     31 H16         3.4430    1.5520    2.5850 h4        1 UNQ      0.027100
     32 H17        -0.6450    2.1860    2.0830 h4        1 UNQ      0.041100
     33 HN19        3.3040   -1.8100    1.0310 hn        1 UNQ      0.389800
     34 H20         4.8330    0.7130    1.0650 h1        1 UNQ      0.060700
     35 H21         6.1280   -1.2410    1.9890 hc        1 UNQ      0.051950
     36 H21A        5.7990   -2.1850    0.4790 hc        1 UNQ      0.051950
     37 H22         7.2870    0.5280    0.6730 hc        1 UNQ      0.043700
     38 H22A        8.0400   -1.0990    0.4210 hc        1 UNQ      0.043700
     39 H23         6.7330   -1.3970   -1.7050 h1        1 UNQ      0.059700
     40 H24         5.7450    1.4950   -1.1370 hc        1 UNQ      0.043700
     41 H24A        5.4180    0.5310   -2.6330 hc        1 UNQ      0.043700
     42 H25         4.2550   -1.2150   -1.3050 hc        1 UNQ      0.051950
     43 H25A        3.5070    0.4120   -1.0550 hc        1 UNQ      0.051950
     44 HN26        7.8800    0.2980   -2.9360 hn        1 UNQ      0.343300
     45 HN2A        8.3540    1.0380   -1.5670 hn        1 UNQ      0.343300
@<TRIPOS>BOND
     1    1    3 ar  
     2    1    5 ar  
     3    1   13 1   
     4    2    3 ar  
     5    2    4 ar  
     6    2    8 1   
     7    3   27 1   
     8    4    6 ar  
     9    4    7 1   
    10    5    6 ar  
    11    5   28 1   
    12    6   29 1   
    13    7    9 1   
    14    8    9 2   
    15    8   30 1   
    16    9   10 1   
    17   10   11 1   
    18   10   12 1   
    19   13   15 ar  
    20   13   17 ar  
    21   14   15 ar  
    22   14   16 ar  
    23   14   19 1   
    24   16   18 ar  
    25   16   31 1   
    26   17   18 ar  
    27   17   32 1   
    28   19   20 1   
    29   19   33 1   
    30   20   21 1   
    31   20   25 1   
    32   20   34 1   
    33   21   22 1   
    34   21   35 1   
    35   21   36 1   
    36   22   23 1   
    37   22   37 1   
    38   22   38 1   
    39   23   24 1   
    40   23   26 1   
    41   23   39 1   
    42   24   25 1   
    43   24   40 1   
    44   24   41 1   
    45   25   42 1   
    46   25   43 1   
    47   26   44 1   
    48   26   45 1   
@<TRIPOS>SUBSTRUCTURE
     1 UNQ         1 TEMP              0 ****  ****    0 ROOT
