@<TRIPOS>MOLECULE
UNQ
   45    37     1     0     0
SMALL
bcc


@<TRIPOS>ATOM
      1 C01         2.4580   -0.6050    1.5640 c1        1 UNQ     -0.029250
      2 C02         3.6860   -1.7580    3.3030 c1        1 UNQ     -0.029250
      3 C03         2.9590   -1.7860    2.1020 c1        1 UNQ     -0.116750
      4 C04         3.9020   -0.5640    3.9480 c1        1 UNQ     -0.029250
      5 C05         2.6760    0.6000    2.2150 c1        1 UNQ     -0.116750
      6 C06         3.3940    0.6290    3.4040 c1        1 UNQ     -0.116750
      7 O07         4.6060   -0.8280    5.1200 o         1 UNQ     -0.080000
      8 C08         4.2530   -2.7660    4.0690 c1        1 UNQ     -0.243000
      9 C09         4.8200   -2.1830    5.1910 c1        1 UNQ      0.006000
     10 C10         5.6570   -2.8030    6.2890 c1        1 UNQ      0.385000
     11 O11         6.9010   -2.6030    6.3220 o         1 UNQ     -0.527500
     12 O12         5.1090   -3.5130    7.1730 o         1 UNQ     -0.527500
     13 C13         1.8390   -0.5010    0.3190 c1        1 UNQ     -0.029250
     14 C14        -0.0990   -0.3770   -0.9610 c1        1 UNQ      0.032000
     15 N15         0.5010   -0.4230    0.2390 n1        1 UNQ     -0.163000
     16 C16         0.6640   -0.4100   -2.1180 c1        1 UNQ     -0.152000
     17 C17         2.6010   -0.5340   -0.8370 c1        1 UNQ     -0.116750
     18 N18         2.0020   -0.4880   -2.0380 n1        1 UNQ     -0.098000
     19 N19        -1.5240   -0.3280   -1.0460 n3        1 UNQ     -0.245000
     20 C20        -2.1570    0.5900   -1.9470 c3        1 UNQ     -0.015000
     21 C21        -3.0060   -0.1950   -2.9310 c3        1 UNQ     -0.173500
     22 C22        -3.8550    0.7020   -3.8060 c3        1 UNQ     -0.152000
     23 C23        -4.6720    1.6970   -2.9990 c3        1 UNQ     -0.030000
     24 C24        -3.8230    2.4820   -2.0150 c3        1 UNQ     -0.152000
     25 C25        -2.9750    1.5870   -1.1400 c3        1 UNQ     -0.173500
     26 N26        -5.3030    2.6140   -3.8990 n3        1 UNQ     -0.345000
     27 H03         3.2840   -2.4610    1.4750 ha        1 UNQ      0.144500
     28 H05         2.5730    1.5570    2.0450 ha        1 UNQ      0.144500
     29 H06         3.2920    1.3860    4.0110 ha        1 UNQ      0.144500
     30 H08         4.2610   -3.7160    3.8510 DU        1 UNQ      0.167000
     31 H16         0.2280   -0.3770   -2.9910 ha        1 UNQ      0.164000
     32 H17         3.5790   -0.5560   -0.7790 ha        1 UNQ      0.144500
     33 HN19       -2.0310   -0.8830   -0.5280 hn        1 UNQ      0.186000
     34 H20        -1.4680    1.0740   -2.4410 h1        1 UNQ      0.104000
     35 H21        -2.4180   -0.7280   -3.5010 hc        1 UNQ      0.089250
     36 H21A       -3.5950   -0.7980   -2.4300 hc        1 UNQ      0.089250
     37 H22        -3.2700    1.1930   -4.4150 hc        1 UNQ      0.087000
     38 H22A       -4.4640    0.1450   -4.3330 hc        1 UNQ      0.087000
     39 H23        -5.3630    1.2120   -2.5040 h1        1 UNQ      0.047000
     40 H24        -3.2350    3.0840   -2.5140 hc        1 UNQ      0.087000
     41 H24A       -4.4110    3.0150   -1.4450 hc        1 UNQ      0.087000
     42 H25        -2.3670    2.1420   -0.6140 hc        1 UNQ      0.089250
     43 H25A       -3.5610    1.0940   -0.5300 hc        1 UNQ      0.089250
     44 HN26       -5.7820    3.2280   -3.4210 hn        1 UNQ      0.142500
     45 HN2A       -5.8660    2.1550   -4.4570 hn        1 UNQ      0.142500
@<TRIPOS>BOND
     1    1    5 1   
     2    2    3 1   
     3    3   27 1   
     4    4    6 1   
     5    5   28 1   
     6    6   29 1   
     7    7    9 1   
     8    8    9 1   
     9   10   11 1   
    10   10   12 1   
    11   13   17 1   
    12   14   15 1   
    13   14   19 1   
    14   16   18 1   
    15   16   31 1   
    16   17   32 1   
    17   19   20 1   
    18   19   33 1   
    19   20   21 1   
    20   20   25 1   
    21   20   34 1   
    22   21   22 1   
    23   21   35 1   
    24   21   36 1   
    25   22   23 1   
    26   22   37 1   
    27   22   38 1   
    28   23   24 1   
    29   23   26 1   
    30   23   39 1   
    31   24   25 1   
    32   24   40 1   
    33   24   41 1   
    34   25   42 1   
    35   25   43 1   
    36   26   44 1   
    37   26   45 1   
@<TRIPOS>SUBSTRUCTURE
     1 UNQ         1 TEMP              0 ****  ****    0 ROOT
