@<TRIPOS>MOLECULE
UNQ
   47    50     1     0     0
SMALL
bcc


@<TRIPOS>ATOM
      1 C01        -0.8250   -0.0980    0.0050 cp        1 UNQ     -0.219500
      2 C02         0.9630    1.2220    0.9000 ca        1 UNQ     -0.131800
      3 C03         0.4560    0.4520   -0.1400 ca        1 UNQ     -0.036000
      4 C04         0.1670    1.4270    2.0740 ca        1 UNQ      0.111100
      5 C05        -1.5930    0.1250    1.1700 ca        1 UNQ     -0.060000
      6 C06        -1.1090    0.8870    2.2260 ca        1 UNQ     -0.117000
      7 O07         0.8440    2.2180    2.9910 os        1 UNQ     -0.148200
      8 C08         2.2010    1.9430    1.1350 cc        1 UNQ     -0.078200
      9 C09         2.0870    2.5150    2.3810 cd        1 UNQ     -0.004100
     10 C10         2.9810    3.3500    3.1750 c         1 UNQ      0.669300
     11 O11         4.1680    3.6050    2.5530 oh        1 UNQ     -0.597100
     12 O12         2.7990    3.8320    4.2930 o         1 UNQ     -0.494000
     13 C13        -1.3660   -0.9210   -1.0810 cp        1 UNQ      0.422500
     14 C14        -3.0930   -1.6450   -2.4360 ca        1 UNQ      0.335900
     15 N15        -2.6740   -0.8460   -1.4080 nb        1 UNQ     -0.630000
     16 C16        -2.2170   -2.5110   -3.1420 ca        1 UNQ      0.321900
     17 C17        -0.4860   -1.8110   -1.8000 ca        1 UNQ      0.339900
     18 N18        -0.9090   -2.5830   -2.8060 nb        1 UNQ     -0.587000
     19 N19        -4.5200   -1.5840   -2.8020 n4        1 UNQ     -0.743700
     20 C20        -4.7540   -0.7920   -4.0740 c3        1 UNQ      0.127500
     21 C21        -4.7090    0.7160   -3.8130 c3        1 UNQ     -0.096400
     22 C22        -4.8950    1.4610   -5.1180 c3        1 UNQ     -0.102900
     23 C23        -6.2430    1.1040   -5.7650 c3        1 UNQ      0.174500
     24 C24        -6.2850   -0.4200   -5.9980 c3        1 UNQ     -0.102900
     25 C25        -6.0990   -1.1780   -4.7000 c3        1 UNQ     -0.096400
     26 N26        -6.4950    1.9080   -6.9380 n3        1 UNQ     -0.903800
     27 H03         1.0480    0.2950   -1.0540 ha        1 UNQ      0.148000
     28 H05        -2.5970   -0.3190    1.2540 ha        1 UNQ      0.149000
     29 H06        -1.6960    1.0600    3.1390 ha        1 UNQ      0.176000
     30 H08         3.0500    2.0140    0.4560 ha        1 UNQ      0.192000
     31 H16        -2.5430   -3.1600   -3.9750 h4        1 UNQ      0.057100
     32 H17         0.5850   -1.8900   -1.5230 h4        1 UNQ      0.075100
     33 HN19       -5.0630   -1.1510   -2.0410 hn        1 UNQ      0.461800
     34 H20        -3.9180   -1.0750   -4.7830 hx        1 UNQ      0.106700
     35 H21        -3.7240    1.0040   -3.3590 hc        1 UNQ      0.068200
     36 H21A       -5.5200    1.0070   -3.0940 hc        1 UNQ      0.068200
     37 H22        -4.8590    2.5640   -4.9090 hc        1 UNQ      0.070700
     38 H22A       -4.0550    1.2220   -5.8200 hc        1 UNQ      0.070700
     39 H23        -7.0620    1.3560   -5.0230 h1        1 UNQ      0.066700
     40 H24        -5.4890   -0.7160   -6.7300 hc        1 UNQ      0.070700
     41 H24A       -7.2760   -0.7090   -6.4390 hc        1 UNQ      0.070700
     42 H25        -6.9390   -0.9270   -3.9980 hc        1 UNQ      0.068200
     43 H25A       -6.1350   -2.2800   -4.9090 hc        1 UNQ      0.068200
     44 HN26       -7.4040    1.7220   -7.3120 hn        1 UNQ      0.366300
     45 HN2A       -5.8000    1.7670   -7.6420 hn        1 UNQ      0.366300
     46 H192       -4.8510   -2.5460   -2.9380 hn        1 UNQ      0.461800
     47 H263        4.7160    4.1620    3.1340 ho        1 UNQ      0.464000
@<TRIPOS>BOND
     1    1    3 ar  
     2    1    5 ar  
     3    1   13 1   
     4    2    3 ar  
     5    2    4 ar  
     6    2    8 1   
     7    3   27 1   
     8    4    6 ar  
     9    4    7 1   
    10    5    6 ar  
    11    5   28 1   
    12    6   29 1   
    13    7    9 1   
    14    8    9 2   
    15    8   30 1   
    16    9   10 1   
    17   10   11 1   
    18   10   12 2   
    19   11   47 1   
    20   13   15 ar  
    21   13   17 ar  
    22   14   15 ar  
    23   14   16 ar  
    24   14   19 1   
    25   16   18 ar  
    26   16   31 1   
    27   17   18 ar  
    28   17   32 1   
    29   19   20 1   
    30   19   33 1   
    31   19   46 1   
    32   20   21 1   
    33   20   25 1   
    34   20   34 1   
    35   21   22 1   
    36   21   35 1   
    37   21   36 1   
    38   22   23 1   
    39   22   37 1   
    40   22   38 1   
    41   23   24 1   
    42   23   26 1   
    43   23   39 1   
    44   24   25 1   
    45   24   40 1   
    46   24   41 1   
    47   25   42 1   
    48   25   43 1   
    49   26   44 1   
    50   26   45 1   
@<TRIPOS>SUBSTRUCTURE
     1 UNQ         1 TEMP              0 ****  ****    0 ROOT
