@<TRIPOS>MOLECULE
UNQ
   46    49     1     0     0
SMALL
bcc


@<TRIPOS>ATOM
      1 C01        -0.4350   -1.7090   -0.9160 cp        1 UNQ     -0.190500
      2 C02         0.2870    0.5560   -1.2010 ca        1 UNQ     -0.103800
      3 C03         0.0790   -0.7000   -1.7510 ca        1 UNQ     -0.055000
      4 C04         0.0760    0.7430    0.2030 ca        1 UNQ      0.059100
      5 C05        -0.4610   -1.5520    0.4820 ca        1 UNQ     -0.101000
      6 C06        -0.1870   -0.3160    1.0690 ca        1 UNQ     -0.125000
      7 O07         0.0160    2.1060    0.4960 os        1 UNQ     -0.176200
      8 C08         0.3730    1.8870   -1.7690 cc        1 UNQ     -0.235200
      9 C09         0.1310    2.7720   -0.7400 cd        1 UNQ      0.015900
     10 C10        -0.2430    4.2350   -0.7710 c         1 UNQ      0.959800
     11 O11         0.4490    5.0910   -0.1940 o         1 UNQ     -0.813800
     12 O12        -1.3050    4.4980   -1.4370 o         1 UNQ     -0.813800
     13 C13        -1.3680   -2.6450   -1.5810 cp        1 UNQ      0.405500
     14 C14        -3.3450   -2.5950   -2.8530 ca        1 UNQ      0.488900
     15 N15        -2.3820   -1.9440   -2.1500 nb        1 UNQ     -0.717000
     16 C16        -3.2970   -4.0330   -2.9240 ca        1 UNQ      0.264900
     17 C17        -1.3440   -4.0580   -1.6750 ca        1 UNQ      0.270900
     18 N18        -2.3120   -4.7320   -2.3380 nb        1 UNQ     -0.613000
     19 N19        -4.3000   -1.8140   -3.5680 nu        1 UNQ     -0.787900
     20 C20        -4.1700   -0.3760   -3.3540 c3        1 UNQ      0.173500
     21 C21        -4.7920    0.5250   -4.4260 c3        1 UNQ     -0.085400
     22 C22        -4.1560    1.9010   -4.2810 c3        1 UNQ     -0.097400
     23 C23        -4.3050    2.4900   -2.8680 c3        1 UNQ      0.129500
     24 C24        -4.0310    1.4890   -1.7370 c3        1 UNQ     -0.097400
     25 C25        -4.6840    0.1520   -2.0030 c3        1 UNQ     -0.085400
     26 N26        -3.4130    3.6810   -2.6940 nz        1 UNQ     -0.852600
     27 H03         0.1910   -0.8670   -2.8310 ha        1 UNQ      0.139000
     28 H05        -0.7710   -2.3950    1.1160 ha        1 UNQ      0.136000
     29 H06        -0.2410   -0.1690    2.1540 ha        1 UNQ      0.153000
     30 H08         0.5670    2.1220   -2.8100 ha        1 UNQ      0.159000
     31 H16        -4.0610   -4.6100   -3.4680 h4        1 UNQ      0.036100
     32 H17        -0.5410   -4.6590   -1.2200 h4        1 UNQ      0.044100
     33 HN19       -5.2320   -2.1550   -3.4410 hn        1 UNQ      0.392800
     34 H20        -3.0540   -0.1560   -3.4100 h1        1 UNQ      0.094700
     35 H21        -4.5760    0.1340   -5.4540 hc        1 UNQ      0.062450
     36 H21A       -5.9030    0.5870   -4.3090 hc        1 UNQ      0.062450
     37 H22        -3.0670    1.8180   -4.5480 hc        1 UNQ      0.070950
     38 H22A       -4.6340    2.6010   -5.0170 hc        1 UNQ      0.070950
     39 H23        -5.3700    2.8610   -2.7610 hx        1 UNQ      0.080700
     40 H24        -2.9230    1.3270   -1.6130 hc        1 UNQ      0.070950
     41 H24A       -4.4180    1.9120   -0.7720 hc        1 UNQ      0.070950
     42 H25        -4.4220   -0.5440   -1.1640 hc        1 UNQ      0.062450
     43 H25A       -5.8000    0.2510   -2.0220 hc        1 UNQ      0.062450
     44 HN26       -3.4720    4.3060   -3.4940 hn        1 UNQ      0.472133
     45 HN2A       -3.6490    4.2000   -1.8400 hn        1 UNQ      0.472133
     46 H263       -2.4040    3.4050   -2.5560 hn        1 UNQ      0.472133
@<TRIPOS>BOND
     1    1    3 ar  
     2    1    5 ar  
     3    1   13 1   
     4    2    3 ar  
     5    2    4 ar  
     6    2    8 1   
     7    3   27 1   
     8    4    6 ar  
     9    4    7 1   
    10    5    6 ar  
    11    5   28 1   
    12    6   29 1   
    13    7    9 1   
    14    8    9 2   
    15    8   30 1   
    16    9   10 1   
    17   10   11 1   
    18   10   12 1   
    19   13   15 ar  
    20   13   17 ar  
    21   14   15 ar  
    22   14   16 ar  
    23   14   19 1   
    24   16   18 ar  
    25   16   31 1   
    26   17   18 ar  
    27   17   32 1   
    28   19   20 1   
    29   19   33 1   
    30   20   21 1   
    31   20   25 1   
    32   20   34 1   
    33   21   22 1   
    34   21   35 1   
    35   21   36 1   
    36   22   23 1   
    37   22   37 1   
    38   22   38 1   
    39   23   24 1   
    40   23   26 1   
    41   23   39 1   
    42   24   25 1   
    43   24   40 1   
    44   24   41 1   
    45   25   42 1   
    46   25   43 1   
    47   26   44 1   
    48   26   45 1   
    49   26   46 1   
@<TRIPOS>SUBSTRUCTURE
     1 UNQ         1 TEMP              0 ****  ****    0 ROOT
