@<TRIPOS>MOLECULE
UNR
   28    28     1     0     0
SMALL
bcc


@<TRIPOS>ATOM
      1 C1          1.0240    0.3750   -0.3220 c2        1 UNR     -1.229000
      2 P1          2.9860   -0.7710   -0.2910 p3        1 UNR      2.581000
      3 O2          1.5160    0.8620   -1.5420 oh        1 UNR     -0.277000
      4 C3          0.3590   -0.9460   -0.4400 c3        1 UNR     -0.122000
      5 P4          0.3970    1.5830    0.5640 p5        1 UNR      2.100000
      6 O5         -1.2300    0.9810    0.8130 os        1 UNR     -0.734000
      7 O6          0.7640    1.8660    1.9720 o         1 UNR     -0.910500
      8 O7          0.0680    2.7640   -0.2970 o         1 UNR     -0.910500
      9 O8          2.7650   -1.6740    0.8820 o         1 UNR     -1.222000
     10 O9          2.9510   -1.4950   -1.6020 o         1 UNR     -1.222000
     11 O10         4.0520    0.2610   -0.1370 o         1 UNR     -1.222000
     12 C17        -1.8830   -2.0510   -0.8140 c2        1 UNR     -0.253000
     13 C18        -3.9150   -0.7870   -0.4290 c2        1 UNR     -0.094000
     14 C23        -1.7480    0.4160   -0.3360 c3        1 UNR      0.204000
     15 C25        -3.3180   -1.9640   -0.7540 c2        1 UNR     -0.216000
     16 N26        -3.2440    0.4320   -0.3320 n3        1 UNR     -0.244000
     17 C27        -1.1290   -0.9570   -0.5660 c2        1 UNR     -0.038000
     18 HO2         0.7890    1.3520   -1.9610 ho        1 UNR      0.128000
     19 H3          0.7820   -1.4890   -1.3400 hc        1 UNR      0.132500
     20 H3A         0.6310   -1.5840    0.4580 hc        1 UNR      0.132500
     21 H17        -1.4280   -3.0270   -1.0210 ha        1 UNR      0.101000
     22 H18        -5.0100   -0.7240   -0.2930 h4        1 UNR      0.069000
     23 H22        -4.8690    1.6390    0.2220 h1        1 UNR      0.053000
     24 H22A       -3.8950    1.0230    1.6290 h1        1 UNR      0.053000
     25 H22B       -3.1910    2.3140    0.5620 h1        1 UNR      0.053000
     26 H23        -1.4720    1.0710   -1.2300 h2        1 UNR      0.092000
     27 H25        -3.9170   -2.8610   -0.9480 ha        1 UNR      0.071000
     28 C22        -3.8280    1.3910    0.5700 c3        1 UNR     -0.076000
@<TRIPOS>BOND
     1    1    3 1   
     2    1    4 1   
     3    1    5 1   
     4    2    9 1   
     5    2   10 1   
     6    2   11 1   
     7    3   18 1   
     8    4   17 1   
     9    4   19 1   
    10    4   20 1   
    11    5    6 1   
    12    5    7 1   
    13    5    8 1   
    14    6   14 1   
    15   12   15 1   
    16   12   17 1   
    17   12   21 1   
    18   13   15 1   
    19   13   16 1   
    20   13   22 1   
    21   14   16 1   
    22   14   17 1   
    23   14   26 1   
    24   15   27 1   
    25   16   28 1   
    26   23   28 1   
    27   24   28 1   
    28   25   28 1   
@<TRIPOS>SUBSTRUCTURE
     1 UNR         1 TEMP              0 ****  ****    0 ROOT
