@<TRIPOS>MOLECULE
UNT
   54    57     1     0     0
SMALL
bcc


@<TRIPOS>ATOM
      1 O1          0.1130   -2.1440    0.1740 o         1 UNT     -0.807300
      2 C2          0.5650   -0.9680    0.1180 c         1 UNT      0.923600
      3 O3          0.3190   -0.1170   -0.7660 o         1 UNT     -0.807300
      4 C4          1.5470   -0.6160    1.3060 c3        1 UNT     -0.062000
      5 N5          2.1930    0.7160    1.1900 na        1 UNT      0.315900
      6 N6          3.3920    0.8790    0.6050 nc        1 UNT     -0.501800
      7 C7          3.5870    2.2250    0.5340 cd        1 UNT      0.158900
      8 C8          2.4180    2.8580    1.1040 cd        1 UNT      0.158900
      9 N9          1.5690    1.8630    1.4900 nc        1 UNT     -0.501800
     10 C10         0.7840   -0.7900    2.6200 c3        1 UNT     -0.051100
     11 C11         1.6710   -0.8300    3.8120 ca        1 UNT     -0.052300
     12 C12         2.4690   -1.9550    4.0600 ca        1 UNT     -0.126500
     13 C13         3.2970   -2.0040    5.1770 ca        1 UNT     -0.132000
     14 C14         3.3450   -0.9290    6.0720 ca        1 UNT     -0.108300
     15 C15         2.5450    0.1930    5.8300 ca        1 UNT     -0.132000
     16 C16         1.7180    0.2430    4.7110 ca        1 UNT     -0.126500
     17 C17         4.2340   -0.9770    7.2640 c3        1 UNT     -0.026100
     18 C18         5.3960   -0.0110    7.1300 c3        1 UNT     -0.079400
     19 C19         6.3790   -0.1840    8.2720 c3        1 UNT     -0.103700
     20 C20         7.5440    0.7210    8.1390 cc        1 UNT      0.245300
     21 N21         7.9480    1.6180    9.1460 nc        1 UNT     -0.658000
     22 C22         9.0340    2.2410    8.6770 cd        1 UNT      0.531900
     23 O23         9.3820    1.7940    7.3840 os        1 UNT     -0.384800
     24 C24         8.4220    0.8280    7.0600 cd        1 UNT      0.171700
     25 C25         8.5370    0.1950    5.7470 c3        1 UNT     -0.130400
     26 C26         9.8750    3.2660    9.2680 ca        1 UNT     -0.122500
     27 C27        10.9690    3.7800    8.5560 ca        1 UNT     -0.094500
     28 C28        11.7710    4.7640    9.1300 ca        1 UNT     -0.140000
     29 C29        11.4890    5.2400   10.4110 ca        1 UNT     -0.119000
     30 C30        10.4010    4.7300   11.1200 ca        1 UNT     -0.140000
     31 C31         9.5920    3.7460   10.5550 ca        1 UNT     -0.094500
     32 H4          2.3800   -1.3760    1.2660 h1        1 UNT      0.070700
     33 H7          4.4780    2.6800    0.1130 h4        1 UNT      0.028600
     34 H8          2.1960    3.9140    1.2220 h4        1 UNT      0.028600
     35 H10         0.2370   -1.7720    2.5210 hc        1 UNT      0.081700
     36 H10A        0.0090    0.0130    2.7320 hc        1 UNT      0.081700
     37 H12         2.4390   -2.8010    3.3560 ha        1 UNT      0.141000
     38 H13         3.9200   -2.8930    5.3560 ha        1 UNT      0.117500
     39 H15         2.5770    1.0430    6.5270 ha        1 UNT      0.117500
     40 H16         1.1030    1.1360    4.5190 ha        1 UNT      0.141000
     41 H17         4.6300   -2.0180    7.4060 hc        1 UNT      0.038700
     42 H17A        3.6430   -0.7190    8.1840 hc        1 UNT      0.038700
     43 H18         5.9200   -0.1840    6.1530 hc        1 UNT      0.051200
     44 H18A        5.0080    1.0410    7.1150 hc        1 UNT      0.051200
     45 H19         5.8520   -0.0060    9.2480 hc        1 UNT      0.055700
     46 H19A        6.7560   -1.2440    8.2850 hc        1 UNT      0.055700
     47 H25         7.8690    0.7130    5.0120 hc        1 UNT      0.065033
     48 H25A        8.2230   -0.8770    5.8180 hc        1 UNT      0.065033
     49 H25B        9.5890    0.2470    5.3700 hc        1 UNT      0.065033
     50 H27        11.1870    3.4040    7.5450 ha        1 UNT      0.153000
     51 H28        12.6270    5.1660    8.5690 ha        1 UNT      0.133000
     52 H29        12.1230    6.0180   10.8610 ha        1 UNT      0.129000
     53 H30        10.1770    5.1060   12.1290 ha        1 UNT      0.133000
     54 H31         8.7330    3.3470   11.1170 ha        1 UNT      0.153000
@<TRIPOS>BOND
     1    1    2 1   
     2    2    3 1   
     3    2    4 1   
     4    4    5 1   
     5    4   10 1   
     6    4   32 1   
     7    5    6 1   
     8    5    9 1   
     9    6    7 2   
    10    7    8 1   
    11    7   33 1   
    12    8    9 2   
    13    8   34 1   
    14   10   11 1   
    15   10   35 1   
    16   10   36 1   
    17   11   12 ar  
    18   11   16 ar  
    19   12   13 ar  
    20   12   37 1   
    21   13   14 ar  
    22   13   38 1   
    23   14   15 ar  
    24   14   17 1   
    25   15   16 ar  
    26   15   39 1   
    27   16   40 1   
    28   17   18 1   
    29   17   41 1   
    30   17   42 1   
    31   18   19 1   
    32   18   43 1   
    33   18   44 1   
    34   19   20 1   
    35   19   45 1   
    36   19   46 1   
    37   20   21 1   
    38   20   24 2   
    39   21   22 2   
    40   22   23 1   
    41   22   26 1   
    42   23   24 1   
    43   24   25 1   
    44   25   47 1   
    45   25   48 1   
    46   25   49 1   
    47   26   27 ar  
    48   26   31 ar  
    49   27   28 ar  
    50   27   50 1   
    51   28   29 ar  
    52   28   51 1   
    53   29   30 ar  
    54   29   52 1   
    55   30   31 ar  
    56   30   53 1   
    57   31   54 1   
@<TRIPOS>SUBSTRUCTURE
     1 UNT         1 TEMP              0 ****  ****    0 ROOT
