@<TRIPOS>MOLECULE
UNT
   54    57     1     0     0
SMALL
bcc


@<TRIPOS>ATOM
      1 O1          7.6970   -1.2040    0.9210 o         1 UNT     -0.807300
      2 C2          7.1250   -0.0800    0.8930 c         1 UNT      0.923600
      3 O3          7.6690    1.0360    1.0450 o         1 UNT     -0.807300
      4 C4          5.5650   -0.1770    0.6570 c3        1 UNT     -0.062000
      5 N5          4.8510    1.1220    0.7500 na        1 UNT      0.315900
      6 N6          4.3040    1.5550    1.8990 nc        1 UNT     -0.501800
      7 C7          3.8900    2.8290    1.6530 cd        1 UNT      0.158900
      8 C8          4.2390    3.1350    0.2820 cd        1 UNT      0.158900
      9 N9          4.8500    2.0320   -0.2340 nc        1 UNT     -0.501800
     10 C10         5.3300   -0.8850   -0.6790 c3        1 UNT     -0.051100
     11 C11         3.9280   -1.3480   -0.8580 ca        1 UNT     -0.052300
     12 C12         3.4490   -2.4430   -0.1270 ca        1 UNT     -0.126500
     13 C13         2.1400   -2.8870   -0.2930 ca        1 UNT     -0.132000
     14 C14         1.2830   -2.2470   -1.1960 ca        1 UNT     -0.108300
     15 C15         1.7620   -1.1570   -1.9310 ca        1 UNT     -0.132000
     16 C16         3.0710   -0.7110   -1.7630 ca        1 UNT     -0.126500
     17 C17        -0.1170   -2.7170   -1.3710 c3        1 UNT     -0.026100
     18 C18        -1.1130   -1.7240   -0.8000 c3        1 UNT     -0.079400
     19 C19        -2.5210   -2.2860   -0.8400 c3        1 UNT     -0.103700
     20 C20        -3.5040   -1.3490   -0.2490 cc        1 UNT      0.245300
     21 N21        -4.6520   -0.9000   -0.9280 nc        1 UNT     -0.658000
     22 C22        -5.2980   -0.0950   -0.0780 cd        1 UNT      0.531900
     23 O23        -4.6250    0.0160    1.1580 os        1 UNT     -0.384800
     24 C24        -3.4880   -0.7880    1.0290 cd        1 UNT      0.171700
     25 C25        -2.5880   -0.8520    2.1800 c3        1 UNT     -0.130400
     26 C26        -6.5330    0.6540   -0.2260 ca        1 UNT     -0.122500
     27 C27        -7.0050    1.4540    0.8260 ca        1 UNT     -0.094500
     28 C28        -8.1900    2.1700    0.6760 ca        1 UNT     -0.140000
     29 C29        -8.9100    2.0940   -0.5170 ca        1 UNT     -0.119000
     30 C30        -8.4430    1.2990   -1.5630 ca        1 UNT     -0.140000
     31 C31        -7.2580    0.5780   -1.4240 ca        1 UNT     -0.094500
     32 H4          5.1560   -0.8230    1.4880 h1        1 UNT      0.070700
     33 H7          3.3970    3.4520    2.3920 h4        1 UNT      0.028600
     34 H8          4.0790    4.0490   -0.2800 h4        1 UNT      0.028600
     35 H10         5.6390   -0.2260   -1.5310 hc        1 UNT      0.081700
     36 H10A        6.0250   -1.7740   -0.6730 hc        1 UNT      0.081700
     37 H12         4.1180   -2.9470    0.5880 ha        1 UNT      0.141000
     38 H13         1.7780   -3.7460    0.2900 ha        1 UNT      0.117500
     39 H15         1.0950   -0.6460   -2.6410 ha        1 UNT      0.117500
     40 H16         3.4340    0.1570   -2.3340 ha        1 UNT      0.141000
     41 H17        -0.3290   -2.8660   -2.4650 hc        1 UNT      0.038700
     42 H17A       -0.2540   -3.7120   -0.8690 hc        1 UNT      0.038700
     43 H18        -0.8350   -1.4780    0.2590 hc        1 UNT      0.051200
     44 H18A       -1.0650   -0.7680   -1.3860 hc        1 UNT      0.051200
     45 H19        -2.7970   -2.5280   -1.9010 hc        1 UNT      0.055700
     46 H19A       -2.5570   -3.2480   -0.2580 hc        1 UNT      0.055700
     47 H25        -1.7510   -0.1180    2.0520 hc        1 UNT      0.065033
     48 H25A       -3.1330   -0.6090    3.1260 hc        1 UNT      0.065033
     49 H25B       -2.1510   -1.8790    2.2590 hc        1 UNT      0.065033
     50 H27        -6.4320    1.5140    1.7640 ha        1 UNT      0.153000
     51 H28        -8.5560    2.7980    1.5010 ha        1 UNT      0.133000
     52 H29        -9.8450    2.6610   -0.6320 ha        1 UNT      0.129000
     53 H30        -9.0080    1.2400   -2.5040 ha        1 UNT      0.133000
     54 H31        -6.8900   -0.0460   -2.2540 ha        1 UNT      0.153000
@<TRIPOS>BOND
     1    1    2 1   
     2    2    3 1   
     3    2    4 1   
     4    4    5 1   
     5    4   10 1   
     6    4   32 1   
     7    5    6 1   
     8    5    9 1   
     9    6    7 2   
    10    7    8 1   
    11    7   33 1   
    12    8    9 2   
    13    8   34 1   
    14   10   11 1   
    15   10   35 1   
    16   10   36 1   
    17   11   12 ar  
    18   11   16 ar  
    19   12   13 ar  
    20   12   37 1   
    21   13   14 ar  
    22   13   38 1   
    23   14   15 ar  
    24   14   17 1   
    25   15   16 ar  
    26   15   39 1   
    27   16   40 1   
    28   17   18 1   
    29   17   41 1   
    30   17   42 1   
    31   18   19 1   
    32   18   43 1   
    33   18   44 1   
    34   19   20 1   
    35   19   45 1   
    36   19   46 1   
    37   20   21 1   
    38   20   24 2   
    39   21   22 2   
    40   22   23 1   
    41   22   26 1   
    42   23   24 1   
    43   24   25 1   
    44   25   47 1   
    45   25   48 1   
    46   25   49 1   
    47   26   27 ar  
    48   26   31 ar  
    49   27   28 ar  
    50   27   50 1   
    51   28   29 ar  
    52   28   51 1   
    53   29   30 ar  
    54   29   52 1   
    55   30   31 ar  
    56   30   53 1   
    57   31   54 1   
@<TRIPOS>SUBSTRUCTURE
     1 UNT         1 TEMP              0 ****  ****    0 ROOT
