@<TRIPOS>MOLECULE
UNT
   54    57     1     0     0
SMALL
bcc


@<TRIPOS>ATOM
      1 O1          0.1480   -2.2000    0.1740 o         1 UNT     -0.807300
      2 C2          0.5870   -1.0190    0.1180 c         1 UNT      0.923600
      3 O3          0.3310   -0.1700   -0.7650 o         1 UNT     -0.807300
      4 C4          1.5640   -0.6560    1.3070 c3        1 UNT     -0.062000
      5 N5          2.1950    0.6820    1.1920 na        1 UNT      0.315900
      6 N6          3.3920    0.8590    0.6070 nc        1 UNT     -0.501800
      7 C7          3.5730    2.2080    0.5370 cd        1 UNT      0.158900
      8 C8          2.3960    2.8270    1.1070 cd        1 UNT      0.158900
      9 N9          1.5580    1.8230    1.4920 nc        1 UNT     -0.501800
     10 C10         0.8020   -0.8400    2.6200 c3        1 UNT     -0.051100
     11 C11         1.6890   -0.8690    3.8130 ca        1 UNT     -0.052300
     12 C12         2.4980   -1.9860    4.0620 ca        1 UNT     -0.126500
     13 C13         3.3270   -2.0250    5.1800 ca        1 UNT     -0.132000
     14 C14         3.3630   -0.9490    6.0740 ca        1 UNT     -0.108300
     15 C15         2.5510    0.1640    5.8300 ca        1 UNT     -0.132000
     16 C16         1.7240    0.2050    4.7110 ca        1 UNT     -0.126500
     17 C17         4.2510   -0.9870    7.2670 c3        1 UNT     -0.026100
     18 C18         5.4050   -0.0100    7.1310 c3        1 UNT     -0.079400
     19 C19         6.3880   -0.1720    8.2750 c3        1 UNT     -0.103700
     20 C20         7.5450    0.7430    8.1400 cc        1 UNT      0.246300
     21 N21         7.9400    1.6470    9.1440 nc        1 UNT     -0.658000
     22 C22         9.0210    2.2780    8.6750 cd        1 UNT      0.531900
     23 O23         9.3740    1.8310    7.3830 os        1 UNT     -0.384800
     24 C24         8.4240    0.8560    7.0610 cd        1 UNT      0.171700
     25 C25         8.5450    0.2190    5.7510 c3        1 UNT     -0.130400
     26 C26         9.8520    3.3120    9.2640 ca        1 UNT     -0.122500
     27 C27        10.9430    3.8340    8.5520 ca        1 UNT     -0.094500
     28 C28        11.7350    4.8260    9.1240 ca        1 UNT     -0.140000
     29 C29        11.4470    5.3030   10.4030 ca        1 UNT     -0.119000
     30 C30        10.3630    4.7870   11.1120 ca        1 UNT     -0.140000
     31 C31         9.5630    3.7930   10.5500 ca        1 UNT     -0.094500
     32 H4          2.4060   -1.4080    1.2670 h1        1 UNT      0.070700
     33 H7          4.4580    2.6720    0.1160 h4        1 UNT      0.028600
     34 H8          2.1630    3.8800    1.2260 h4        1 UNT      0.028600
     35 H10         0.2670   -1.8280    2.5210 hc        1 UNT      0.081700
     36 H10A        0.0180   -0.0450    2.7320 hc        1 UNT      0.081700
     37 H12         2.4780   -2.8320    3.3580 ha        1 UNT      0.141000
     38 H13         3.9590   -2.9070    5.3590 ha        1 UNT      0.117500
     39 H15         2.5740    1.0150    6.5270 ha        1 UNT      0.117500
     40 H16         1.0990    1.0910    4.5190 ha        1 UNT      0.141000
     41 H17         3.6570   -0.7330    8.1860 hc        1 UNT      0.038700
     42 H17A        4.6570   -2.0240    7.4110 hc        1 UNT      0.038700
     43 H18         5.9310   -0.1810    6.1550 hc        1 UNT      0.051700
     44 H18A        5.0070    1.0380    7.1140 hc        1 UNT      0.051700
     45 H19         5.8590    0.0040    9.2500 hc        1 UNT      0.055700
     46 H19A        6.7750   -1.2280    8.2900 hc        1 UNT      0.055700
     47 H25         8.2410   -0.8550    5.8240 hc        1 UNT      0.065033
     48 H25A        7.8730    0.7300    5.0130 hc        1 UNT      0.065033
     49 H25B        9.5970    0.2800    5.3750 hc        1 UNT      0.065033
     50 H27        11.1650    3.4560    7.5420 ha        1 UNT      0.153000
     51 H28        12.5880    5.2340    8.5630 ha        1 UNT      0.133000
     52 H29        12.0750    6.0880   10.8510 ha        1 UNT      0.129000
     53 H30        10.1350    5.1630   12.1200 ha        1 UNT      0.133000
     54 H31         8.7070    3.3890   11.1110 ha        1 UNT      0.153000
@<TRIPOS>BOND
     1    1    2 1   
     2    2    3 1   
     3    2    4 1   
     4    4    5 1   
     5    4   10 1   
     6    4   32 1   
     7    5    6 1   
     8    5    9 1   
     9    6    7 2   
    10    7    8 1   
    11    7   33 1   
    12    8    9 2   
    13    8   34 1   
    14   10   11 1   
    15   10   35 1   
    16   10   36 1   
    17   11   12 ar  
    18   11   16 ar  
    19   12   13 ar  
    20   12   37 1   
    21   13   14 ar  
    22   13   38 1   
    23   14   15 ar  
    24   14   17 1   
    25   15   16 ar  
    26   15   39 1   
    27   16   40 1   
    28   17   18 1   
    29   17   41 1   
    30   17   42 1   
    31   18   19 1   
    32   18   43 1   
    33   18   44 1   
    34   19   20 1   
    35   19   45 1   
    36   19   46 1   
    37   20   21 1   
    38   20   24 2   
    39   21   22 2   
    40   22   23 1   
    41   22   26 1   
    42   23   24 1   
    43   24   25 1   
    44   25   47 1   
    45   25   48 1   
    46   25   49 1   
    47   26   27 ar  
    48   26   31 ar  
    49   27   28 ar  
    50   27   50 1   
    51   28   29 ar  
    52   28   51 1   
    53   29   30 ar  
    54   29   52 1   
    55   30   31 ar  
    56   30   53 1   
    57   31   54 1   
@<TRIPOS>SUBSTRUCTURE
     1 UNT         1 TEMP              0 ****  ****    0 ROOT
