@<TRIPOS>MOLECULE
UNU
   17    17     1     0     0
SMALL
bcc


@<TRIPOS>ATOM
      1 O08        -0.0670   -0.0000    0.0420 o         1 UNU     -0.416100
      2 C07         1.1490   -0.0010   -0.0860 c         1 UNU      0.577700
      3 N09         1.8910    0.0030    1.2460 nz        1 UNU     -0.763400
      4 C06         1.9580   -0.0050   -1.2950 ca        1 UNU     -0.211600
      5 C01         1.2550   -0.0120   -2.5160 ca        1 UNU     -0.060000
      6 C05         3.3650   -0.0030   -1.2990 ca        1 UNU     -0.060000
      7 C04         4.0510   -0.0080   -2.5070 ca        1 UNU     -0.123500
      8 C03         3.3500   -0.0140   -3.7200 ca        1 UNU     -0.039000
      9 C02         1.9560   -0.0170   -3.7200 ca        1 UNU     -0.123500
     10 H091        2.4800    0.8370    1.3130 hn        1 UNU      0.467800
     11 H092        2.4810   -0.8290    1.3170 hn        1 UNU      0.467800
     12 H01         0.1510   -0.0140   -2.5140 ha        1 UNU      0.149500
     13 H05         3.9510    0.0020   -0.3690 ha        1 UNU      0.149500
     14 H04         5.1540   -0.0060   -2.5120 ha        1 UNU      0.172500
     15 H03         3.9050   -0.0180   -4.6740 ha        1 UNU      0.173000
     16 H02         1.4010   -0.0220   -4.6740 ha        1 UNU      0.172500
     17 H093        1.2130    0.0050    2.0190 hn        1 UNU      0.467800
@<TRIPOS>BOND
     1    1    2 2   
     2    2    3 1   
     3    2    4 1   
     4    3   10 1   
     5    3   11 1   
     6    3   17 1   
     7    4    5 ar  
     8    4    6 ar  
     9    5    9 ar  
    10    5   12 1   
    11    6    7 ar  
    12    6   13 1   
    13    7    8 ar  
    14    7   14 1   
    15    8    9 ar  
    16    8   15 1   
    17    9   16 1   
@<TRIPOS>SUBSTRUCTURE
     1 UNU         1 TEMP              0 ****  ****    0 ROOT
