@<TRIPOS>MOLECULE
UNU
   16    13     1     0     0
SMALL
bcc


@<TRIPOS>ATOM
      1 O08        -2.3700   -0.0010    1.5740 o         1 UNU     -0.371000
      2 C07        -1.1550   -0.0010    1.5740 c1        1 UNU      0.344000
      3 N09        -0.4460   -0.0010    2.8030 n2        1 UNU     -0.435000
      4 C06        -0.3990   -0.0010    0.2630 c2        1 UNU     -0.121000
      5 C01        -0.1550    1.1940   -0.3960 c2        1 UNU     -0.105000
      6 C05         0.0510   -1.1950   -0.2780 c1        1 UNU     -0.077000
      7 C04         0.7440   -1.1950   -1.4780 c1        1 UNU     -0.123500
      8 C03         0.9870   -0.0000   -2.1370 c1        1 UNU     -0.123500
      9 C02         0.5380    1.1940   -1.5960 c1        1 UNU     -0.139000
     10 H091       -0.4750   -0.7320    3.3460 hn        1 UNU      0.226000
     11 H092        0.0260    0.7370    3.0570 hn        1 UNU      0.226000
     12 H01        -0.4710    2.0350   -0.0150 ha        1 UNU      0.133000
     13 H05        -0.1210   -2.0360    0.1870 ha        1 UNU      0.156000
     14 H04         1.0600   -2.0360   -1.8590 ha        1 UNU      0.136500
     15 H03         1.4750    0.0000   -2.9830 ha        1 UNU      0.136500
     16 H02         0.7100    2.0360   -2.0610 ha        1 UNU      0.136000
@<TRIPOS>BOND
     1    1    2 1   
     2    2    4 1   
     3    3   10 1   
     4    3   11 1   
     5    4    5 1   
     6    4    6 1   
     7    5    9 1   
     8    5   12 1   
     9    6   13 1   
    10    7    8 1   
    11    7   14 1   
    12    8   15 1   
    13    9   16 1   
@<TRIPOS>SUBSTRUCTURE
     1 UNU         1 TEMP              0 ****  ****    0 ROOT
