@<TRIPOS>MOLECULE
UNU
   16    16     1     0     0
SMALL
bcc


@<TRIPOS>ATOM
      1 O08         2.2520   -1.0100    0.7660 o         1 UNU     -0.610100
      2 C07         1.6710   -0.0410    0.2350 c         1 UNU      0.670700
      3 N09         2.4090    0.9980   -0.2790 n         1 UNU     -0.675000
      4 C06         0.1860    0.0250    0.1270 ca        1 UNU     -0.141600
      5 C01        -0.5130   -1.1730   -0.0640 ca        1 UNU     -0.091000
      6 C05        -0.5130    1.2310    0.2360 ca        1 UNU     -0.091000
      7 C04        -1.9040    1.2370    0.1410 ca        1 UNU     -0.138500
      8 C03        -2.5990    0.0450   -0.0640 ca        1 UNU     -0.109000
      9 C02        -1.9030   -1.1590   -0.1640 ca        1 UNU     -0.138500
     10 H091        3.3970    0.9570   -0.2410 hn        1 UNU      0.312500
     11 H092        1.9780    1.7410   -0.7630 hn        1 UNU      0.312500
     12 H01         0.0470   -2.1210   -0.1220 ha        1 UNU      0.144500
     13 H05         0.0200    2.1760    0.4150 ha        1 UNU      0.144500
     14 H04        -2.4540    2.1860    0.2300 ha        1 UNU      0.137000
     15 H03        -3.6960    0.0550   -0.1420 ha        1 UNU      0.135000
     16 H02        -2.4500   -2.1020   -0.3170 ha        1 UNU      0.137000
@<TRIPOS>BOND
     1    1    2 2   
     2    2    3 1   
     3    2    4 1   
     4    3   10 1   
     5    3   11 1   
     6    4    5 ar  
     7    4    6 ar  
     8    5    9 ar  
     9    5   12 1   
    10    6    7 ar  
    11    6   13 1   
    12    7    8 ar  
    13    7   14 1   
    14    8    9 ar  
    15    8   15 1   
    16    9   16 1   
@<TRIPOS>SUBSTRUCTURE
     1 UNU         1 TEMP              0 ****  ****    0 ROOT
