@<TRIPOS>MOLECULE
UNU
   17    17     1     0     0
SMALL
bcc


@<TRIPOS>ATOM
      1 O08        -0.0660   -0.0050    0.0430 o         1 UNU     -0.416100
      2 C07         1.1500   -0.0030   -0.0860 c         1 UNU      0.577700
      3 N09         1.8910    0.0040    1.2460 n4        1 UNU     -0.763400
      4 C06         1.9580   -0.0060   -1.2950 ca        1 UNU     -0.211600
      5 C01         1.2550   -0.0120   -2.5150 ca        1 UNU     -0.060000
      6 C05         3.3650   -0.0040   -1.3000 ca        1 UNU     -0.060000
      7 C04         4.0510   -0.0070   -2.5080 ca        1 UNU     -0.123500
      8 C03         3.3490   -0.0130   -3.7200 ca        1 UNU     -0.039000
      9 C02         1.9550   -0.0160   -3.7200 ca        1 UNU     -0.123500
     10 H091        2.4800    0.8380    1.3120 hn        1 UNU      0.467800
     11 H092        2.4830   -0.8280    1.3180 hn        1 UNU      0.467800
     12 H01         0.1500   -0.0150   -2.5130 ha        1 UNU      0.149500
     13 H05         3.9520    0.0010   -0.3690 ha        1 UNU      0.149500
     14 H04         5.1540   -0.0050   -2.5130 ha        1 UNU      0.172500
     15 H03         3.9040   -0.0150   -4.6750 ha        1 UNU      0.173000
     16 H02         1.4000   -0.0200   -4.6730 ha        1 UNU      0.172500
     17 H093        1.2140    0.0050    2.0190 hn        1 UNU      0.467800
@<TRIPOS>BOND
     1    1    2 2   
     2    2    3 1   
     3    2    4 1   
     4    3   10 1   
     5    3   11 1   
     6    3   17 1   
     7    4    5 ar  
     8    4    6 ar  
     9    5    9 ar  
    10    5   12 1   
    11    6    7 ar  
    12    6   13 1   
    13    7    8 ar  
    14    7   14 1   
    15    8    9 ar  
    16    8   15 1   
    17    9   16 1   
@<TRIPOS>SUBSTRUCTURE
     1 UNU         1 TEMP              0 ****  ****    0 ROOT
