@<TRIPOS>MOLECULE
UNV
   24    25     1     0     0
SMALL
bcc


@<TRIPOS>ATOM
      1 N1         -2.8780   -0.5670   -1.4390 nb        1 UNV     -0.752000
      2 C2         -2.9320   -0.5900    1.4090 ca        1 UNV     -0.194000
      3 C3         -1.7480   -0.3730    0.7370 ca        1 UNV     -0.050600
      4 C4         -4.1110   -0.7990    0.6560 ca        1 UNV     -0.314300
      5 C5         -4.0270   -0.7730   -0.7310 ca        1 UNV      0.319200
      6 C6         -1.7620   -0.3760   -0.7230 ca        1 UNV      0.505600
      7 C7         -0.3600   -0.1070    1.2240 c3        1 UNV     -0.010100
      8 C10        -0.3460   -0.1410   -1.2120 c3        1 UNV     -0.092700
      9 C14         0.5230    0.0350    0.0080 c3        1 UNV     -0.380400
     10 P17         1.5390   -1.5560    0.0650 p5        1 UNV      1.245700
     11 O18         1.1190    2.2830   -1.4880 o         1 UNV     -0.978500
     12 O19        -0.3300    2.5480    0.5220 o         1 UNV     -0.978500
     13 O20         2.1140    2.2250    0.8430 o         1 UNV     -0.978500
     14 O21         0.5820   -2.6270   -0.4600 o         1 UNV     -0.978500
     15 O22         2.7670   -1.4900   -0.8210 o         1 UNV     -0.978500
     16 O23         1.8680   -1.8520    1.5240 o         1 UNV     -0.978500
     17 H2         -2.9750   -0.5990    2.5050 ha        1 UNV      0.078000
     18 H4         -5.0680   -0.9740    1.1600 ha        1 UNV      0.046000
     19 H5         -4.9280   -0.9290   -1.3470 h4        1 UNV     -0.079900
     20 H7         -0.3720    0.8420    1.8340 hc        1 UNV      0.073700
     21 H7A        -0.0150   -0.9500    1.8910 hc        1 UNV      0.073700
     22 H10        -0.0330   -1.0420   -1.8150 hc        1 UNV      0.078200
     23 H10A       -0.3170    0.7670   -1.8800 hc        1 UNV      0.078200
     24 P11         0.9270    1.8750   -0.0320 p5        1 UNV      1.245700
@<TRIPOS>BOND
     1    1    5 ar  
     2    1    6 ar  
     3    2    3 ar  
     4    2    4 ar  
     5    2   17 1   
     6    3    6 ar  
     7    3    7 1   
     8    4    5 ar  
     9    4   18 1   
    10    5   19 1   
    11    6    8 1   
    12    7    9 1   
    13    7   20 1   
    14    7   21 1   
    15    8    9 1   
    16    8   22 1   
    17    8   23 1   
    18    9   10 1   
    19    9   24 1   
    20   10   14 1   
    21   10   15 1   
    22   10   16 1   
    23   11   24 1   
    24   12   24 1   
    25   13   24 1   
@<TRIPOS>SUBSTRUCTURE
     1 UNV         1 TEMP              0 ****  ****    0 ROOT
