@<TRIPOS>MOLECULE
UNV
   24    21     1     0     0
SMALL
bcc


@<TRIPOS>ATOM
      1 N1          1.2760    0.1030   -2.4070 n1        1 UNV     -0.226000
      2 C2          2.6380    0.2430   -0.0120 c1        1 UNV     -0.194000
      3 C3          1.2630    0.1620   -0.0180 c1        1 UNV      0.022000
      4 C4          3.3270    0.2530   -1.1930 c1        1 UNV     -0.197500
      5 C5          2.6390    0.1830   -2.4010 c1        1 UNV     -0.197500
      6 C6          0.5810    0.0920   -1.2200 c1        1 UNV      0.083000
      7 C7          0.2660   -0.1420    1.1120 c3        1 UNV     -0.096000
      8 C10        -0.9060    0.2390   -0.9260 c3        1 UNV     -0.077000
      9 P11        -2.0790   -1.6170    0.7860 p3        1 UNV      2.612000
     10 C14        -1.1310   -0.0900    0.5270 c2        1 UNV     -1.196000
     11 P17        -2.1780    1.1410    1.3540 p5        1 UNV      1.653500
     12 O18        -3.4220   -1.4970    0.1080 o         1 UNV     -1.298000
     13 O19        -2.2800   -1.8390    2.2660 o         1 UNV     -1.298000
     14 O20        -1.3220   -2.7850    0.2000 o         1 UNV     -1.298000
     15 O21        -1.5010    2.4910    1.3060 o         1 UNV     -0.978500
     16 O22        -2.3910    0.7360    2.7930 o         1 UNV     -0.978500
     17 O23        -3.5120    1.2220    0.6510 o         1 UNV     -0.978500
     18 H2          3.1180    0.3230    0.8340 ha        1 UNV      0.078000
     19 H4          4.3020    0.3100   -1.1890 ha        1 UNV      0.051500
     20 H5          3.1310    0.1900   -3.2440 ha        1 UNV      0.051500
     21 H7          0.3490    0.5430    1.8060 hc        1 UNV      0.113000
     22 H7A         0.4370   -1.0400    1.4580 hc        1 UNV      0.113000
     23 H10        -1.1890    1.1580   -1.1040 hc        1 UNV      0.117500
     24 H10A       -1.4160   -0.3790   -1.4870 hc        1 UNV      0.117500
@<TRIPOS>BOND
     1    1    6 1   
     2    2    3 1   
     3    2   18 1   
     4    3    7 1   
     5    4    5 1   
     6    4   19 1   
     7    5   20 1   
     8    6    8 1   
     9    7   10 1   
    10    7   21 1   
    11    7   22 1   
    12    8   10 1   
    13    8   23 1   
    14    8   24 1   
    15    9   12 1   
    16    9   13 1   
    17    9   14 1   
    18   10   11 1   
    19   11   15 1   
    20   11   16 1   
    21   11   17 1   
@<TRIPOS>SUBSTRUCTURE
     1 UNV         1 TEMP              0 ****  ****    0 ROOT
