@<TRIPOS>MOLECULE
UNV
   24    23     1     0     0
SMALL
bcc


@<TRIPOS>ATOM
      1 N1         -1.4380  169.0670  -14.1620 n2        1 UNV     -0.241000
      2 C2          0.0270  168.8400  -11.7300 c2        1 UNV     -0.234000
      3 C3         -0.7660  170.0810  -11.9280 c3        1 UNV     -0.104000
      4 C4          0.0350  167.8740  -12.6610 c2        1 UNV     -0.162000
      5 C5         -0.7730  167.9980  -13.8910 c1        1 UNV     -0.413000
      6 C6         -1.4170  170.1940  -13.2830 c2        1 UNV     -0.099000
      7 C7         -1.9680  172.9810  -11.6800 c2        1 UNV     -0.670000
      8 C10        -1.9860  171.3750  -13.6530 c2        1 UNV     -0.164000
      9 C14        -2.0770  172.6430  -12.9620 c2        1 UNV     -0.174000
     10 P17        -2.2060  174.6480  -11.1810 p5        1 UNV      1.637500
     11 O18        -1.4180 -858.7790   74.0170 o         1 UNV     -1.120000
     12 O19         0.4330 -858.2390   75.6900 o         1 UNV     -1.120000
     13 O20        -1.9380 -858.7010   76.5150 o         1 UNV     -1.120000
     14 O21        -0.8850  175.0430  -10.5430 o         1 UNV     -0.971833
     15 O22        -2.5410  175.4470  -12.4280 o         1 UNV     -0.971833
     16 O23        -3.3520  174.5710  -10.1850 o         1 UNV     -0.971833
     17 H2         -1.5690  170.1250  -11.1380 hc        1 UNV      0.083000
     18 H4          0.5840  168.7780  -10.7830 ha        1 UNV      0.049000
     19 H5          0.6220  166.9540  -12.5410 ha        1 UNV      0.049000
     20 H7         -0.1110  170.9820  -11.7620 hc        1 UNV      0.083000
     21 H7A        -1.7570  172.2650  -10.8810 ha        1 UNV      0.080000
     22 H10        -2.3130  173.4940  -13.6420 ha        1 UNV      0.123000
     23 H10A       -2.4510  171.4120  -14.6590 ha        1 UNV      0.070000
     24 P11        -0.9750 -858.5730   75.4070 p3        1 UNV      2.361000
@<TRIPOS>BOND
     1    1    5 1   
     2    1    6 1   
     3    2    3 1   
     4    2    4 1   
     5    2   18 1   
     6    3    6 1   
     7    3   17 1   
     8    3   20 1   
     9    4    5 1   
    10    4   19 1   
    11    6    8 1   
    12    7    9 1   
    13    7   10 1   
    14    7   21 1   
    15    8    9 1   
    16    8   23 1   
    17    9   22 1   
    18   10   14 1   
    19   10   15 1   
    20   10   16 1   
    21   11   24 1   
    22   12   24 1   
    23   13   24 1   
@<TRIPOS>SUBSTRUCTURE
     1 UNV         1 TEMP              0 ****  ****    0 ROOT
