@<TRIPOS>MOLECULE
UO1
   42    44     1     0     0
SMALL
bcc


@<TRIPOS>ATOM
      1 C01         0.3330    0.7610    0.2770 c3        1 UO1     -0.175100
      2 C02         1.8060    0.4600    0.2000 c         1 UO1      0.681100
      3 O03         2.5240    0.4140    1.2100 o         1 UO1     -0.551100
      4 N04         2.3620    0.2260   -1.0690 n         1 UO1     -0.258200
      5 C05         1.6510    0.2490   -2.2880 cc        1 UO1     -0.063400
      6 C06         2.5150    0.0010   -3.3570 cd        1 UO1      0.006400
      7 N07         2.1550   -0.0350   -4.7130 n         1 UO1     -0.305200
      8 C08         2.2430   -1.2360   -5.4360 c         1 UO1      0.673100
      9 C09         2.4570   -2.5100   -4.6590 c3        1 UO1     -0.170100
     10 O10         2.1180   -1.2440   -6.6730 o         1 UO1     -0.579100
     11 C11         2.0100    1.2260   -5.3680 ca        1 UO1      0.086600
     12 C12         0.8230    1.5610   -6.0590 ca        1 UO1     -0.090300
     13 C13        -0.3110    0.6150   -6.1650 c3        1 UO1     -0.052800
     14 C14         0.7270    2.8170   -6.6730 ca        1 UO1     -0.096000
     15 C15         1.7550    3.7460   -6.6070 ca        1 UO1     -0.153000
     16 C16         2.9250    3.4090   -5.9080 ca        1 UO1      0.126100
     17 C17         3.0620    2.1620   -5.2930 ca        1 UO1     -0.218000
     18 O18         3.9140    4.3660   -5.8650 oh        1 UO1     -0.498100
     19 C19         3.8550   -0.1890   -2.7930 ca        1 UO1     -0.107800
     20 C20         3.7200   -0.0440   -1.3660 ca        1 UO1      0.014600
     21 C21         4.8320   -0.1700   -0.5240 ca        1 UO1     -0.117000
     22 C22         6.0630   -0.4340   -1.1130 ca        1 UO1     -0.115000
     23 C23         6.2000   -0.5720   -2.5030 ca        1 UO1     -0.143000
     24 C24         5.1040   -0.4520   -3.3490 ca        1 UO1     -0.098000
     25 H1          0.0910    1.6860   -0.3020 hc        1 UO1      0.076700
     26 H2         -0.2640   -0.0920   -0.1270 hc        1 UO1      0.076700
     27 H3          0.0600    0.9210    1.3490 hc        1 UO1      0.076700
     28 H4          0.5780    0.4540   -2.3050 h4        1 UO1      0.178000
     29 H5          2.4880   -3.3650   -5.3770 hc        1 UO1      0.071700
     30 H6          1.6240   -2.6690   -3.9330 hc        1 UO1      0.071700
     31 H7          3.4230   -2.4620   -4.0970 hc        1 UO1      0.071700
     32 H8         -1.1880    1.0900   -6.6690 hc        1 UO1      0.048700
     33 H9         -0.0050   -0.2840   -6.7610 hc        1 UO1      0.048700
     34 H10        -0.6350    0.2700   -5.1510 hc        1 UO1      0.048700
     35 H11        -0.1940    3.0730   -7.2210 ha        1 UO1      0.137000
     36 H12         1.6730    4.7300   -7.0890 ha        1 UO1      0.152000
     37 H13         3.9870    1.9140   -4.7500 ha        1 UO1      0.144000
     38 H14         4.6640    3.9990   -5.3750 ho        1 UO1      0.420000
     39 H15         4.7270   -0.0600    0.5670 ha        1 UO1      0.168000
     40 H16         6.9520   -0.5370   -0.4730 ha        1 UO1      0.138000
     41 H17         7.1940   -0.7790   -2.9260 ha        1 UO1      0.136000
     42 H18         5.2150   -0.5590   -4.4380 ha        1 UO1      0.143000
@<TRIPOS>BOND
     1    1    2 1   
     2    1   25 1   
     3    1   26 1   
     4    1   27 1   
     5    2    3 2   
     6    2    4 1   
     7    4    5 1   
     8    4   20 1   
     9    5    6 2   
    10    5   28 1   
    11    6    7 1   
    12    6   19 1   
    13    7    8 1   
    14    7   11 1   
    15    8    9 1   
    16    8   10 2   
    17    9   29 1   
    18    9   30 1   
    19    9   31 1   
    20   11   12 ar  
    21   11   17 ar  
    22   12   13 1   
    23   12   14 ar  
    24   13   32 1   
    25   13   33 1   
    26   13   34 1   
    27   14   15 ar  
    28   14   35 1   
    29   15   16 ar  
    30   15   36 1   
    31   16   17 ar  
    32   16   18 1   
    33   17   37 1   
    34   18   38 1   
    35   19   20 ar  
    36   19   24 ar  
    37   20   21 ar  
    38   21   22 ar  
    39   21   39 1   
    40   22   23 ar  
    41   22   40 1   
    42   23   24 ar  
    43   23   41 1   
    44   24   42 1   
@<TRIPOS>SUBSTRUCTURE
     1 UO1         1 TEMP              0 ****  ****    0 ROOT
