@<TRIPOS>MOLECULE
UO1
   42    44     1     0     0
SMALL
bcc


@<TRIPOS>ATOM
      1 C01         0.3650    0.7560    0.2950 c3        1 UO1     -0.175100
      2 C02         1.8360    0.4460    0.2050 c         1 UO1      0.681100
      3 O03         2.5600    0.3900    1.2100 o         1 UO1     -0.551100
      4 N04         2.3800    0.2140   -1.0690 n         1 UO1     -0.258200
      5 C05         1.6600    0.2470   -2.2820 cc        1 UO1     -0.063400
      6 C06         2.5140   -0.0020   -3.3590 cd        1 UO1      0.006400
      7 N07         2.1430   -0.0290   -4.7120 n         1 UO1     -0.305200
      8 C08         2.2180   -1.2270   -5.4420 c         1 UO1      0.673100
      9 C09         2.4290   -2.5060   -4.6720 c3        1 UO1     -0.170100
     10 O10         2.0840   -1.2280   -6.6780 o         1 UO1     -0.579100
     11 C11         2.0020    1.2360   -5.3610 ca        1 UO1      0.086600
     12 C12         0.8120    1.5820   -6.0410 ca        1 UO1     -0.090300
     13 C13        -0.3290    0.6440   -6.1430 c3        1 UO1     -0.052800
     14 C14         0.7200    2.8420   -6.6480 ca        1 UO1     -0.096000
     15 C15         1.7540    3.7640   -6.5870 ca        1 UO1     -0.153000
     16 C16         2.9270    3.4160   -5.8970 ca        1 UO1      0.126100
     17 C17         3.0610    2.1650   -5.2890 ca        1 UO1     -0.218000
     18 O18         3.9230    4.3660   -5.8570 oh        1 UO1     -0.498100
     19 C19         3.8570   -0.2020   -2.8060 ca        1 UO1     -0.107800
     20 C20         3.7330   -0.0630   -1.3780 ca        1 UO1      0.014600
     21 C21         4.8510   -0.2000   -0.5450 ca        1 UO1     -0.117000
     22 C22         6.0760   -0.4700   -1.1450 ca        1 UO1     -0.115000
     23 C23         6.2020   -0.6020   -2.5360 ca        1 UO1     -0.143000
     24 C24         5.0990   -0.4700   -3.3730 ca        1 UO1     -0.098000
     25 H1          0.1010    0.9130    1.3700 hc        1 UO1      0.076700
     26 H2          0.1250    1.6850   -0.2770 hc        1 UO1      0.076700
     27 H3         -0.2400   -0.0920   -0.1080 hc        1 UO1      0.076700
     28 H4          0.5880    0.4590   -2.2910 h4        1 UO1      0.178000
     29 H5          3.4000   -2.4670   -4.1170 hc        1 UO1      0.071700
     30 H6          1.6010   -2.6630   -3.9400 hc        1 UO1      0.071700
     31 H7          2.4490   -3.3580   -5.3940 hc        1 UO1      0.071700
     32 H8         -0.0330   -0.2540   -6.7450 hc        1 UO1      0.048700
     33 H9         -0.6470    0.2970   -5.1280 hc        1 UO1      0.048700
     34 H10        -1.2070    1.1270   -6.6380 hc        1 UO1      0.048700
     35 H11        -0.2030    3.1070   -7.1890 ha        1 UO1      0.137000
     36 H12         1.6750    4.7510   -7.0630 ha        1 UO1      0.152000
     37 H13         3.9880    1.9090   -4.7540 ha        1 UO1      0.144000
     38 H14         4.6740    3.9920   -5.3740 ho        1 UO1      0.420000
     39 H15         4.7550   -0.0950    0.5470 ha        1 UO1      0.168000
     40 H16         6.9700   -0.5810   -0.5120 ha        1 UO1      0.138000
     41 H17         7.1910   -0.8130   -2.9680 ha        1 UO1      0.136000
     42 H18         5.2010   -0.5730   -4.4630 ha        1 UO1      0.143000
@<TRIPOS>BOND
     1    1    2 1   
     2    1   25 1   
     3    1   26 1   
     4    1   27 1   
     5    2    3 2   
     6    2    4 1   
     7    4    5 1   
     8    4   20 1   
     9    5    6 2   
    10    5   28 1   
    11    6    7 1   
    12    6   19 1   
    13    7    8 1   
    14    7   11 1   
    15    8    9 1   
    16    8   10 2   
    17    9   29 1   
    18    9   30 1   
    19    9   31 1   
    20   11   12 ar  
    21   11   17 ar  
    22   12   13 1   
    23   12   14 ar  
    24   13   32 1   
    25   13   33 1   
    26   13   34 1   
    27   14   15 ar  
    28   14   35 1   
    29   15   16 ar  
    30   15   36 1   
    31   16   17 ar  
    32   16   18 1   
    33   17   37 1   
    34   18   38 1   
    35   19   20 ar  
    36   19   24 ar  
    37   20   21 ar  
    38   21   22 ar  
    39   21   39 1   
    40   22   23 ar  
    41   22   40 1   
    42   23   24 ar  
    43   23   41 1   
    44   24   42 1   
@<TRIPOS>SUBSTRUCTURE
     1 UO1         1 TEMP              0 ****  ****    0 ROOT
