@<TRIPOS>MOLECULE
UOC
   34    33     1     0     0
SMALL
bcc


@<TRIPOS>ATOM
      1 CCG        -0.0050    0.0190    0.0300 c3        1 UOC     -0.092100
      2 CCF         1.5010    0.0630    0.0420 c3        1 UOC     -0.080400
      3 CCE         2.0480   -0.0110    1.4520 c3        1 UOC     -0.079400
      4 CCD         3.5610    0.0350    1.4590 c3        1 UOC     -0.079400
      5 CCC         4.1060   -0.0400    2.8690 c3        1 UOC     -0.078400
      6 CCB         5.6190    0.0060    2.8760 c3        1 UOC     -0.078400
      7 CCA         6.1640   -0.0680    4.2860 c3        1 UOC     -0.078400
      8 CBZ         7.6770   -0.0240    4.2890 c3        1 UOC     -0.075400
      9 CBY         8.2220   -0.0900    5.6980 c3        1 UOC     -0.182400
     10 CBX         9.7240   -0.1070    5.7400 c         1 UOC      0.564100
     11 OCH        10.4250   -0.3010    4.7420 o         1 UOC     -0.530100
     12 CBW        10.3160    0.1250    7.0940 c3        1 UOC     -0.205100
     13 HCG        -0.3870    0.0740   -1.0180 hc        1 UOC      0.032700
     14 HCGA       -0.3750   -0.9290    0.4900 hc        1 UOC      0.032700
     15 HCGB       -0.4300    0.8760    0.6060 hc        1 UOC      0.032700
     16 HCF         1.8540    1.0100   -0.4460 hc        1 UOC      0.038700
     17 HCFA        1.9090   -0.7910   -0.5610 hc        1 UOC      0.038700
     18 HCE         1.6970   -0.9570    1.9410 hc        1 UOC      0.038700
     19 HCEA        1.6430    0.8430    2.0570 hc        1 UOC      0.038700
     20 HCD         3.9110    0.9820    0.9700 hc        1 UOC      0.040200
     21 HCDA        3.9660   -0.8190    0.8540 hc        1 UOC      0.040200
     22 HCC         3.7560   -0.9870    3.3580 hc        1 UOC      0.038700
     23 HCCA        3.7010    0.8140    3.4750 hc        1 UOC      0.038700
     24 HCB         5.9690    0.9540    2.3870 hc        1 UOC      0.042200
     25 HCBA        6.0240   -0.8470    2.2710 hc        1 UOC      0.042200
     26 HCA         5.8130   -1.0150    4.7750 hc        1 UOC      0.037200
     27 HCAA        5.7600    0.7860    4.8910 hc        1 UOC      0.037200
     28 HBZ         8.0880   -0.8800    3.6910 hc        1 UOC      0.055200
     29 HBZA        8.0330    0.9180    3.7950 hc        1 UOC      0.055200
     30 HBY         7.8530    0.7850    6.2950 hc        1 UOC      0.063700
     31 HBYA        7.8540   -1.0220    6.2070 hc        1 UOC      0.063700
     32 HBW        10.1720    1.1950    7.3820 hc        1 UOC      0.063033
     33 HBWA       11.4100   -0.1010    7.0930 hc        1 UOC      0.063033
     34 HBWB        9.8100   -0.5200    7.8520 hc        1 UOC      0.063033
@<TRIPOS>BOND
     1    1    2 1   
     2    1   13 1   
     3    1   14 1   
     4    1   15 1   
     5    2    3 1   
     6    2   16 1   
     7    2   17 1   
     8    3    4 1   
     9    3   18 1   
    10    3   19 1   
    11    4    5 1   
    12    4   20 1   
    13    4   21 1   
    14    5    6 1   
    15    5   22 1   
    16    5   23 1   
    17    6    7 1   
    18    6   24 1   
    19    6   25 1   
    20    7    8 1   
    21    7   26 1   
    22    7   27 1   
    23    8    9 1   
    24    8   28 1   
    25    8   29 1   
    26    9   10 1   
    27    9   30 1   
    28    9   31 1   
    29   10   11 2   
    30   10   12 1   
    31   12   32 1   
    32   12   33 1   
    33   12   34 1   
@<TRIPOS>SUBSTRUCTURE
     1 UOC         1 TEMP              0 ****  ****    0 ROOT
