@<TRIPOS>MOLECULE
UOC
   34    33     1     0     0
SMALL
bcc


@<TRIPOS>ATOM
      1 CCG        -0.0040    0.0150    0.0280 c3        1 UOC     -0.092100
      2 CCF         1.5030    0.0500    0.0400 c3        1 UOC     -0.080400
      3 CCE         2.0480   -0.0110    1.4510 c3        1 UOC     -0.079400
      4 CCD         3.5620    0.0240    1.4580 c3        1 UOC     -0.079400
      5 CCC         4.1060   -0.0370    2.8700 c3        1 UOC     -0.078400
      6 CCB         5.6190   -0.0020    2.8760 c3        1 UOC     -0.078400
      7 CCA         6.1630   -0.0620    4.2870 c3        1 UOC     -0.078400
      8 CBZ         7.6760   -0.0290    4.2900 c3        1 UOC     -0.075400
      9 CBY         8.2210   -0.0800    5.7010 c3        1 UOC     -0.182400
     10 CBX         9.7220   -0.1080    5.7430 c         1 UOC      0.564100
     11 OCH        10.4210   -0.3270    4.7490 o         1 UOC     -0.530100
     12 CBW        10.3160    0.1440    7.0930 c3        1 UOC     -0.205100
     13 HCG        -0.3850    0.0610   -1.0210 hc        1 UOC      0.032700
     14 HCGA       -0.3800   -0.9250    0.4990 hc        1 UOC      0.032700
     15 HCGB       -0.4230    0.8810    0.5940 hc        1 UOC      0.032700
     16 HCF         1.8620    0.9880   -0.4590 hc        1 UOC      0.038700
     17 HCFA        1.9050   -0.8140   -0.5530 hc        1 UOC      0.038700
     18 HCE         1.6910   -0.9500    1.9510 hc        1 UOC      0.039200
     19 HCEA        1.6490    0.8520    2.0460 hc        1 UOC      0.039200
     20 HCD         3.9180    0.9630    0.9580 hc        1 UOC      0.040200
     21 HCDA        3.9610   -0.8400    0.8640 hc        1 UOC      0.040200
     22 HCC         3.7490   -0.9760    3.3700 hc        1 UOC      0.038700
     23 HCCA        3.7070    0.8260    3.4640 hc        1 UOC      0.038700
     24 HCB         5.9760    0.9370    2.3760 hc        1 UOC      0.042200
     25 HCBA        6.0190   -0.8660    2.2820 hc        1 UOC      0.042200
     26 HCA         5.8050   -1.0000    4.7880 hc        1 UOC      0.037200
     27 HCAA        5.7650    0.8020    4.8810 hc        1 UOC      0.037200
     28 HBZ         8.0820   -0.8960    3.7040 hc        1 UOC      0.055200
     29 HBZA        8.0390    0.9030    3.7840 hc        1 UOC      0.055200
     30 HBY         7.8580    0.8070    6.2850 hc        1 UOC      0.063700
     31 HBYA        7.8450   -1.0010    6.2230 hc        1 UOC      0.063700
     32 HBW        10.1840    1.2220    7.3590 hc        1 UOC      0.063033
     33 HBWA       11.4070   -0.0940    7.0980 hc        1 UOC      0.063033
     34 HBWB        9.8020   -0.4800    7.8630 hc        1 UOC      0.063033
@<TRIPOS>BOND
     1    1    2 1   
     2    1   13 1   
     3    1   14 1   
     4    1   15 1   
     5    2    3 1   
     6    2   16 1   
     7    2   17 1   
     8    3    4 1   
     9    3   18 1   
    10    3   19 1   
    11    4    5 1   
    12    4   20 1   
    13    4   21 1   
    14    5    6 1   
    15    5   22 1   
    16    5   23 1   
    17    6    7 1   
    18    6   24 1   
    19    6   25 1   
    20    7    8 1   
    21    7   26 1   
    22    7   27 1   
    23    8    9 1   
    24    8   28 1   
    25    8   29 1   
    26    9   10 1   
    27    9   30 1   
    28    9   31 1   
    29   10   11 2   
    30   10   12 1   
    31   12   32 1   
    32   12   33 1   
    33   12   34 1   
@<TRIPOS>SUBSTRUCTURE
     1 UOC         1 TEMP              0 ****  ****    0 ROOT
