@<TRIPOS>MOLECULE
UOC
   34    33     1     0     0
SMALL
bcc


@<TRIPOS>ATOM
      1 CCG        -5.1450   -0.0360   -3.1940 c3        1 UOC     -0.092100
      2 CCF        -3.6320   -0.0630   -3.1840 c3        1 UOC     -0.080400
      3 CCE        -3.1370   -0.0300   -1.7550 c3        1 UOC     -0.079400
      4 CCD        -1.6240   -0.0190   -1.7460 c3        1 UOC     -0.079400
      5 CCC        -1.1280   -0.0140   -0.3160 c3        1 UOC     -0.078400
      6 CCB         0.3850   -0.0210   -0.3070 c3        1 UOC     -0.078400
      7 CCA         0.8810    0.0370    1.1210 c3        1 UOC     -0.078400
      8 CBZ         2.3930    0.0180    1.1300 c3        1 UOC     -0.075400
      9 CBY         2.8910    0.2000    2.5470 c3        1 UOC     -0.182400
     10 CBX         4.4030    0.1610    2.5590 c         1 UOC      0.564100
     11 OCH         5.0250    0.3740    1.5380 o         1 UOC     -0.530100
     12 CBW         5.1420   -0.1370    3.8460 c3        1 UOC     -0.205100
     13 HCG        -5.4610    0.7520   -2.7050 hc        1 UOC      0.032700
     14 HCGA       -5.4650    0.0030   -4.1190 hc        1 UOC      0.032700
     15 HCGB       -5.4890   -0.8470   -2.7630 hc        1 UOC      0.032700
     16 HCF        -3.2890    0.7160   -3.6660 hc        1 UOC      0.038700
     17 HCFA       -3.3180   -0.8810   -3.6190 hc        1 UOC      0.038700
     18 HCE        -3.4720    0.7750   -1.3120 hc        1 UOC      0.039200
     19 HCEA       -3.4600   -0.8220   -1.2790 hc        1 UOC      0.039200
     20 HCD        -1.3010    0.7820   -2.2060 hc        1 UOC      0.040200
     21 HCDA       -1.2890   -0.8150   -2.2040 hc        1 UOC      0.040200
     22 HCC        -1.4530    0.7890    0.1380 hc        1 UOC      0.038700
     23 HCCA       -1.4610   -0.8080    0.1470 hc        1 UOC      0.038700
     24 HCB         0.7090   -0.8400   -0.7330 hc        1 UOC      0.042200
     25 HCBA        0.7170    0.7560   -0.8000 hc        1 UOC      0.042200
     26 HCA         0.5420   -0.7360    1.6150 hc        1 UOC      0.037200
     27 HCAA        0.5620    0.8590    1.5430 hc        1 UOC      0.037200
     28 HBZ         2.7110   -0.8380    0.7800 hc        1 UOC      0.055200
     29 HBZA        2.7320    0.7450    0.5700 hc        1 UOC      0.055200
     30 HBY         2.5420   -0.5200    3.1100 hc        1 UOC      0.063700
     31 HBYA        2.5840    1.0620    2.8930 hc        1 UOC      0.063700
     32 HBW         6.1070   -0.0630    3.6930 hc        1 UOC      0.063033
     33 HBWA        4.8700    0.5060    4.5350 hc        1 UOC      0.063033
     34 HBWB        4.9270   -1.0450    4.1430 hc        1 UOC      0.063033
@<TRIPOS>BOND
     1    1    2 1   
     2    1   13 1   
     3    1   14 1   
     4    1   15 1   
     5    2    3 1   
     6    2   16 1   
     7    2   17 1   
     8    3    4 1   
     9    3   18 1   
    10    3   19 1   
    11    4    5 1   
    12    4   20 1   
    13    4   21 1   
    14    5    6 1   
    15    5   22 1   
    16    5   23 1   
    17    6    7 1   
    18    6   24 1   
    19    6   25 1   
    20    7    8 1   
    21    7   26 1   
    22    7   27 1   
    23    8    9 1   
    24    8   28 1   
    25    8   29 1   
    26    9   10 1   
    27    9   30 1   
    28    9   31 1   
    29   10   11 2   
    30   10   12 1   
    31   12   32 1   
    32   12   33 1   
    33   12   34 1   
@<TRIPOS>SUBSTRUCTURE
     1 UOC         1 TEMP              0 ****  ****    0 ROOT
