@<TRIPOS>MOLECULE
UOC
   34    33     1     0     0
SMALL
bcc


@<TRIPOS>ATOM
      1 CCG         6.6600   -0.2650    0.0610 c3        1 UOC     -0.092100
      2 CCF         5.3830    0.5340    0.0320 c3        1 UOC     -0.080400
      3 CCE         4.1650   -0.3650    0.0270 c3        1 UOC     -0.079400
      4 CCD         2.8850    0.4420   -0.0030 c3        1 UOC     -0.079400
      5 CCC         1.6670   -0.4580   -0.0070 c3        1 UOC     -0.078400
      6 CCB         0.3880    0.3500   -0.0370 c3        1 UOC     -0.078400
      7 CCA        -0.8300   -0.5500   -0.0400 c3        1 UOC     -0.078400
      8 CBZ        -2.1070    0.2600   -0.0730 c3        1 UOC     -0.075400
      9 CBY        -3.3240   -0.6380   -0.0670 c3        1 UOC     -0.182400
     10 CBX        -4.6120    0.1280   -0.1580 c         1 UOC      0.564100
     11 OCH        -4.6670    1.3230   -0.4650 o         1 UOC     -0.530100
     12 CBW        -5.8400   -0.6710    0.1460 c3        1 UOC     -0.205100
     13 HCG         6.7040   -0.9040    0.9760 hc        1 UOC      0.032700
     14 HCGA        6.7300   -0.9300   -0.8330 hc        1 UOC      0.032700
     15 HCGB        7.5450    0.4170    0.0640 hc        1 UOC      0.032700
     16 HCF         5.3420    1.2140    0.9240 hc        1 UOC      0.038700
     17 HCFA        5.3680    1.1880   -0.8810 hc        1 UOC      0.038700
     18 HCE         4.2030   -1.0440   -0.8650 hc        1 UOC      0.039200
     19 HCEA        4.1770   -1.0180    0.9400 hc        1 UOC      0.039200
     20 HCD         2.8470    1.1210    0.8900 hc        1 UOC      0.040200
     21 HCDA        2.8730    1.0950   -0.9150 hc        1 UOC      0.040200
     22 HCC         1.7050   -1.1370   -0.8990 hc        1 UOC      0.038700
     23 HCCA        1.6790   -1.1110    0.9060 hc        1 UOC      0.038700
     24 HCB         0.3500    1.0290    0.8550 hc        1 UOC      0.042200
     25 HCBA        0.3750    1.0020   -0.9490 hc        1 UOC      0.042200
     26 HCA        -0.7910   -1.2300   -0.9320 hc        1 UOC      0.037200
     27 HCAA       -0.8180   -1.2020    0.8730 hc        1 UOC      0.037200
     28 HBZ        -2.1460    0.9470    0.8130 hc        1 UOC      0.055200
     29 HBZA       -2.1280    0.9090   -0.9890 hc        1 UOC      0.055200
     30 HBY        -3.2810   -1.3450   -0.9400 hc        1 UOC      0.063700
     31 HBYA       -3.3370   -1.2610    0.8670 hc        1 UOC      0.063700
     32 HBW        -5.8170   -1.6390   -0.4090 hc        1 UOC      0.063033
     33 HBWA       -5.8780   -0.8880    1.2420 hc        1 UOC      0.063033
     34 HBWB       -6.7620   -0.1070   -0.1390 hc        1 UOC      0.063033
@<TRIPOS>BOND
     1    1    2 1   
     2    1   13 1   
     3    1   14 1   
     4    1   15 1   
     5    2    3 1   
     6    2   16 1   
     7    2   17 1   
     8    3    4 1   
     9    3   18 1   
    10    3   19 1   
    11    4    5 1   
    12    4   20 1   
    13    4   21 1   
    14    5    6 1   
    15    5   22 1   
    16    5   23 1   
    17    6    7 1   
    18    6   24 1   
    19    6   25 1   
    20    7    8 1   
    21    7   26 1   
    22    7   27 1   
    23    8    9 1   
    24    8   28 1   
    25    8   29 1   
    26    9   10 1   
    27    9   30 1   
    28    9   31 1   
    29   10   11 2   
    30   10   12 1   
    31   12   32 1   
    32   12   33 1   
    33   12   34 1   
@<TRIPOS>SUBSTRUCTURE
     1 UOC         1 TEMP              0 ****  ****    0 ROOT
