@<TRIPOS>MOLECULE
UOX
   14    13     1     0     0
SMALL
bcc


@<TRIPOS>ATOM
      1 N          -1.8990   -0.4590    0.0720 n3        1 UOX     -0.887800
      2 CA         -0.4770   -0.4360    0.0830 c3        1 UOX      0.039500
      3 CB          0.0110    0.8380   -0.5680 c3        1 UOX     -0.036100
      4 SE          1.8480    0.6370   -1.0650 s4        1 UOX      0.242900
      5 OD          3.0140    1.3050   -0.1520 o         1 UOX     -0.597200
      6 C           0.0170   -0.4920    1.5110 c         1 UOX      0.884600
      7 O          -0.4300    0.3190    2.3640 o         1 UOX     -0.840300
      8 H1         -2.1960   -0.5410   -0.7910 hn        1 UOX      0.334800
      9 H2         -2.1970   -1.1710    0.5660 hn        1 UOX      0.334800
     10 H4         -0.1340   -1.2070   -0.4100 h1        1 UOX      0.043700
     11 H5         -0.5240    1.0210   -1.3660 h1        1 UOX      0.071700
     12 H6         -0.0770    1.5810    0.0620 h1        1 UOX      0.071700
     13 O1          0.8740   -1.3510    1.8470 o         1 UOX     -0.840300
     14 H3          2.1680   -0.0450   -2.1520 hs        1 UOX      0.177000
@<TRIPOS>BOND
     1    1    2 1   
     2    1    8 1   
     3    1    9 1   
     4    2    3 1   
     5    2    6 1   
     6    2   10 1   
     7    3    4 1   
     8    3   11 1   
     9    3   12 1   
    10    4    5 2   
    11    4   14 1   
    12    6    7 1   
    13    6   13 1   
@<TRIPOS>SUBSTRUCTURE
     1 UOX         1 TEMP              0 ****  ****    0 ROOT
