@<TRIPOS>MOLECULE
UOX
   14    13     1     0     0
SMALL
bcc


@<TRIPOS>ATOM
      1 N          -0.9230    1.8380   -0.0450 n3        1 UOX     -0.900800
      2 CA         -1.0850    0.4060   -0.2610 c3        1 UOX      0.024500
      3 CB          0.0100   -0.4130    0.4120 c3        1 UOX     -0.033100
      4 SE          1.5360   -0.1450   -0.3940 s4        1 UOX      0.135900
      5 OD          2.5630   -1.0010    0.3310 o         1 UOX     -0.547200
      6 C          -2.4780   -0.1710    0.1720 c         1 UOX      0.897600
      7 O          -3.3220    0.6360    0.6520 o         1 UOX     -0.832800
      8 H1         -1.7350    2.2900   -0.4330 hn        1 UOX      0.337800
      9 H2         -0.9530    2.0140    0.9440 hn        1 UOX      0.337800
     10 H4         -1.0160    0.2370   -1.3770 h1        1 UOX      0.040700
     11 H5          0.0350   -0.2130    1.5090 h1        1 UOX      0.102200
     12 H6         -0.2720   -1.4950    0.2990 h1        1 UOX      0.102200
     13 O1         -2.6710   -1.4020   -0.0140 o         1 UOX     -0.832800
     14 H3          1.7940    1.0480    0.0630 hs        1 UOX      0.168000
@<TRIPOS>BOND
     1    1    2 1   
     2    1    8 1   
     3    1    9 1   
     4    2    3 1   
     5    2    6 1   
     6    2   10 1   
     7    3    4 1   
     8    3   11 1   
     9    3   12 1   
    10    4    5 2   
    11    4   14 1   
    12    6    7 1   
    13    6   13 1   
@<TRIPOS>SUBSTRUCTURE
     1 UOX         1 TEMP              0 ****  ****    0 ROOT
