@<TRIPOS>MOLECULE
UP6
   31    32     1     0     0
SMALL
bcc


@<TRIPOS>ATOM
      1 N1         -0.2310   -0.3610   -0.0590 n         1 UP6     -0.202800
      2 C2          1.1520   -0.6110    0.2540 c         1 UP6      0.776500
      3 N3          1.6570   -0.1180    1.4820 ns        1 UP6     -0.599500
      4 C4          0.8600    0.6510    2.3390 c         1 UP6      0.602200
      5 C5         -0.5330    0.8560    1.8610 cc        1 UP6      0.248200
      6 N6         -0.9910    0.3970    0.7230 nd        1 UP6     -0.333300
      7 O2          1.9010   -1.3090   -0.4610 o         1 UP6     -0.647500
      8 O4          1.3250    1.0810    3.4080 o         1 UP6     -0.639500
      9 C1'        -0.6110   -0.5060   -1.5100 c3        1 UP6      0.286500
     10 C2'        -2.1120   -0.8900   -1.7040 c3        1 UP6      0.114100
     11 C3'        -2.7690    0.4140   -2.2150 c3        1 UP6      0.134100
     12 C4'        -1.6030    1.3430   -2.6030 c3        1 UP6      0.060100
     13 O2'        -2.1590   -1.9790   -2.6030 oh        1 UP6     -0.623800
     14 O3'        -3.5660    0.1080   -3.3350 oh        1 UP6     -0.688800
     15 O4'        -0.3650    0.6940   -2.2020 os        1 UP6     -0.431600
     16 C5'        -1.6980    2.7570   -1.9790 c3        1 UP6      0.231400
     17 O5'        -2.2780    3.6270   -2.8600 os        1 UP6     -0.559200
     18 P          -3.9500    3.9780   -2.5100 p5        1 UP6      1.335900
     19 O1P        -3.8720    4.4650   -1.0930 o         1 UP6     -0.931167
     20 O2P        -4.3340    4.9530   -3.5790 o         1 UP6     -0.931167
     21 O3P        -4.4900    2.5660   -2.6510 o         1 UP6     -0.931167
     22 HN3         2.6170   -0.2770    1.6840 hn        1 UP6      0.329500
     23 H5         -1.2120    1.4570    2.4890 h4        1 UP6      0.076800
     24 H1'         0.0890   -1.2900   -1.9200 h2        1 UP6      0.101700
     25 H2'        -2.5950   -1.2580   -0.7630 h1        1 UP6      0.071700
     26 H3'        -3.4020    0.8800   -1.4090 h1        1 UP6      0.119700
     27 H4'        -1.5290    1.4360   -3.7200 h1        1 UP6      0.077700
     28 HO2'       -2.3960   -1.6320   -3.4750 ho        1 UP6      0.432000
     29 HO3'       -4.1410    0.9030   -3.4670 ho        1 UP6      0.517000
     30 H5'1       -2.2740    2.7110   -1.0120 h1        1 UP6      0.002200
     31 H5'2       -0.6380    3.0860   -1.7600 h1        1 UP6      0.002200
@<TRIPOS>BOND
     1    1    2 1   
     2    1    6 1   
     3    1    9 1   
     4    2    3 1   
     5    2    7 2   
     6    3    4 1   
     7    3   22 1   
     8    4    5 1   
     9    4    8 2   
    10    5    6 2   
    11    5   23 1   
    12    9   10 1   
    13    9   15 1   
    14    9   24 1   
    15   10   11 1   
    16   10   13 1   
    17   10   25 1   
    18   11   12 1   
    19   11   14 1   
    20   11   26 1   
    21   12   15 1   
    22   12   16 1   
    23   12   27 1   
    24   13   28 1   
    25   14   29 1   
    26   16   17 1   
    27   16   30 1   
    28   16   31 1   
    29   17   18 1   
    30   18   19 1   
    31   18   20 1   
    32   18   21 1   
@<TRIPOS>SUBSTRUCTURE
     1 UP6         1 TEMP              0 ****  ****    0 ROOT
