@<TRIPOS>MOLECULE
UP6
   31    32     1     0     0
SMALL
bcc


@<TRIPOS>ATOM
      1 N1          0.4370    0.0270    2.4670 n         1 UP6     -0.202800
      2 C2         -0.1480    0.8020    3.5300 c         1 UP6      0.776500
      3 N3         -1.2930    0.2840    4.1810 n         1 UP6     -0.599500
      4 C4         -1.8870   -0.9130    3.7630 c         1 UP6      0.602200
      5 C5         -1.1920   -1.5790    2.6280 cc        1 UP6      0.248200
      6 N6         -0.1340   -1.0910    2.0330 nd        1 UP6     -0.333300
      7 O2          0.3520    1.8630    3.9590 o         1 UP6     -0.647500
      8 O4         -2.8970   -1.3480    4.3420 o         1 UP6     -0.639500
      9 C1'         1.3510    0.7780    1.5330 c3        1 UP6      0.286500
     10 C2'         2.4290   -0.1410    0.8770 c3        1 UP6      0.114100
     11 C3'         1.9470   -0.3000   -0.5830 c3        1 UP6      0.134100
     12 C4'         0.8530    0.7670   -0.7790 c3        1 UP6      0.060100
     13 O2'         3.6820    0.4960    1.0310 oh        1 UP6     -0.623800
     14 O3'         3.0360   -0.0720   -1.4450 oh        1 UP6     -0.688800
     15 O4'         0.6070    1.3940    0.5100 os        1 UP6     -0.431600
     16 C5'        -0.4650    0.2100   -1.3690 c3        1 UP6      0.231400
     17 O5'        -0.4880    0.3820   -2.7250 os        1 UP6     -0.559200
     18 P          -0.1330   -1.0680   -3.6280 p5        1 UP6      1.335900
     19 O1P        -1.1570   -2.0240   -3.0890 o         1 UP6     -0.931167
     20 O2P        -0.2480   -0.6290   -5.0540 o         1 UP6     -0.931167
     21 O3P         1.2700   -1.3020   -3.0990 o         1 UP6     -0.931167
     22 HN3        -1.7040    0.8320    4.9010 hn        1 UP6      0.329500
     23 H5         -1.6130   -2.5250    2.2490 h4        1 UP6      0.076800
     24 H1'         1.8090    1.5930    2.1650 h2        1 UP6      0.101700
     25 H2'         2.5330   -1.1310    1.3910 h1        1 UP6      0.071700
     26 H3'         1.5330   -1.3330   -0.7530 h1        1 UP6      0.119700
     27 H4'         1.2290    1.6000   -1.4350 h1        1 UP6      0.077700
     28 HO2'        3.8990    0.9250    0.1910 ho        1 UP6      0.432000
     29 HO3'        2.7460   -0.4190   -2.3260 ho        1 UP6      0.517000
     30 H5'1       -0.5780   -0.8760   -1.0940 h1        1 UP6      0.002200
     31 H5'2       -1.3060    0.7990   -0.8960 h1        1 UP6      0.002200
@<TRIPOS>BOND
     1    1    2 1   
     2    1    6 1   
     3    1    9 1   
     4    2    3 1   
     5    2    7 2   
     6    3    4 1   
     7    3   22 1   
     8    4    5 1   
     9    4    8 2   
    10    5    6 2   
    11    5   23 1   
    12    9   10 1   
    13    9   15 1   
    14    9   24 1   
    15   10   11 1   
    16   10   13 1   
    17   10   25 1   
    18   11   12 1   
    19   11   14 1   
    20   11   26 1   
    21   12   15 1   
    22   12   16 1   
    23   12   27 1   
    24   13   28 1   
    25   14   29 1   
    26   16   17 1   
    27   16   30 1   
    28   16   31 1   
    29   17   18 1   
    30   18   19 1   
    31   18   20 1   
    32   18   21 1   
@<TRIPOS>SUBSTRUCTURE
     1 UP6         1 TEMP              0 ****  ****    0 ROOT
