@<TRIPOS>MOLECULE
UP6
   31    32     1     0     0
SMALL
bcc


@<TRIPOS>ATOM
      1 N1         -0.2610   -0.3540   -0.0160 n         1 UP6     -0.202800
      2 C2          1.1170   -0.6380    0.2890 c         1 UP6      0.776500
      3 N3          1.6580   -0.1070    1.4860 n         1 UP6     -0.599500
      4 C4          0.9020    0.7290    2.3160 c         1 UP6      0.602200
      5 C5         -0.4900    0.9620    1.8480 cc        1 UP6      0.248200
      6 N6         -0.9810    0.4670    0.7400 nd        1 UP6     -0.333300
      7 O2          1.8300   -1.3950   -0.4020 o         1 UP6     -0.647500
      8 O4          1.3980    1.1920    3.3580 o         1 UP6     -0.639500
      9 C1'        -0.6680   -0.5510   -1.4540 c3        1 UP6      0.286500
     10 C2'        -2.1840   -0.8900   -1.6090 c3        1 UP6      0.114100
     11 C3'        -2.8020    0.4110   -2.1720 c3        1 UP6      0.134100
     12 C4'        -1.6100    1.2790   -2.6190 c3        1 UP6      0.060100
     13 O2'        -2.2830   -2.0180   -2.4550 oh        1 UP6     -0.623800
     14 O3'        -3.6260    0.0830   -3.2650 oh        1 UP6     -0.688800
     15 O4'        -0.3890    0.6050   -2.2050 os        1 UP6     -0.431600
     16 C5'        -1.6450    2.7230   -2.0610 c3        1 UP6      0.231400
     17 O5'        -2.2080    3.5710   -2.9740 os        1 UP6     -0.559200
     18 P          -3.8610    3.9980   -2.6190 p5        1 UP6      1.335900
     19 O1P        -3.7440    4.5470   -1.2270 o         1 UP6     -0.931167
     20 O2P        -4.2260    4.9360   -3.7270 o         1 UP6     -0.931167
     21 O3P        -4.4530    2.6020   -2.6850 o         1 UP6     -0.931167
     22 HN3         2.6150   -0.2910    1.6820 hn        1 UP6      0.329500
     23 H5         -1.1370    1.6160    2.4560 h4        1 UP6      0.076800
     24 H1'        -0.0020   -1.3790   -1.8360 h2        1 UP6      0.101700
     25 H2'        -2.6650   -1.1960   -0.6460 h1        1 UP6      0.071700
     26 H3'        -3.4060    0.9370   -1.3810 h1        1 UP6      0.119700
     27 H4'        -1.5500    1.3170   -3.7400 h1        1 UP6      0.077700
     28 HO2'       -2.5210   -1.7030   -3.3390 ho        1 UP6      0.432000
     29 HO3'       -4.1750    0.8910   -3.4260 ho        1 UP6      0.517000
     30 H5'1       -2.2080    2.7430   -1.0850 h1        1 UP6      0.002200
     31 H5'2       -0.5720    3.0240   -1.8720 h1        1 UP6      0.002200
@<TRIPOS>BOND
     1    1    2 1   
     2    1    6 1   
     3    1    9 1   
     4    2    3 1   
     5    2    7 2   
     6    3    4 1   
     7    3   22 1   
     8    4    5 1   
     9    4    8 2   
    10    5    6 2   
    11    5   23 1   
    12    9   10 1   
    13    9   15 1   
    14    9   24 1   
    15   10   11 1   
    16   10   13 1   
    17   10   25 1   
    18   11   12 1   
    19   11   14 1   
    20   11   26 1   
    21   12   15 1   
    22   12   16 1   
    23   12   27 1   
    24   13   28 1   
    25   14   29 1   
    26   16   17 1   
    27   16   30 1   
    28   16   31 1   
    29   17   18 1   
    30   18   19 1   
    31   18   20 1   
    32   18   21 1   
@<TRIPOS>SUBSTRUCTURE
     1 UP6         1 TEMP              0 ****  ****    0 ROOT
