@<TRIPOS>MOLECULE
UPC
   41    42     1     0     0
SMALL
bcc


@<TRIPOS>ATOM
      1 N1          0.0000    0.0000    0.0000 n         1 UPC      0.106000
      2 C2          1.3460    0.0000    0.0000 c         1 UPC      0.583500
      3 O2          1.9460    0.0000   -1.0570 o         1 UPC     -0.752500
      4 N3          2.0370    0.0000    1.1550 ns        1 UPC     -0.158500
      5 C4          1.3870   -0.0010    2.3370 c         1 UPC      0.572700
      6 O4          2.0120   -0.0010    3.3820 o         1 UPC     -0.839500
      7 C5         -0.0280   -0.0010    2.3510 cc        1 UPC     -0.391200
      8 C6         -0.6970   -0.0000    1.1770 cd        1 UPC     -0.391400
      9 PA          0.7810   -3.8940   -5.4000 p5        1 UPC      0.609600
     10 PB          0.6720   -6.7510   -6.2300 p5        1 UPC      0.721600
     11 PG          0.0470   -9.6110   -6.6910 p5        1 UPC      0.816900
     12 C1'        -0.7250    0.0070   -1.2730 c3        1 UPC      0.228500
     13 O1A         0.8060   -3.4460   -6.9460 o         1 UPC     -0.653000
     14 O1B         2.1810   -6.9600   -5.7080 o         1 UPC     -0.597500
     15 O1G        -0.3950   -9.6180   -8.2390 o         1 UPC     -0.659500
     16 C2'        -0.4400    1.3180   -2.0310 c3        1 UPC     -0.112400
     17 O2A         2.1670   -4.0860   -4.9190 o         1 UPC     -0.653000
     18 O2B         0.6950   -6.3390   -7.6510 o         1 UPC     -0.597500
     19 O2G         1.4700  -10.0100   -6.5830 o         1 UPC     -0.659500
     20 C3'         0.1680    0.8540   -3.3770 c3        1 UPC      0.146100
     21 O3'        -0.3390    1.6330   -4.4610 oh        1 UPC     -0.589800
     22 C3A        -0.1410   -5.4590   -5.2350 c3        1 UPC      0.007200
     23 O3B        -0.1420   -8.1330   -6.0850 os        1 UPC     -0.490800
     24 O3G        -0.8650  -10.6500   -5.8670 o         1 UPC     -0.659500
     25 C4'        -0.3270   -0.6120   -3.4690 c3        1 UPC      0.159100
     26 O4'        -0.2690   -1.0770   -2.1010 os        1 UPC     -0.346600
     27 C5'         0.6030   -1.4400   -4.3580 c3        1 UPC      0.298400
     28 O5'         0.0620   -2.7530   -4.5210 os        1 UPC     -0.504200
     29 H5         -0.5680   -0.0020    3.2900 ha        1 UPC      0.101000
     30 H6         -1.7760    0.0990    1.1680 h4        1 UPC      0.103000
     31 H1'        -1.7890   -0.0900   -1.0970 h2        1 UPC      0.006700
     32 H2'         0.2710    1.9240   -1.4840 hc        1 UPC      0.012200
     33 H2'A       -1.3610    1.8630   -2.2010 hc        1 UPC      0.012200
     34 H3'         1.2500    0.8910   -3.3400 h1        1 UPC      0.043700
     35 HO3'        0.2880    2.2990   -4.6900 ho        1 UPC      0.363000
     36 H3A        -0.1580   -5.7600   -4.1950 hc        1 UPC      0.005700
     37 H3AA       -1.1560   -5.3180   -5.5870 hc        1 UPC      0.005700
     38 H4'        -1.3450   -0.6450   -3.8370 h1        1 UPC      0.011700
     39 H5'         1.5800   -1.5070   -3.8960 h1        1 UPC     -0.010800
     40 H5'A        0.6940   -0.9640   -5.3270 h1        1 UPC     -0.010800
     41 HN3         3.0380   -0.0000    1.1370 hn        1 UPC      0.166500
@<TRIPOS>BOND
     1    1    2 1   
     2    1    8 1   
     3    1   12 1   
     4    2    3 2   
     5    2    4 1   
     6    4    5 1   
     7    4   41 1   
     8    5    6 2   
     9    5    7 1   
    10    7    8 2   
    11    7   29 1   
    12    8   30 1   
    13    9   13 1   
    14    9   17 1   
    15    9   22 1   
    16    9   28 1   
    17   10   14 1   
    18   10   18 1   
    19   10   22 1   
    20   10   23 1   
    21   11   15 1   
    22   11   19 1   
    23   11   23 1   
    24   11   24 1   
    25   12   16 1   
    26   12   26 1   
    27   12   31 1   
    28   16   20 1   
    29   16   32 1   
    30   16   33 1   
    31   20   21 1   
    32   20   25 1   
    33   20   34 1   
    34   21   35 1   
    35   22   36 1   
    36   22   37 1   
    37   25   26 1   
    38   25   27 1   
    39   25   38 1   
    40   27   28 1   
    41   27   39 1   
    42   27   40 1   
@<TRIPOS>SUBSTRUCTURE
     1 UPC         1 TEMP              0 ****  ****    0 ROOT
