@<TRIPOS>MOLECULE
UPE
   51    53     1     0     0
SMALL
bcc


@<TRIPOS>ATOM
      1 P          -3.6260    2.0580   -1.6110 p5        1 UPE      1.326900
      2 N1         -0.9240   -2.6440    0.7320 n         1 UPE     -0.362000
      3 C2         -0.6960   -3.3330    1.9500 c         1 UPE      0.800500
      4 O2         -1.5030   -4.1720    2.4120 o         1 UPE     -0.661500
      5 N3          0.4980   -3.0800    2.6460 n         1 UPE     -0.590500
      6 C4          1.4890   -2.2000    2.1760 c         1 UPE      0.739700
      7 O4          2.4980   -2.0370    2.8980 o         1 UPE     -0.690500
      8 C5          1.2340   -1.5850    0.8810 cc        1 UPE     -0.403400
      9 C6          0.0300   -1.8000    0.2340 cd        1 UPE      0.177600
     10 C1'        -2.2240   -2.8930    0.0430 c3        1 UPE      0.314500
     11 C2'        -3.4210   -2.1640    0.6850 c3        1 UPE     -0.116400
     12 C21         2.2670   -0.7530    0.2270 c         1 UPE      0.713300
     13 O22         2.4500   -0.7900   -1.0080 o         1 UPE     -0.624100
     14 N23         3.0100    0.0960    1.0330 n         1 UPE     -0.554900
     15 C24         4.0810    0.8840    0.5040 c3        1 UPE      0.102000
     16 C25         5.4480    0.1800    0.4820 c3        1 UPE     -0.078100
     17 C26         6.4910    1.0610   -0.1050 ca        1 UPE     -0.060300
     18 C27         7.5490    1.5370    0.6780 ca        1 UPE     -0.127500
     19 C28         8.5320    2.3510    0.1160 ca        1 UPE     -0.134500
     20 C29         8.4670    2.6990   -1.2320 ca        1 UPE     -0.146000
     21 C3'        -3.8880   -1.1460   -0.3580 c3        1 UPE      0.123100
     22 O3'        -5.2480   -1.3800   -0.6540 oh        1 UPE     -0.669800
     23 C30         7.4140    2.2290   -2.0190 ca        1 UPE     -0.134500
     24 C31         6.4320    1.4140   -1.4610 ca        1 UPE     -0.127500
     25 C4'        -3.0020   -1.3810   -1.5980 c3        1 UPE      0.052100
     26 O4'        -2.1220   -2.5050   -1.3110 os        1 UPE     -0.440600
     27 C5'        -2.1630   -0.1290   -1.9530 c3        1 UPE      0.209400
     28 O5'        -2.9190    0.8030   -2.6030 os        1 UPE     -0.554200
     29 OP1        -4.8930    1.3310   -1.2100 o         1 UPE     -0.925167
     30 OP2        -2.6340    2.1390   -0.4830 o         1 UPE     -0.925167
     31 OP3        -3.7460    3.2190   -2.5460 o         1 UPE     -0.925167
     32 HN3         0.6160   -3.5300    3.5260 hn        1 UPE      0.335500
     33 H6         -0.2170   -1.2920   -0.7340 h4        1 UPE      0.244000
     34 H1'        -2.3460   -4.0170    0.0590 h2        1 UPE      0.068700
     35 H2'        -4.2260   -2.9100    0.8980 hc        1 UPE      0.059700
     36 H2'A       -3.1520   -1.6540    1.6400 hc        1 UPE      0.059700
     37 HN23        2.9840   -0.0460    2.0170 hn        1 UPE      0.323500
     38 H24         3.8170    1.1860   -0.5510 h1        1 UPE      0.061700
     39 H24A        4.1670    1.8170    1.1310 h1        1 UPE      0.061700
     40 H25         5.7360   -0.1240    1.5230 hc        1 UPE      0.054700
     41 H25A        5.3670   -0.7570   -0.1330 hc        1 UPE      0.054700
     42 H27         7.6030    1.2690    1.7430 ha        1 UPE      0.139500
     43 H28         9.3570    2.7210    0.7400 ha        1 UPE      0.122000
     44 H29         9.2390    3.3430   -1.6740 ha        1 UPE      0.117000
     45 H3'        -3.7610   -0.0620   -0.0250 h1        1 UPE      0.158700
     46 HO3'       -5.5880   -0.5140   -0.9740 ho        1 UPE      0.490000
     47 H30         7.3550    2.5060   -3.0810 ha        1 UPE      0.122000
     48 H31         5.5980    1.0460   -2.0800 ha        1 UPE      0.139500
     49 H4'        -3.6120   -1.7110   -2.4780 h1        1 UPE      0.074700
     50 H5'        -1.7170    0.2980   -1.0080 h1        1 UPE      0.002700
     51 H5'A       -1.3290   -0.4780   -2.6320 h1        1 UPE      0.002700
@<TRIPOS>BOND
     1    1   28 1   
     2    1   29 1   
     3    1   30 1   
     4    1   31 1   
     5    2    3 1   
     6    2    9 1   
     7    2   10 1   
     8    3    4 2   
     9    3    5 1   
    10    5    6 1   
    11    5   32 1   
    12    6    7 2   
    13    6    8 1   
    14    8    9 2   
    15    8   12 1   
    16    9   33 1   
    17   10   11 1   
    18   10   26 1   
    19   10   34 1   
    20   11   21 1   
    21   11   35 1   
    22   11   36 1   
    23   12   13 2   
    24   12   14 1   
    25   14   15 1   
    26   14   37 1   
    27   15   16 1   
    28   15   38 1   
    29   15   39 1   
    30   16   17 1   
    31   16   40 1   
    32   16   41 1   
    33   17   18 ar  
    34   17   24 ar  
    35   18   19 ar  
    36   18   42 1   
    37   19   20 ar  
    38   19   43 1   
    39   20   23 ar  
    40   20   44 1   
    41   21   22 1   
    42   21   25 1   
    43   21   45 1   
    44   22   46 1   
    45   23   24 ar  
    46   23   47 1   
    47   24   48 1   
    48   25   26 1   
    49   25   27 1   
    50   25   49 1   
    51   27   28 1   
    52   27   50 1   
    53   27   51 1   
@<TRIPOS>SUBSTRUCTURE
     1 UPE         1 TEMP              0 ****  ****    0 ROOT
