@<TRIPOS>MOLECULE
UPL
  104   103     1     0     0
SMALL
bcc


@<TRIPOS>ATOM
      1 C1          3.3110   -6.5230   -2.2820 c3        1 UPL     -0.092100
      2 C2          1.8430   -6.2450   -2.4820 c3        1 UPL     -0.080400
      3 C3          1.0060   -6.8610   -1.3820 c3        1 UPL     -0.079400
      4 C4         -0.4670   -6.5800   -1.5870 c3        1 UPL     -0.079400
      5 C5         -1.3040   -7.1940   -0.4850 c3        1 UPL     -0.078400
      6 C6         -2.7760   -6.9190   -0.6990 c3        1 UPL     -0.080400
      7 C7         -3.6240   -7.5830    0.3650 c3        1 UPL     -0.078400
      8 C8         -5.0940   -7.3050    0.1400 c3        1 UPL     -0.080400
      9 C9         -5.9640   -8.1040    1.0870 c3        1 UPL     -0.079400
     10 C10        -7.4310   -7.8280    0.8360 c3        1 UPL     -0.079400
     11 C11        -8.3470   -8.7650    1.5950 c3        1 UPL     -0.075400
     12 C12        -8.4210  -10.1700    1.0050 c3        1 UPL     -0.064700
     13 C13        -9.0140  -11.1340    2.0270 c3        1 UPL     -0.076400
     14 C14        -7.9890  -11.6000    3.0400 c3        1 UPL     -0.079400
     15 C15        -8.6080  -12.5450    4.0480 c3        1 UPL     -0.079400
     16 C16        -7.5850  -13.0180    5.0580 c3        1 UPL     -0.079400
     17 C17        -8.2040  -13.9620    6.0660 c3        1 UPL     -0.079400
     18 C18        -7.1810  -14.4350    7.0770 c3        1 UPL     -0.079400
     19 C19        -7.8000  -15.3790    8.0850 c3        1 UPL     -0.079400
     20 C20        -6.7770  -15.8520    9.0950 c3        1 UPL     -0.079400
     21 C21        -7.3950  -16.7970   10.1030 c3        1 UPL     -0.079400
     22 C22        -6.3720  -17.2690   11.1140 c3        1 UPL     -0.079400
     23 C23        -6.9910  -18.2140   12.1210 c3        1 UPL     -0.079400
     24 C24        -5.9690  -18.6880   13.1330 c3        1 UPL     -0.080400
     25 C25        -6.5800  -19.6290   14.1380 c3        1 UPL     -0.092100
     26 C26        -9.2500  -10.1710   -0.2730 c3        1 UPL     -0.075400
     27 C27        -9.0410  -11.3820   -1.1570 c3        1 UPL     -0.075400
     28 C28        -7.6280  -11.5810   -1.6600 c3        1 UPL     -0.076400
     29 C29        -7.0580  -10.3600   -2.3510 c3        1 UPL     -0.081400
     30 C30        -5.7620  -10.6910   -3.0620 c3        1 UPL     -0.078400
     31 C31        -5.0920   -9.4450   -3.5980 c3        1 UPL     -0.080400
     32 C32        -3.8350   -9.7860   -4.3690 c3        1 UPL     -0.079400
     33 C33        -3.1060   -8.5370   -4.8180 c3        1 UPL     -0.081400
     34 C34        -1.8880   -8.8720   -5.6390 c3        1 UPL     -0.093100
     35 H11         3.6630   -6.1030   -1.3080 hc        1 UPL      0.032700
     36 H12         3.9090   -6.0600   -3.1030 hc        1 UPL      0.032700
     37 H13         3.5070   -7.6220   -2.2800 hc        1 UPL      0.032700
     38 H21         1.6700   -5.1360   -2.5060 hc        1 UPL      0.038700
     39 H22         1.5140   -6.6520   -3.4750 hc        1 UPL      0.038700
     40 H31         1.1770   -7.9700   -1.3570 hc        1 UPL      0.039700
     41 H32         1.3320   -6.4540   -0.3890 hc        1 UPL      0.039700
     42 H41        -0.7950   -6.9910   -2.5790 hc        1 UPL      0.039200
     43 H42        -0.6380   -5.4720   -1.6160 hc        1 UPL      0.039200
     44 H51        -1.1280   -8.3020   -0.4530 hc        1 UPL      0.039700
     45 H52        -0.9830   -6.7800    0.5070 hc        1 UPL      0.039700
     46 H61        -3.0850   -7.2970   -1.7120 hc        1 UPL      0.039700
     47 H62        -2.9580   -5.8120   -0.6900 hc        1 UPL      0.039700
     48 H71        -3.3200   -7.2120    1.3790 hc        1 UPL      0.039700
     49 H72        -3.4430   -8.6900    0.3500 hc        1 UPL      0.039700
     50 H81        -5.2960   -6.2100    0.2730 hc        1 UPL      0.039700
     51 H82        -5.3660   -7.5650   -0.9190 hc        1 UPL      0.039700
     52 H91        -5.7520   -9.1970    0.9500 hc        1 UPL      0.040700
     53 H92        -5.7060   -7.8480    2.1480 hc        1 UPL      0.040700
     54 H101       -7.6380   -7.8960   -0.2650 hc        1 UPL      0.039200
     55 H102       -7.6600   -6.7720    1.1450 hc        1 UPL      0.039200
     56 H111       -7.9950   -8.8320    2.6590 hc        1 UPL      0.039700
     57 H112       -9.3800   -8.3280    1.6130 hc        1 UPL      0.039700
     58 H121       -7.3770  -10.5080    0.7540 hc        1 UPL      0.054700
     59 H131       -9.8690  -10.6380    2.5560 hc        1 UPL      0.040200
     60 H132       -9.4300  -12.0310    1.4960 hc        1 UPL      0.040200
     61 H141       -7.5510  -10.7170    3.5750 hc        1 UPL      0.039700
     62 H142       -7.1450  -12.1170    2.5110 hc        1 UPL      0.039700
     63 H151       -9.0460  -13.4300    3.5140 hc        1 UPL      0.039700
     64 H152       -9.4510  -12.0290    4.5790 hc        1 UPL      0.039700
     65 H161       -6.7420  -13.5340    4.5270 hc        1 UPL      0.039700
     66 H162       -7.1470  -12.1330    5.5920 hc        1 UPL      0.039700
     67 H171       -9.0470  -13.4460    6.5970 hc        1 UPL      0.039700
     68 H172       -8.6420  -14.8470    5.5330 hc        1 UPL      0.039700
     69 H181       -6.7430  -13.5500    7.6100 hc        1 UPL      0.039700
     70 H182       -6.3380  -14.9510    6.5460 hc        1 UPL      0.039700
     71 H191       -8.2380  -16.2640    7.5510 hc        1 UPL      0.039700
     72 H192       -8.6420  -14.8630    8.6160 hc        1 UPL      0.039700
     73 H201       -5.9340  -16.3680    8.5640 hc        1 UPL      0.039700
     74 H202       -6.3380  -14.9680    9.6290 hc        1 UPL      0.039700
     75 H211       -7.8340  -17.6810    9.5700 hc        1 UPL      0.039700
     76 H212       -8.2380  -16.2800   10.6340 hc        1 UPL      0.039700
     77 H221       -5.9340  -16.3850   11.6470 hc        1 UPL      0.039700
     78 H222       -5.5300  -17.7860   10.5820 hc        1 UPL      0.039700
     79 H231       -7.4290  -19.0990   11.5880 hc        1 UPL      0.039700
     80 H232       -7.8330  -17.6980   12.6530 hc        1 UPL      0.039700
     81 H241       -5.5300  -17.8020   13.6640 hc        1 UPL      0.038700
     82 H242       -5.1260  -19.2020   12.5990 hc        1 UPL      0.038700
     83 H251       -7.0010  -20.5300   13.6300 hc        1 UPL      0.032700
     84 H252       -7.4060  -19.1260   14.6980 hc        1 UPL      0.032700
     85 H253       -5.8100  -19.9650   14.8740 hc        1 UPL      0.032700
     86 H261      -10.3380  -10.1130    0.0030 hc        1 UPL      0.039700
     87 H262       -9.0150   -9.2490   -0.8690 hc        1 UPL      0.039700
     88 H271       -9.7280  -11.2840   -2.0420 hc        1 UPL      0.036700
     89 H272       -9.3510  -12.3080   -0.6020 hc        1 UPL      0.036700
     90 H281       -6.9570  -11.8690   -0.8080 hc        1 UPL      0.038200
     91 H282       -7.6280  -12.4450   -2.3780 hc        1 UPL      0.038200
     92 H291       -7.8010   -9.9580   -3.0880 hc        1 UPL      0.042200
     93 H292       -6.8720   -9.5530   -1.5910 hc        1 UPL      0.042200
     94 H301       -5.9680  -11.4020   -3.9060 hc        1 UPL      0.038700
     95 H302       -5.0670  -11.2130   -2.3530 hc        1 UPL      0.038700
     96 H311       -4.8350   -8.7590   -2.7460 hc        1 UPL      0.039700
     97 H312       -5.8040   -8.8900   -4.2650 hc        1 UPL      0.039700
     98 H321       -4.1000  -10.4080   -5.2640 hc        1 UPL      0.039700
     99 H322       -3.1540  -10.4040   -3.7270 hc        1 UPL      0.039700
    100 H331       -2.8000   -7.9390   -3.9180 hc        1 UPL      0.038700
    101 H332       -3.8020   -7.8940   -5.4200 hc        1 UPL      0.038700
    102 H341       -2.1750   -9.4410   -6.5570 hc        1 UPL      0.032367
    103 H342       -1.1750   -9.4970   -5.0490 hc        1 UPL      0.032367
    104 H343       -1.3630   -7.9380   -5.9540 hc        1 UPL      0.032367
@<TRIPOS>BOND
     1    1    2 1   
     2    1   35 1   
     3    1   36 1   
     4    1   37 1   
     5    2    3 1   
     6    2   38 1   
     7    2   39 1   
     8    3    4 1   
     9    3   40 1   
    10    3   41 1   
    11    4    5 1   
    12    4   42 1   
    13    4   43 1   
    14    5    6 1   
    15    5   44 1   
    16    5   45 1   
    17    6    7 1   
    18    6   46 1   
    19    6   47 1   
    20    7    8 1   
    21    7   48 1   
    22    7   49 1   
    23    8    9 1   
    24    8   50 1   
    25    8   51 1   
    26    9   10 1   
    27    9   52 1   
    28    9   53 1   
    29   10   11 1   
    30   10   54 1   
    31   10   55 1   
    32   11   12 1   
    33   11   56 1   
    34   11   57 1   
    35   12   13 1   
    36   12   26 1   
    37   12   58 1   
    38   13   14 1   
    39   13   59 1   
    40   13   60 1   
    41   14   15 1   
    42   14   61 1   
    43   14   62 1   
    44   15   16 1   
    45   15   63 1   
    46   15   64 1   
    47   16   17 1   
    48   16   65 1   
    49   16   66 1   
    50   17   18 1   
    51   17   67 1   
    52   17   68 1   
    53   18   19 1   
    54   18   69 1   
    55   18   70 1   
    56   19   20 1   
    57   19   71 1   
    58   19   72 1   
    59   20   21 1   
    60   20   73 1   
    61   20   74 1   
    62   21   22 1   
    63   21   75 1   
    64   21   76 1   
    65   22   23 1   
    66   22   77 1   
    67   22   78 1   
    68   23   24 1   
    69   23   79 1   
    70   23   80 1   
    71   24   25 1   
    72   24   81 1   
    73   24   82 1   
    74   25   83 1   
    75   25   84 1   
    76   25   85 1   
    77   26   27 1   
    78   26   86 1   
    79   26   87 1   
    80   27   28 1   
    81   27   88 1   
    82   27   89 1   
    83   28   29 1   
    84   28   90 1   
    85   28   91 1   
    86   29   30 1   
    87   29   92 1   
    88   29   93 1   
    89   30   31 1   
    90   30   94 1   
    91   30   95 1   
    92   31   32 1   
    93   31   96 1   
    94   31   97 1   
    95   32   33 1   
    96   32   98 1   
    97   32   99 1   
    98   33   34 1   
    99   33  100 1   
   100   33  101 1   
   101   34  102 1   
   102   34  103 1   
   103   34  104 1   
@<TRIPOS>SUBSTRUCTURE
     1 UPL         1 TEMP              0 ****  ****    0 ROOT
