@<TRIPOS>MOLECULE
UPL
  104   103     1     0     0
SMALL
bcc


@<TRIPOS>ATOM
      1 C1         -0.3540   -0.6400    1.8690 c3        1 UPL     -0.092100
      2 C2          1.0490   -0.0970    1.7780 c3        1 UPL     -0.080400
      3 C3          1.9240   -0.6290    2.8930 c3        1 UPL     -0.079400
      4 C4          3.3320   -0.0810    2.7990 c3        1 UPL     -0.079400
      5 C5          4.2070   -0.6170    3.9120 c3        1 UPL     -0.078400
      6 C6          5.6100   -0.0590    3.8200 c3        1 UPL     -0.080400
      7 C7          6.4740   -0.5410    4.9650 c3        1 UPL     -0.078400
      8 C8          7.8740    0.0250    4.8660 c3        1 UPL     -0.080400
      9 C9          8.6960   -0.3030    6.0950 c3        1 UPL     -0.079400
     10 C10        10.0870    0.2860    5.9860 c3        1 UPL     -0.079400
     11 C11        10.8720    0.1860    7.2770 c3        1 UPL     -0.075400
     12 C12        10.4380    1.1850    8.3450 c3        1 UPL     -0.064700
     13 C13        10.9730    0.7590    9.7070 c3        1 UPL     -0.076400
     14 C14        10.1220   -0.3150   10.3490 c3        1 UPL     -0.079400
     15 C15        10.6840   -0.7270   11.6940 c3        1 UPL     -0.079400
     16 C16         9.8310   -1.7980   12.3410 c3        1 UPL     -0.079400
     17 C17        10.3920   -2.2090   13.6850 c3        1 UPL     -0.079400
     18 C18         9.5400   -3.2800   14.3320 c3        1 UPL     -0.079400
     19 C19        10.1010   -3.6910   15.6760 c3        1 UPL     -0.079400
     20 C20         9.2480   -4.7610   16.3230 c3        1 UPL     -0.079400
     21 C21         9.8090   -5.1730   17.6670 c3        1 UPL     -0.079400
     22 C22         8.9570   -6.2430   18.3150 c3        1 UPL     -0.079400
     23 C23         9.5180   -6.6550   19.6590 c3        1 UPL     -0.079400
     24 C24         8.6650   -7.7250   20.3070 c3        1 UPL     -0.080400
     25 C25         9.2200   -8.1380   21.6460 c3        1 UPL     -0.092100
     26 C26        10.9240    2.5860    7.9950 c3        1 UPL     -0.075400
     27 C27        10.2090    3.7010    8.7290 c3        1 UPL     -0.075400
     28 C28         8.7160    3.7810    8.4890 c3        1 UPL     -0.076400
     29 C29         8.3450    3.8360    7.0230 c3        1 UPL     -0.081400
     30 C30         6.8810    4.1810    6.8440 c3        1 UPL     -0.078400
     31 C31         6.4570    4.0580    5.3960 c3        1 UPL     -0.080400
     32 C32         5.0130    4.4710    5.2100 c3        1 UPL     -0.079400
     33 C33         4.5550    4.2510    3.7830 c3        1 UPL     -0.081400
     34 C34         3.1370    4.7190    3.5790 c3        1 UPL     -0.093100
     35 H11        -0.8260   -0.3530    2.8390 hc        1 UPL      0.032700
     36 H12        -0.9810   -0.2350    1.0380 hc        1 UPL      0.032700
     37 H13        -0.3510   -1.7540    1.7980 hc        1 UPL      0.032700
     38 H21         1.4970   -0.3740    0.7870 hc        1 UPL      0.038700
     39 H22         1.0240    1.0240    1.8260 hc        1 UPL      0.038700
     40 H31         1.4780   -0.3520    3.8850 hc        1 UPL      0.039700
     41 H32         1.9520   -1.7500    2.8450 hc        1 UPL      0.039700
     42 H41         3.7760   -0.3560    1.8060 hc        1 UPL      0.039200
     43 H42         3.3040    1.0400    2.8500 hc        1 UPL      0.039200
     44 H51         4.2420   -1.7370    3.8590 hc        1 UPL      0.039700
     45 H52         3.7590   -0.3470    4.9040 hc        1 UPL      0.039700
     46 H61         6.0740   -0.3630    2.8440 hc        1 UPL      0.039700
     47 H62         5.5690    1.0640    3.8300 hc        1 UPL      0.039700
     48 H71         6.5180   -1.6620    4.9620 hc        1 UPL      0.039700
     49 H72         6.0100   -0.2310    5.9390 hc        1 UPL      0.039700
     50 H81         7.8180    1.1410    4.7460 hc        1 UPL      0.039700
     51 H82         8.3810   -0.3810    3.9520 hc        1 UPL      0.039700
     52 H91         8.7640   -1.4150    6.2220 hc        1 UPL      0.040700
     53 H92         8.1790    0.1030    7.0040 hc        1 UPL      0.040700
     54 H101       10.6490   -0.2570    5.1800 hc        1 UPL      0.039200
     55 H102       10.0120    1.3580    5.6640 hc        1 UPL      0.039200
     56 H111       10.7680   -0.8540    7.6850 hc        1 UPL      0.039700
     57 H112       11.9600    0.3480    7.0540 hc        1 UPL      0.039700
     58 H121        9.3130    1.1970    8.3870 hc        1 UPL      0.054700
     59 H131       12.0270    0.3900    9.5950 hc        1 UPL      0.040200
     60 H132       11.0080    1.6490   10.3900 hc        1 UPL      0.040200
     61 H141        9.0740    0.0640   10.4810 hc        1 UPL      0.039700
     62 H142       10.0650   -1.2120    9.6770 hc        1 UPL      0.039700
     63 H151       10.7400    0.1680   12.3680 hc        1 UPL      0.039700
     64 H152       11.7310   -1.1090   11.5630 hc        1 UPL      0.039700
     65 H161        8.7840   -1.4160   12.4710 hc        1 UPL      0.039700
     66 H162        9.7750   -2.6920   11.6660 hc        1 UPL      0.039700
     67 H171       11.4400   -2.5910   13.5540 hc        1 UPL      0.039700
     68 H172       10.4490   -1.3140   14.3590 hc        1 UPL      0.039700
     69 H181        8.4930   -2.8980   14.4620 hc        1 UPL      0.039700
     70 H182        9.4840   -4.1750   13.6580 hc        1 UPL      0.039700
     71 H191       10.1570   -2.7960   16.3500 hc        1 UPL      0.039700
     72 H192       11.1480   -4.0720   15.5460 hc        1 UPL      0.039700
     73 H201        9.1920   -5.6560   15.6490 hc        1 UPL      0.039700
     74 H202        8.2010   -4.3800   16.4540 hc        1 UPL      0.039700
     75 H211       10.8560   -5.5540   17.5370 hc        1 UPL      0.039700
     76 H212        9.8660   -4.2780   18.3410 hc        1 UPL      0.039700
     77 H221        7.9090   -5.8620   18.4450 hc        1 UPL      0.039700
     78 H222        8.9000   -7.1380   17.6400 hc        1 UPL      0.039700
     79 H231       10.5650   -7.0360   19.5290 hc        1 UPL      0.039700
     80 H232        9.5740   -5.7600   20.3330 hc        1 UPL      0.039700
     81 H241        8.6090   -8.6180   19.6310 hc        1 UPL      0.038700
     82 H242        7.6180   -7.3420   20.4350 hc        1 UPL      0.038700
     83 H251        8.5780   -8.9270   22.1060 hc        1 UPL      0.032700
     84 H252       10.2540   -8.5450   21.5360 hc        1 UPL      0.032700
     85 H253        9.2610   -7.2660   22.3420 hc        1 UPL      0.032700
     86 H261       10.8090    2.7550    6.8910 hc        1 UPL      0.039700
     87 H262       12.0210    2.6550    8.2240 hc        1 UPL      0.039700
     88 H271       10.3830    3.5940    9.8330 hc        1 UPL      0.036700
     89 H272       10.6760    4.6740    8.4150 hc        1 UPL      0.036700
     90 H281        8.3260    4.7000    9.0040 hc        1 UPL      0.038200
     91 H282        8.2060    2.9020    8.9660 hc        1 UPL      0.038200
     92 H291        8.9790    4.5970    6.4980 hc        1 UPL      0.042200
     93 H292        8.5550    2.8400    6.5460 hc        1 UPL      0.042200
     94 H301        6.6940    5.2270    7.2040 hc        1 UPL      0.038700
     95 H302        6.2540    3.4980    7.4760 hc        1 UPL      0.038700
     96 H311        7.1170    4.6980    4.7540 hc        1 UPL      0.039700
     97 H312        6.5910    2.9960    5.0540 hc        1 UPL      0.039700
     98 H321        4.3590    3.8830    5.9070 hc        1 UPL      0.039700
     99 H322        4.8940    5.5530    5.4800 hc        1 UPL      0.039700
    100 H331        4.6300    3.1590    3.5310 hc        1 UPL      0.038700
    101 H332        5.2380    4.8000    3.0820 hc        1 UPL      0.038700
    102 H341        3.0470    5.8110    3.7960 hc        1 UPL      0.032367
    103 H342        2.4390    4.1700    4.2560 hc        1 UPL      0.032367
    104 H343        2.8180    4.5420    2.5240 hc        1 UPL      0.032367
@<TRIPOS>BOND
     1    1    2 1   
     2    1   35 1   
     3    1   36 1   
     4    1   37 1   
     5    2    3 1   
     6    2   38 1   
     7    2   39 1   
     8    3    4 1   
     9    3   40 1   
    10    3   41 1   
    11    4    5 1   
    12    4   42 1   
    13    4   43 1   
    14    5    6 1   
    15    5   44 1   
    16    5   45 1   
    17    6    7 1   
    18    6   46 1   
    19    6   47 1   
    20    7    8 1   
    21    7   48 1   
    22    7   49 1   
    23    8    9 1   
    24    8   50 1   
    25    8   51 1   
    26    9   10 1   
    27    9   52 1   
    28    9   53 1   
    29   10   11 1   
    30   10   54 1   
    31   10   55 1   
    32   11   12 1   
    33   11   56 1   
    34   11   57 1   
    35   12   13 1   
    36   12   26 1   
    37   12   58 1   
    38   13   14 1   
    39   13   59 1   
    40   13   60 1   
    41   14   15 1   
    42   14   61 1   
    43   14   62 1   
    44   15   16 1   
    45   15   63 1   
    46   15   64 1   
    47   16   17 1   
    48   16   65 1   
    49   16   66 1   
    50   17   18 1   
    51   17   67 1   
    52   17   68 1   
    53   18   19 1   
    54   18   69 1   
    55   18   70 1   
    56   19   20 1   
    57   19   71 1   
    58   19   72 1   
    59   20   21 1   
    60   20   73 1   
    61   20   74 1   
    62   21   22 1   
    63   21   75 1   
    64   21   76 1   
    65   22   23 1   
    66   22   77 1   
    67   22   78 1   
    68   23   24 1   
    69   23   79 1   
    70   23   80 1   
    71   24   25 1   
    72   24   81 1   
    73   24   82 1   
    74   25   83 1   
    75   25   84 1   
    76   25   85 1   
    77   26   27 1   
    78   26   86 1   
    79   26   87 1   
    80   27   28 1   
    81   27   88 1   
    82   27   89 1   
    83   28   29 1   
    84   28   90 1   
    85   28   91 1   
    86   29   30 1   
    87   29   92 1   
    88   29   93 1   
    89   30   31 1   
    90   30   94 1   
    91   30   95 1   
    92   31   32 1   
    93   31   96 1   
    94   31   97 1   
    95   32   33 1   
    96   32   98 1   
    97   32   99 1   
    98   33   34 1   
    99   33  100 1   
   100   33  101 1   
   101   34  102 1   
   102   34  103 1   
   103   34  104 1   
@<TRIPOS>SUBSTRUCTURE
     1 UPL         1 TEMP              0 ****  ****    0 ROOT
