@<TRIPOS>MOLECULE
UPL
  104   103     1     0     0
SMALL
bcc


@<TRIPOS>ATOM
      1 C1         -0.4110   -0.5530    1.9200 c3        1 UPL     -0.092100
      2 C2          1.0000   -0.0360    1.8170 c3        1 UPL     -0.080400
      3 C3          1.8730   -0.5750    2.9310 c3        1 UPL     -0.079400
      4 C4          3.2890   -0.0530    2.8230 c3        1 UPL     -0.079400
      5 C5          4.1610   -0.5940    3.9350 c3        1 UPL     -0.078400
      6 C6          5.5740   -0.0620    3.8300 c3        1 UPL     -0.080400
      7 C7          6.4360   -0.5490    4.9750 c3        1 UPL     -0.078400
      8 C8          7.8450   -0.0090    4.8620 c3        1 UPL     -0.080400
      9 C9          8.6690   -0.3400    6.0890 c3        1 UPL     -0.079400
     10 C10        10.0690    0.2240    5.9670 c3        1 UPL     -0.079400
     11 C11        10.8610    0.1200    7.2530 c3        1 UPL     -0.075400
     12 C12        10.4500    1.1340    8.3170 c3        1 UPL     -0.064700
     13 C13        10.9900    0.7090    9.6780 c3        1 UPL     -0.076400
     14 C14        10.1280   -0.3490   10.3340 c3        1 UPL     -0.079400
     15 C15        10.6940   -0.7590   11.6770 c3        1 UPL     -0.079400
     16 C16         9.8330   -1.8140   12.3370 c3        1 UPL     -0.079400
     17 C17        10.3990   -2.2240   13.6800 c3        1 UPL     -0.079400
     18 C18         9.5380   -3.2800   14.3400 c3        1 UPL     -0.079400
     19 C19        10.1040   -3.6890   15.6830 c3        1 UPL     -0.079400
     20 C20         9.2440   -4.7460   16.3430 c3        1 UPL     -0.079400
     21 C21         9.8090   -5.1550   17.6860 c3        1 UPL     -0.079400
     22 C22         8.9500   -6.2130   18.3450 c3        1 UPL     -0.079400
     23 C23         9.5140   -6.6200   19.6890 c3        1 UPL     -0.079400
     24 C24         8.6560   -7.6780   20.3490 c3        1 UPL     -0.080400
     25 C25         9.2140   -8.0870   21.6880 c3        1 UPL     -0.092100
     26 C26        10.9540    2.5250    7.9540 c3        1 UPL     -0.075400
     27 C27        10.2600    3.6550    8.6840 c3        1 UPL     -0.075400
     28 C28         8.7680    3.7560    8.4510 c3        1 UPL     -0.076400
     29 C29         8.3890    3.8070    6.9870 c3        1 UPL     -0.081400
     30 C30         6.9300    4.1750    6.8130 c3        1 UPL     -0.078400
     31 C31         6.4970    4.0490    5.3680 c3        1 UPL     -0.080400
     32 C32         5.0590    4.4850    5.1860 c3        1 UPL     -0.079400
     33 C33         4.5900    4.2630    3.7640 c3        1 UPL     -0.081400
     34 C34         3.1790    4.7540    3.5630 c3        1 UPL     -0.093100
     35 H11        -0.8720   -0.2490    2.8910 hc        1 UPL      0.032700
     36 H12        -1.0370   -0.1440    1.0900 hc        1 UPL      0.032700
     37 H13        -0.4290   -1.6680    1.8590 hc        1 UPL      0.032700
     38 H21         1.4370   -0.3300    0.8250 hc        1 UPL      0.038700
     39 H22         0.9950    1.0850    1.8550 hc        1 UPL      0.038700
     40 H31         1.4380   -0.2810    3.9220 hc        1 UPL      0.039700
     41 H32         1.8810   -1.6960    2.8920 hc        1 UPL      0.039700
     42 H41         3.7230   -0.3430    1.8300 hc        1 UPL      0.039200
     43 H42         3.2820    1.0690    2.8650 hc        1 UPL      0.039200
     44 H51         4.1760   -1.7150    3.8920 hc        1 UPL      0.039700
     45 H52         3.7240   -0.3080    4.9280 hc        1 UPL      0.039700
     46 H61         6.0260   -0.3840    2.8550 hc        1 UPL      0.039700
     47 H62         5.5530    1.0610    3.8300 hc        1 UPL      0.039700
     48 H71         6.4600   -1.6710    4.9810 hc        1 UPL      0.039700
     49 H72         5.9840   -0.2230    5.9490 hc        1 UPL      0.039700
     50 H81         7.8080    1.1060    4.7310 hc        1 UPL      0.039700
     51 H82         8.3400   -0.4330    3.9490 hc        1 UPL      0.039700
     52 H91         8.7180   -1.4520    6.2260 hc        1 UPL      0.040700
     53 H92         8.1640    0.0830    6.9970 hc        1 UPL      0.040700
     54 H101       10.6160   -0.3350    5.1610 hc        1 UPL      0.039200
     55 H102       10.0100    1.2950    5.6370 hc        1 UPL      0.039200
     56 H111       10.7420   -0.9160    7.6690 hc        1 UPL      0.039700
     57 H112       11.9500    0.2640    7.0220 hc        1 UPL      0.039700
     58 H121        9.3260    1.1620    8.3680 hc        1 UPL      0.054700
     59 H131       12.0370    0.3250    9.5610 hc        1 UPL      0.040200
     60 H132       11.0410    1.6030   10.3550 hc        1 UPL      0.040200
     61 H141        9.0860    0.0450   10.4710 hc        1 UPL      0.039700
     62 H142       10.0540   -1.2500    9.6690 hc        1 UPL      0.039700
     63 H151       10.7660    0.1390   12.3450 hc        1 UPL      0.039200
     64 H152       11.7350   -1.1540   11.5420 hc        1 UPL      0.039200
     65 H161        8.7910   -1.4200   12.4730 hc        1 UPL      0.039700
     66 H162        9.7610   -2.7130   11.6700 hc        1 UPL      0.039700
     67 H171       11.4400   -2.6180   13.5450 hc        1 UPL      0.039700
     68 H172       10.4690   -1.3250   14.3480 hc        1 UPL      0.039700
     69 H181        8.4960   -2.8860   14.4750 hc        1 UPL      0.039700
     70 H182        9.4680   -4.1790   13.6720 hc        1 UPL      0.039700
     71 H191       10.1740   -2.7910   16.3510 hc        1 UPL      0.039700
     72 H192       11.1460   -4.0820   15.5490 hc        1 UPL      0.039700
     73 H201        9.1750   -5.6450   15.6750 hc        1 UPL      0.039700
     74 H202        8.2020   -4.3540   16.4770 hc        1 UPL      0.039700
     75 H211       10.8520   -5.5470   17.5520 hc        1 UPL      0.039700
     76 H212        9.8780   -4.2560   18.3540 hc        1 UPL      0.039700
     77 H221        7.9070   -5.8210   18.4790 hc        1 UPL      0.039700
     78 H222        8.8820   -7.1120   17.6770 hc        1 UPL      0.039700
     79 H231       10.5570   -7.0120   19.5560 hc        1 UPL      0.039700
     80 H232        9.5820   -5.7210   20.3570 hc        1 UPL      0.039700
     81 H241        8.5890   -8.5760   19.6790 hc        1 UPL      0.038700
     82 H242        7.6130   -7.2850   20.4800 hc        1 UPL      0.038700
     83 H251        8.5670   -8.8670   22.1570 hc        1 UPL      0.032700
     84 H252       10.2440   -8.5040   21.5750 hc        1 UPL      0.032700
     85 H253        9.2660   -7.2110   22.3780 hc        1 UPL      0.032700
     86 H261       10.8350    2.6870    6.8490 hc        1 UPL      0.039700
     87 H262       12.0540    2.5790    8.1750 hc        1 UPL      0.039700
     88 H271       10.4380    3.5530    9.7880 hc        1 UPL      0.036700
     89 H272       10.7400    4.6190    8.3620 hc        1 UPL      0.036700
     90 H281        8.3940    4.6850    8.9620 hc        1 UPL      0.038200
     91 H282        8.2460    2.8880    8.9370 hc        1 UPL      0.038200
     92 H291        9.0330    4.5550    6.4530 hc        1 UPL      0.042200
     93 H292        8.5810    2.8050    6.5160 hc        1 UPL      0.042200
     94 H301        6.7630    5.2260    7.1660 hc        1 UPL      0.038700
     95 H302        6.2950    3.5070    7.4530 hc        1 UPL      0.038700
     96 H311        7.1650    4.6730    4.7180 hc        1 UPL      0.039700
     97 H312        6.6110    2.9830    5.0320 hc        1 UPL      0.039700
     98 H321        4.3990    3.9130    5.8900 hc        1 UPL      0.039700
     99 H322        4.9600    5.5710    5.4490 hc        1 UPL      0.039700
    100 H331        4.6460    3.1680    3.5190 hc        1 UPL      0.038700
    101 H332        5.2790    4.7950    3.0550 hc        1 UPL      0.038700
    102 H341        3.1090    5.8490    3.7720 hc        1 UPL      0.032367
    103 H342        2.4760    4.2220    4.2480 hc        1 UPL      0.032367
    104 H343        2.8520    4.5750    2.5110 hc        1 UPL      0.032367
@<TRIPOS>BOND
     1    1    2 1   
     2    1   35 1   
     3    1   36 1   
     4    1   37 1   
     5    2    3 1   
     6    2   38 1   
     7    2   39 1   
     8    3    4 1   
     9    3   40 1   
    10    3   41 1   
    11    4    5 1   
    12    4   42 1   
    13    4   43 1   
    14    5    6 1   
    15    5   44 1   
    16    5   45 1   
    17    6    7 1   
    18    6   46 1   
    19    6   47 1   
    20    7    8 1   
    21    7   48 1   
    22    7   49 1   
    23    8    9 1   
    24    8   50 1   
    25    8   51 1   
    26    9   10 1   
    27    9   52 1   
    28    9   53 1   
    29   10   11 1   
    30   10   54 1   
    31   10   55 1   
    32   11   12 1   
    33   11   56 1   
    34   11   57 1   
    35   12   13 1   
    36   12   26 1   
    37   12   58 1   
    38   13   14 1   
    39   13   59 1   
    40   13   60 1   
    41   14   15 1   
    42   14   61 1   
    43   14   62 1   
    44   15   16 1   
    45   15   63 1   
    46   15   64 1   
    47   16   17 1   
    48   16   65 1   
    49   16   66 1   
    50   17   18 1   
    51   17   67 1   
    52   17   68 1   
    53   18   19 1   
    54   18   69 1   
    55   18   70 1   
    56   19   20 1   
    57   19   71 1   
    58   19   72 1   
    59   20   21 1   
    60   20   73 1   
    61   20   74 1   
    62   21   22 1   
    63   21   75 1   
    64   21   76 1   
    65   22   23 1   
    66   22   77 1   
    67   22   78 1   
    68   23   24 1   
    69   23   79 1   
    70   23   80 1   
    71   24   25 1   
    72   24   81 1   
    73   24   82 1   
    74   25   83 1   
    75   25   84 1   
    76   25   85 1   
    77   26   27 1   
    78   26   86 1   
    79   26   87 1   
    80   27   28 1   
    81   27   88 1   
    82   27   89 1   
    83   28   29 1   
    84   28   90 1   
    85   28   91 1   
    86   29   30 1   
    87   29   92 1   
    88   29   93 1   
    89   30   31 1   
    90   30   94 1   
    91   30   95 1   
    92   31   32 1   
    93   31   96 1   
    94   31   97 1   
    95   32   33 1   
    96   32   98 1   
    97   32   99 1   
    98   33   34 1   
    99   33  100 1   
   100   33  101 1   
   101   34  102 1   
   102   34  103 1   
   103   34  104 1   
@<TRIPOS>SUBSTRUCTURE
     1 UPL         1 TEMP              0 ****  ****    0 ROOT
