@<TRIPOS>MOLECULE
UPL
  104   103     1     0     0
SMALL
bcc


@<TRIPOS>ATOM
      1 C1         -5.0080   -5.7120  -11.7880 c3        1 UPL     -0.092100
      2 C2         -5.0470   -4.3760  -11.0790 c3        1 UPL     -0.080400
      3 C3         -4.9920   -4.5970   -9.5840 c3        1 UPL     -0.079400
      4 C4         -4.8750   -3.2630   -8.8810 c3        1 UPL     -0.079400
      5 C5         -4.7150   -3.4890   -7.3930 c3        1 UPL     -0.079400
      6 C6         -4.3710   -2.1790   -6.7180 c3        1 UPL     -0.079400
      7 C7         -3.8600   -2.4510   -5.3200 c3        1 UPL     -0.079400
      8 C8         -3.4660   -1.1460   -4.6650 c3        1 UPL     -0.079400
      9 C9         -2.6120   -1.4300   -3.4490 c3        1 UPL     -0.079400
     10 C10        -2.2400   -0.1260   -2.7780 c3        1 UPL     -0.079400
     11 C11        -0.8790   -0.2630   -2.1300 c3        1 UPL     -0.077400
     12 C12        -0.7290    0.7830   -1.0470 c3        1 UPL     -0.063700
     13 C13         0.4580    0.4390   -0.1750 c3        1 UPL     -0.077400
     14 C14        -0.0050   -0.3920    1.0020 c3        1 UPL     -0.079400
     15 C15         1.1900   -1.0550    1.6520 c3        1 UPL     -0.079400
     16 C16         0.8450   -1.4310    3.0760 c3        1 UPL     -0.079400
     17 C17         1.9970   -2.1960    3.6890 c3        1 UPL     -0.079400
     18 C18         1.7920   -2.3050    5.1840 c3        1 UPL     -0.079400
     19 C19         2.8900   -3.1560    5.7830 c3        1 UPL     -0.079400
     20 C20         2.8570   -3.0340    7.2900 c3        1 UPL     -0.079400
     21 C21         4.0400   -3.7680    7.8820 c3        1 UPL     -0.079400
     22 C22         4.1410   -3.4550    9.3580 c3        1 UPL     -0.079400
     23 C23         5.3000   -4.2210    9.9580 c3        1 UPL     -0.079400
     24 C24         5.4390   -3.8610   11.4210 c3        1 UPL     -0.080400
     25 C25         6.6770   -4.5210   11.9870 c3        1 UPL     -0.092100
     26 C26        -0.5130    2.1390   -1.6820 c3        1 UPL     -0.077400
     27 C27        -0.6740    3.2180   -0.6340 c3        1 UPL     -0.079400
     28 C28        -0.3840    4.5690   -1.2520 c3        1 UPL     -0.079400
     29 C29        -0.1230    5.5790   -0.1570 c3        1 UPL     -0.079400
     30 C30         0.1940    6.9230   -0.7750 c3        1 UPL     -0.079400
     31 C31         0.5950    7.8960    0.3110 c3        1 UPL     -0.079400
     32 C32         0.9370    9.2320   -0.3100 c3        1 UPL     -0.079400
     33 C33         1.6680   10.0870    0.7020 c3        1 UPL     -0.080400
     34 C34         2.0050   11.4250    0.0830 c3        1 UPL     -0.092100
     35 H11        -4.9250   -5.5670  -12.7540 hc        1 UPL      0.032700
     36 H12        -5.8330   -6.2050  -11.6020 hc        1 UPL      0.032700
     37 H13        -4.2390   -6.2290  -11.4690 hc        1 UPL      0.032700
     38 H21        -5.8750   -3.9090  -11.3090 hc        1 UPL      0.038700
     39 H22        -4.2800   -3.8360  -11.3580 hc        1 UPL      0.038700
     40 H31        -5.8080   -5.0500   -9.2910 hc        1 UPL      0.039700
     41 H32        -4.2160   -5.1500   -9.3640 hc        1 UPL      0.039700
     42 H41        -5.6820   -2.7360   -9.0450 hc        1 UPL      0.039700
     43 H42        -4.0960   -2.7810   -9.2230 hc        1 UPL      0.039700
     44 H51        -5.5520   -3.8360   -7.0240 hc        1 UPL      0.039700
     45 H52        -3.9970   -4.1340   -7.2370 hc        1 UPL      0.039700
     46 H61        -5.1700   -1.6170   -6.6700 hc        1 UPL      0.039700
     47 H62        -3.6790   -1.7180   -7.2340 hc        1 UPL      0.039700
     48 H71        -4.5640   -2.8810   -4.7940 hc        1 UPL      0.039700
     49 H72        -3.0810   -3.0410   -5.3670 hc        1 UPL      0.039700
     50 H81        -2.9580   -0.6020   -5.3000 hc        1 UPL      0.039700
     51 H82        -4.2710   -0.6620   -4.3920 hc        1 UPL      0.039700
     52 H91        -3.1130   -1.9890   -2.8210 hc        1 UPL      0.039700
     53 H92        -1.7980   -1.8990   -3.7240 hc        1 UPL      0.039700
     54 H101       -2.9060    0.0900   -2.0950 hc        1 UPL      0.040200
     55 H102       -2.2130    0.5880   -3.4450 hc        1 UPL      0.040200
     56 H111       -0.1830   -0.1350   -2.8050 hc        1 UPL      0.041200
     57 H112       -0.7930   -1.1540   -1.7360 hc        1 UPL      0.041200
     58 H121       -1.5390    0.8050   -0.5020 hc        1 UPL      0.049700
     59 H131        0.8730    1.2630    0.1510 hc        1 UPL      0.041200
     60 H132        1.1100   -0.0700   -0.6970 hc        1 UPL      0.041200
     61 H141       -0.4520    0.1850    1.6530 hc        1 UPL      0.040200
     62 H142       -0.6290   -1.0780    0.6910 hc        1 UPL      0.040200
     63 H151        1.9460   -0.4350    1.6530 hc        1 UPL      0.039700
     64 H152        1.4290   -1.8600    1.1500 hc        1 UPL      0.039700
     65 H161        0.6780   -0.6200    3.5960 hc        1 UPL      0.039700
     66 H162        0.0430   -1.9910    3.0800 hc        1 UPL      0.039700
     67 H171        2.0380   -3.0920    3.2990 hc        1 UPL      0.039700
     68 H172        2.8350   -1.7240    3.5080 hc        1 UPL      0.039700
     69 H181        1.8170   -1.4120    5.5820 hc        1 UPL      0.039700
     70 H182        0.9240   -2.7190    5.3640 hc        1 UPL      0.039700
     71 H191        2.7530   -4.0910    5.5280 hc        1 UPL      0.039700
     72 H192        3.7570   -2.8510    5.4490 hc        1 UPL      0.039700
     73 H201        2.0270   -3.4240    7.6310 hc        1 UPL      0.039700
     74 H202        2.9010   -2.0890    7.5410 hc        1 UPL      0.039700
     75 H211        4.8600   -3.4820    7.4310 hc        1 UPL      0.039700
     76 H212        3.9200   -4.7310    7.7600 hc        1 UPL      0.039700
     77 H221        3.3110   -3.7180    9.8050 hc        1 UPL      0.039700
     78 H222        4.2870   -2.4960    9.4790 hc        1 UPL      0.039700
     79 H231        6.1240   -3.9890    9.4850 hc        1 UPL      0.039700
     80 H232        5.1350   -5.1820    9.8730 hc        1 UPL      0.039700
     81 H241        4.6510   -4.1740   11.9100 hc        1 UPL      0.038700
     82 H242        5.5150   -2.8910   11.5120 hc        1 UPL      0.038700
     83 H251        6.5440   -5.4910   12.0220 hc        1 UPL      0.032700
     84 H252        6.8440   -4.1810   12.8910 hc        1 UPL      0.032700
     85 H253        7.4460   -4.3170   11.4140 hc        1 UPL      0.032700
     86 H261       -1.1700    2.2750   -2.3940 hc        1 UPL      0.041200
     87 H262        0.3890    2.1820   -2.0590 hc        1 UPL      0.041200
     88 H271       -1.5900    3.2060   -0.2930 hc        1 UPL      0.040200
     89 H272       -0.0500    3.0550    0.1010 hc        1 UPL      0.040200
     90 H281       -1.1530    4.8560   -1.7840 hc        1 UPL      0.039700
     91 H282        0.4040    4.5010   -1.8280 hc        1 UPL      0.039700
     92 H291       -0.9180    5.6590    0.4080 hc        1 UPL      0.039700
     93 H292        0.6340    5.2830    0.3860 hc        1 UPL      0.039700
     94 H301        0.9290    6.8230   -1.4120 hc        1 UPL      0.039700
     95 H302       -0.5970    7.2620   -1.2410 hc        1 UPL      0.039700
     96 H311       -0.1470    8.0080    0.9390 hc        1 UPL      0.039700
     97 H312        1.3760    7.5490    0.7880 hc        1 UPL      0.039700
     98 H321        1.5080    9.0920   -1.0920 hc        1 UPL      0.039700
     99 H322        0.1140    9.6840   -0.5840 hc        1 UPL      0.039700
    100 H331        1.0980   10.2240    1.4850 hc        1 UPL      0.038700
    101 H332        2.4920    9.6360    0.9740 hc        1 UPL      0.038700
    102 H341        2.3150   11.2910   -0.8370 hc        1 UPL      0.032700
    103 H342        2.7120   11.8580    0.6060 hc        1 UPL      0.032700
    104 H343        1.2070   11.9940    0.0790 hc        1 UPL      0.032700
@<TRIPOS>BOND
     1    1    2 1   
     2    1   35 1   
     3    1   36 1   
     4    1   37 1   
     5    2    3 1   
     6    2   38 1   
     7    2   39 1   
     8    3    4 1   
     9    3   40 1   
    10    3   41 1   
    11    4    5 1   
    12    4   42 1   
    13    4   43 1   
    14    5    6 1   
    15    5   44 1   
    16    5   45 1   
    17    6    7 1   
    18    6   46 1   
    19    6   47 1   
    20    7    8 1   
    21    7   48 1   
    22    7   49 1   
    23    8    9 1   
    24    8   50 1   
    25    8   51 1   
    26    9   10 1   
    27    9   52 1   
    28    9   53 1   
    29   10   11 1   
    30   10   54 1   
    31   10   55 1   
    32   11   12 1   
    33   11   56 1   
    34   11   57 1   
    35   12   13 1   
    36   12   26 1   
    37   12   58 1   
    38   13   14 1   
    39   13   59 1   
    40   13   60 1   
    41   14   15 1   
    42   14   61 1   
    43   14   62 1   
    44   15   16 1   
    45   15   63 1   
    46   15   64 1   
    47   16   17 1   
    48   16   65 1   
    49   16   66 1   
    50   17   18 1   
    51   17   67 1   
    52   17   68 1   
    53   18   19 1   
    54   18   69 1   
    55   18   70 1   
    56   19   20 1   
    57   19   71 1   
    58   19   72 1   
    59   20   21 1   
    60   20   73 1   
    61   20   74 1   
    62   21   22 1   
    63   21   75 1   
    64   21   76 1   
    65   22   23 1   
    66   22   77 1   
    67   22   78 1   
    68   23   24 1   
    69   23   79 1   
    70   23   80 1   
    71   24   25 1   
    72   24   81 1   
    73   24   82 1   
    74   25   83 1   
    75   25   84 1   
    76   25   85 1   
    77   26   27 1   
    78   26   86 1   
    79   26   87 1   
    80   27   28 1   
    81   27   88 1   
    82   27   89 1   
    83   28   29 1   
    84   28   90 1   
    85   28   91 1   
    86   29   30 1   
    87   29   92 1   
    88   29   93 1   
    89   30   31 1   
    90   30   94 1   
    91   30   95 1   
    92   31   32 1   
    93   31   96 1   
    94   31   97 1   
    95   32   33 1   
    96   32   98 1   
    97   32   99 1   
    98   33   34 1   
    99   33  100 1   
   100   33  101 1   
   101   34  102 1   
   102   34  103 1   
   103   34  104 1   
@<TRIPOS>SUBSTRUCTURE
     1 UPL         1 TEMP              0 ****  ****    0 ROOT
