@<TRIPOS>MOLECULE
UPP
   47    49     1     0     0
SMALL
bcc


@<TRIPOS>ATOM
      1 N1         -0.1260    0.0550   -0.2800 n         1 UPP     -0.372000
      2 C2         -0.7490    0.4680    0.9230 c         1 UPP      0.807500
      3 N3         -0.0470    1.3420    1.7740 ns        1 UPP     -0.595500
      4 C4          1.2630    1.7820    1.5100 c         1 UPP      0.719700
      5 C5          1.8720    1.2780    0.2820 cc        1 UPP     -0.354200
      6 C6          1.1770    0.4390   -0.5370 cd        1 UPP      0.080600
      7 O2         -1.9050    0.1060    1.2440 o         1 UPP     -0.661500
      8 O4          1.8020    2.5550    2.3260 o         1 UPP     -0.657500
      9 C1B        -0.8170   -0.9050   -1.1550 c3        1 UPP      0.260500
     10 C2B        -1.0950   -0.3340   -2.5860 c3        1 UPP      0.107100
     11 O2'        -2.4570   -0.5280   -2.8870 oh        1 UPP     -0.600800
     12 C3B        -0.1070   -1.0910   -3.5000 c3        1 UPP      0.121100
     13 C4B         0.4500   -2.2470   -2.6450 c3        1 UPP      0.054100
     14 O4'        -0.0360   -2.0840   -1.2930 os        1 UPP     -0.425600
     15 O3'        -0.8180   -1.5790   -4.6130 oh        1 UPP     -0.649800
     16 C5B         1.9890   -2.3320   -2.6230 c3        1 UPP      0.215400
     17 O5'         2.4470   -3.2330   -3.5640 os        1 UPP     -0.567200
     18 PA          3.0470   -2.5380   -4.9750 p5        1 UPP      1.629800
     19 O1A         1.8580   -1.7630   -5.4120 o         1 UPP     -0.892000
     20 O2A         4.3010   -1.8690   -4.5960 o         1 UPP     -0.892000
     21 O3A         3.2990   -3.8410   -5.8820 os        1 UPP     -0.803800
     22 PB          3.5440   -5.1460   -6.8170 p5        1 UPP      1.616800
     23 O1B         3.8840   -4.7270   -8.1830 o         1 UPP     -0.857000
     24 O2B         4.2210   -6.2160   -6.0740 o         1 UPP     -0.857000
     25 O3B         1.9170   -5.6480   -6.9060 os        1 UPP     -0.487500
     26 C1'         1.5230   -6.7240   -7.5910 ca        1 UPP      0.268100
     27 C2'         1.4120   -7.9830   -6.9550 ca        1 UPP     -0.195000
     28 C3'         0.8840   -9.0690   -7.6410 ca        1 UPP     -0.120500
     29 C4'         0.4480   -8.9370   -8.9600 ca        1 UPP     -0.217000
     30 C5'         0.5550   -7.7000   -9.5970 ca        1 UPP     -0.120500
     31 C6'         1.0800   -6.6000   -8.9310 ca        1 UPP     -0.195000
     32 HN3        -0.5090    1.6270    2.6080 hn        1 UPP      0.335500
     33 H5          2.8980    1.5920    0.0640 ha        1 UPP      0.178000
     34 H6          1.6160    0.0120   -1.4660 h4        1 UPP      0.199000
     35 H1'        -1.7790   -1.2070   -0.6420 h2        1 UPP      0.117700
     36 H2B        -0.9350    0.7750   -2.6390 h1        1 UPP      0.071700
     37 HO2'       -2.5390   -1.3470   -3.3980 ho        1 UPP      0.434000
     38 H3B         0.7150   -0.4030   -3.8400 h1        1 UPP      0.094700
     39 H4B         0.0330   -3.2310   -2.9980 h1        1 UPP      0.100700
     40 HO3'       -0.1450   -1.8110   -5.2880 ho        1 UPP      0.502000
     41 H5'1        2.2990   -2.6930   -1.6010 h1        1 UPP      0.013700
     42 H5'2        2.4390   -1.3150   -2.8070 h1        1 UPP      0.013700
     43 H2'         1.7710   -8.0840   -5.9200 ha        1 UPP      0.148500
     44 H3'         0.8080  -10.0440   -7.1390 ha        1 UPP      0.095500
     45 H4'         0.0300   -9.7990   -9.4930 ha        1 UPP      0.092000
     46 H5'         0.2200   -7.5930  -10.6380 ha        1 UPP      0.095500
     47 H6'         1.1790   -5.6260   -9.4310 ha        1 UPP      0.148500
@<TRIPOS>BOND
     1    1    2 1   
     2    1    6 1   
     3    1    9 1   
     4    2    3 1   
     5    2    7 2   
     6    3    4 1   
     7    3   32 1   
     8    4    5 1   
     9    4    8 2   
    10    5    6 2   
    11    5   33 1   
    12    6   34 1   
    13    9   10 1   
    14    9   14 1   
    15    9   35 1   
    16   10   11 1   
    17   10   12 1   
    18   10   36 1   
    19   11   37 1   
    20   12   13 1   
    21   12   15 1   
    22   12   38 1   
    23   13   14 1   
    24   13   16 1   
    25   13   39 1   
    26   15   40 1   
    27   16   17 1   
    28   16   41 1   
    29   16   42 1   
    30   17   18 1   
    31   18   19 1   
    32   18   20 1   
    33   18   21 1   
    34   21   22 1   
    35   22   23 1   
    36   22   24 1   
    37   22   25 1   
    38   25   26 1   
    39   26   27 ar  
    40   26   31 ar  
    41   27   28 ar  
    42   27   43 1   
    43   28   29 ar  
    44   28   44 1   
    45   29   30 ar  
    46   29   45 1   
    47   30   31 ar  
    48   30   46 1   
    49   31   47 1   
@<TRIPOS>SUBSTRUCTURE
     1 UPP         1 TEMP              0 ****  ****    0 ROOT
