@<TRIPOS>MOLECULE
UPP
   47    47     1     0     0
SMALL
bcc


@<TRIPOS>ATOM
      1 N1          1.1550    3.5810   -1.2620 n         1 UPP     -0.267000
      2 C2          0.5120    3.4320    0.0440 c2        1 UPP      0.396000
      3 N3          1.3090    3.5160    1.2690 n         1 UPP     -0.375000
      4 C4          2.7170    3.6720    1.1900 c2        1 UPP      0.357000
      5 C5          3.3660    3.8220   -0.1190 c2        1 UPP     -0.323000
      6 C6          2.5640    3.7370   -1.3460 c2        1 UPP      0.064000
      7 O2         -0.6850    3.2360    0.1110 o         1 UPP     -0.415000
      8 O4          3.3780    3.7420    2.2070 o         1 UPP     -0.389000
      9 C1B         0.3500    3.6620   -2.4550 c3        1 UPP      0.119000
     10 C2B         1.1590    3.1250   -3.6960 c3        1 UPP      0.009000
     11 O2'         1.0260    3.9710   -4.7430 oh        1 UPP     -0.326000
     12 C3B         0.5500    1.7860   -4.0260 c3        1 UPP     -0.047000
     13 C4B        -0.2270    1.4980   -2.9870 c3        1 UPP     -0.037000
     14 O4'        -0.6640    2.8930   -2.3570 os        1 UPP     -0.278000
     15 O3'        -0.2650    1.8820   -5.2690 oh        1 UPP     -0.355000
     16 C5B         0.5370    0.6950   -1.9790 c3        1 UPP      0.045000
     17 O5'        -0.3640    0.0570   -1.1070 os        1 UPP     -0.754000
     18 PA          0.0410   -1.3430   -0.4960 p5        1 UPP      2.085000
     19 O1A         1.4530   -1.2690    0.0360 o         1 UPP     -0.880500
     20 O2A        -0.0380   -2.4020   -1.5690 o         1 UPP     -0.880500
     21 O3A        -0.9470   -1.7100    0.6810 os        1 UPP     -1.279000
     22 PB         -0.7600   -2.9660    1.6210 p5        1 UPP      2.079000
     23 O1B        -1.3180   -4.1920    0.9400 o         1 UPP     -0.856500
     24 O2B         0.7100   -3.1710    1.9010 o         1 UPP     -0.856500
     25 O3B        -1.5270   -2.7240    2.9830 os        1 UPP     -0.680000
     26 C1'        -2.0330   -3.8390    3.6740 c2        1 UPP      0.217000
     27 C2'        -1.2340   -4.5110    4.5860 c2        1 UPP     -0.191000
     28 C3'        -1.7350   -5.6070    5.2720 c1        1 UPP     -0.119000
     29 C4'        -3.0360   -6.0300    5.0460 c1        1 UPP     -0.167500
     30 C5'        -3.8350   -5.3580    4.1350 c1        1 UPP     -0.167500
     31 C6'        -3.3340   -4.2620    3.4490 c1        1 UPP     -0.195000
     32 HN3         0.9060    3.4230    2.0810 hn        1 UPP      0.242000
     33 H5          4.3350    3.9300   -0.1750 ha        1 UPP      0.193000
     34 H6          2.9930    3.8370   -2.2170 h4        1 UPP      0.273000
     35 H1'         0.0640    4.5840   -2.6100 h2        1 UPP      0.151000
     36 H2B         2.1010    3.0190   -3.4640 h1        1 UPP      0.135000
     37 HO2'        1.8170    4.0850   -5.1330 ho        1 UPP      0.215000
     38 H3B         1.2490    1.1100   -4.1270 h1        1 UPP      0.186000
     39 H4B        -1.0150    1.0020   -3.2850 h1        1 UPP      0.090000
     40 HO3'        0.0520    1.3150   -5.8760 ho        1 UPP      0.237000
     41 H5'1        1.0770    0.0200   -2.4410 h1        1 UPP      0.083000
     42 H5'2        1.1240    1.2870   -1.4660 h1        1 UPP      0.083000
     43 H2'        -0.3180   -4.2140    4.7440 ha        1 UPP      0.149000
     44 H3'        -1.1740   -6.0770    5.9170 ha        1 UPP      0.098000
     45 H4'        -3.3890   -6.8010    5.5290 ha        1 UPP      0.094500
     46 H5'        -4.7510   -5.6560    3.9760 ha        1 UPP      0.094500
     47 H6'        -3.8980   -3.7870    2.8100 ha        1 UPP      0.148000
@<TRIPOS>BOND
     1    1    2 1   
     2    1    6 1   
     3    1    9 1   
     4    2    3 1   
     5    2    7 1   
     6    3    4 1   
     7    3   32 1   
     8    4    5 1   
     9    4    8 1   
    10    5    6 1   
    11    5   33 1   
    12    6   34 1   
    13    9   10 1   
    14    9   14 1   
    15    9   35 1   
    16   10   11 1   
    17   10   12 1   
    18   10   36 1   
    19   11   37 1   
    20   12   13 1   
    21   12   15 1   
    22   12   38 1   
    23   13   14 1   
    24   13   16 1   
    25   13   39 1   
    26   15   40 1   
    27   16   17 1   
    28   16   41 1   
    29   16   42 1   
    30   17   18 1   
    31   18   19 1   
    32   18   20 1   
    33   18   21 1   
    34   21   22 1   
    35   22   23 1   
    36   22   24 1   
    37   22   25 1   
    38   25   26 1   
    39   26   27 1   
    40   26   31 1   
    41   27   28 1   
    42   27   43 1   
    43   28   44 1   
    44   29   30 1   
    45   29   45 1   
    46   30   46 1   
    47   31   47 1   
@<TRIPOS>SUBSTRUCTURE
     1 UPP         1 TEMP              0 ****  ****    0 ROOT
