@<TRIPOS>MOLECULE
UPP
   47    49     1     0     0
SMALL
bcc


@<TRIPOS>ATOM
      1 N1         -0.0980    0.0430   -0.2600 n         1 UPP     -0.372000
      2 C2         -0.7200    0.4560    0.9430 c         1 UPP      0.807500
      3 N3         -0.0080    1.3130    1.8040 n         1 UPP     -0.595500
      4 C4          1.3100    1.7330    1.5500 c         1 UPP      0.719700
      5 C5          1.9170    1.2290    0.3210 cc        1 UPP     -0.354200
      6 C6          1.2130    0.4090   -0.5080 cd        1 UPP      0.080600
      7 O2         -1.8830    0.1110    1.2550 o         1 UPP     -0.661500
      8 O4          1.8570    2.4910    2.3750 o         1 UPP     -0.657500
      9 C1B        -0.7990   -0.8990   -1.1460 c3        1 UPP      0.260500
     10 C2B        -1.0610   -0.3130   -2.5740 c3        1 UPP      0.107100
     11 O2'        -2.4240   -0.4820   -2.8830 oh        1 UPP     -0.600800
     12 C3B        -0.0810   -1.0780   -3.4900 c3        1 UPP      0.121100
     13 C4B         0.4530   -2.2490   -2.6410 c3        1 UPP      0.054100
     14 O4'        -0.0360   -2.0890   -1.2900 os        1 UPP     -0.425600
     15 O3'        -0.7940   -1.5460   -4.6090 oh        1 UPP     -0.649800
     16 C5B         1.9910   -2.3590   -2.6120 c3        1 UPP      0.215400
     17 O5'         2.4390   -3.2600   -3.5580 os        1 UPP     -0.567200
     18 PA          3.0570   -2.5640   -4.9610 p5        1 UPP      1.629800
     19 O1A         1.8830   -1.7670   -5.3970 o         1 UPP     -0.892000
     20 O2A         4.3200   -1.9180   -4.5710 o         1 UPP     -0.892000
     21 O3A         3.2930   -3.8640   -5.8770 os        1 UPP     -0.803800
     22 PB          3.5210   -5.1660   -6.8200 p5        1 UPP      1.616800
     23 O1B         3.8750   -4.7420   -8.1810 o         1 UPP     -0.857000
     24 O2B         4.1770   -6.2520   -6.0820 o         1 UPP     -0.857000
     25 O3B         1.8870   -5.6400   -6.9220 os        1 UPP     -0.487500
     26 C1'         1.4780   -6.7020   -7.6190 ca        1 UPP      0.268100
     27 C2'         1.3440   -7.9660   -6.9950 ca        1 UPP     -0.195000
     28 C3'         0.8010   -9.0360   -7.6950 ca        1 UPP     -0.120500
     29 C4'         0.3750   -8.8840   -9.0150 ca        1 UPP     -0.217000
     30 C5'         0.5050   -7.6440   -9.6390 ca        1 UPP     -0.120500
     31 C6'         1.0450   -6.5590   -8.9600 ca        1 UPP     -0.195000
     32 HN3        -0.4700    1.5980    2.6380 hn        1 UPP      0.335500
     33 H5          2.9500    1.5280    0.1100 ha        1 UPP      0.178000
     34 H6          1.6490   -0.0190   -1.4390 h4        1 UPP      0.199000
     35 H1'        -1.7680   -1.1900   -0.6400 h2        1 UPP      0.117700
     36 H2B        -0.8830    0.7940   -2.6180 h1        1 UPP      0.071700
     37 HO2'       -2.5170   -1.2950   -3.4010 ho        1 UPP      0.434000
     38 H3B         0.7530   -0.4010   -3.8200 h1        1 UPP      0.094700
     39 H4B         0.0230   -3.2240   -3.0030 h1        1 UPP      0.100700
     40 HO3'       -0.1220   -1.7840   -5.2830 ho        1 UPP      0.502000
     41 H5'1        2.2900   -2.7330   -1.5920 h1        1 UPP      0.013700
     42 H5'2        2.4580   -1.3470   -2.7860 h1        1 UPP      0.013700
     43 H2'         1.6950   -8.0830   -5.9600 ha        1 UPP      0.148500
     44 H3'         0.7070  -10.0140   -7.2020 ha        1 UPP      0.095500
     45 H4'        -0.0550   -9.7350   -9.5580 ha        1 UPP      0.092000
     46 H5'         0.1770   -7.5220  -10.6810 ha        1 UPP      0.095500
     47 H6'         1.1620   -5.5820   -9.4500 ha        1 UPP      0.148500
@<TRIPOS>BOND
     1    1    2 1   
     2    1    6 1   
     3    1    9 1   
     4    2    3 1   
     5    2    7 2   
     6    3    4 1   
     7    3   32 1   
     8    4    5 1   
     9    4    8 2   
    10    5    6 2   
    11    5   33 1   
    12    6   34 1   
    13    9   10 1   
    14    9   14 1   
    15    9   35 1   
    16   10   11 1   
    17   10   12 1   
    18   10   36 1   
    19   11   37 1   
    20   12   13 1   
    21   12   15 1   
    22   12   38 1   
    23   13   14 1   
    24   13   16 1   
    25   13   39 1   
    26   15   40 1   
    27   16   17 1   
    28   16   41 1   
    29   16   42 1   
    30   17   18 1   
    31   18   19 1   
    32   18   20 1   
    33   18   21 1   
    34   21   22 1   
    35   22   23 1   
    36   22   24 1   
    37   22   25 1   
    38   25   26 1   
    39   26   27 ar  
    40   26   31 ar  
    41   27   28 ar  
    42   27   43 1   
    43   28   29 ar  
    44   28   44 1   
    45   29   30 ar  
    46   29   45 1   
    47   30   31 ar  
    48   30   46 1   
    49   31   47 1   
@<TRIPOS>SUBSTRUCTURE
     1 UPP         1 TEMP              0 ****  ****    0 ROOT
