@<TRIPOS>MOLECULE
UPP
   47    49     1     0     0
SMALL
bcc


@<TRIPOS>ATOM
      1 N1          0.6900   -0.7130   -0.9870 n         1 UPP     -0.373000
      2 C2          0.6110   -0.5860    0.4200 c         1 UPP      0.803500
      3 N3          1.4620   -1.3720    1.2170 n         1 UPP     -0.597500
      4 C4          2.3610   -2.3150    0.6780 c         1 UPP      0.716700
      5 C5          2.3660   -2.4280   -0.7740 cc        1 UPP     -0.346200
      6 C6          1.5420   -1.6600   -1.5420 cd        1 UPP      0.074600
      7 O2         -0.1610    0.2260    0.9870 o         1 UPP     -0.690500
      8 O4          3.0700   -2.9600    1.4770 o         1 UPP     -0.674500
      9 C1B        -0.2600    0.0470   -1.8040 c3        1 UPP      0.264500
     10 C2B         0.4080    0.7770   -3.0140 c3        1 UPP      0.113100
     11 O2'         0.0380    2.1380   -2.9780 oh        1 UPP     -0.605800
     12 C3B        -0.0850    0.0020   -4.2530 c3        1 UPP      0.106100
     13 C4B        -1.1850   -0.9540   -3.7450 c3        1 UPP      0.068100
     14 O4'        -1.2870   -0.7990   -2.3140 os        1 UPP     -0.427600
     15 O3'        -0.6100    0.9260   -5.1810 oh        1 UPP     -0.659800
     16 C5B        -0.9220   -2.4360   -4.0720 c3        1 UPP      0.175400
     17 O5'        -1.5580   -2.8290   -5.2390 os        1 UPP     -0.591200
     18 PA         -0.7270   -2.7900   -6.6780 p5        1 UPP      1.605800
     19 O1A        -1.3350   -3.8000   -7.5540 o         1 UPP     -0.874000
     20 O2A        -0.6220   -1.3390   -6.9560 o         1 UPP     -0.874000
     21 O3A         0.7580   -3.2740   -6.1890 os        1 UPP     -0.824800
     22 PB          2.2280   -3.5250   -5.5680 p5        1 UPP      1.620800
     23 O1B         3.2790   -3.6600   -6.5830 o         1 UPP     -0.870500
     24 O2B         2.3170   -2.6660   -4.3650 o         1 UPP     -0.870500
     25 O3B         1.9680   -5.0650   -4.9410 os        1 UPP     -0.502500
     26 C1'         2.1570   -6.2100   -5.6130 ca        1 UPP      0.265100
     27 C2'         3.3260   -6.9670   -5.3710 ca        1 UPP     -0.189000
     28 C3'         3.4840   -8.2170   -5.9580 ca        1 UPP     -0.118500
     29 C4'         2.4920   -8.7440   -6.7840 ca        1 UPP     -0.210000
     30 C5'         1.3350   -8.0030   -7.0260 ca        1 UPP     -0.118500
     31 C6'         1.1530   -6.7520   -6.4500 ca        1 UPP     -0.189000
     32 HN3         1.3880   -1.2600    2.2020 hn        1 UPP      0.326500
     33 H5          3.0450   -3.1590   -1.2330 ha        1 UPP      0.193000
     34 H6          1.5350   -1.7620   -2.6630 h4        1 UPP      0.268000
     35 H1'        -0.7790    0.7890   -1.1250 h2        1 UPP      0.109700
     36 H2B         1.5290    0.7730   -2.9520 h1        1 UPP      0.089700
     37 HO2'       -0.7570    2.2440   -3.5170 ho        1 UPP      0.424000
     38 H3B         0.7760   -0.5660   -4.7030 h1        1 UPP      0.113700
     39 H4B        -2.1880   -0.6470   -4.1500 h1        1 UPP      0.079700
     40 HO3'       -0.6880    0.4480   -6.0310 ho        1 UPP      0.493000
     41 H5'1        0.1880   -2.6300   -4.1430 h1        1 UPP      0.049200
     42 H5'2       -1.3520   -3.0500   -3.2300 h1        1 UPP      0.049200
     43 H2'         4.1080   -6.5470   -4.7250 ha        1 UPP      0.151000
     44 H3'         4.4010   -8.7930   -5.7690 ha        1 UPP      0.100500
     45 H4'         2.6230   -9.7310   -7.2450 ha        1 UPP      0.094000
     46 H5'         0.5530   -8.4110   -7.6840 ha        1 UPP      0.100500
     47 H6'         0.2400   -6.1680   -6.6540 ha        1 UPP      0.151000
@<TRIPOS>BOND
     1    1    2 1   
     2    1    6 1   
     3    1    9 1   
     4    2    3 1   
     5    2    7 2   
     6    3    4 1   
     7    3   32 1   
     8    4    5 1   
     9    4    8 2   
    10    5    6 2   
    11    5   33 1   
    12    6   34 1   
    13    9   10 1   
    14    9   14 1   
    15    9   35 1   
    16   10   11 1   
    17   10   12 1   
    18   10   36 1   
    19   11   37 1   
    20   12   13 1   
    21   12   15 1   
    22   12   38 1   
    23   13   14 1   
    24   13   16 1   
    25   13   39 1   
    26   15   40 1   
    27   16   17 1   
    28   16   41 1   
    29   16   42 1   
    30   17   18 1   
    31   18   19 1   
    32   18   20 1   
    33   18   21 1   
    34   21   22 1   
    35   22   23 1   
    36   22   24 1   
    37   22   25 1   
    38   25   26 1   
    39   26   27 ar  
    40   26   31 ar  
    41   27   28 ar  
    42   27   43 1   
    43   28   29 ar  
    44   28   44 1   
    45   29   30 ar  
    46   29   45 1   
    47   30   31 ar  
    48   30   46 1   
    49   31   47 1   
@<TRIPOS>SUBSTRUCTURE
     1 UPP         1 TEMP              0 ****  ****    0 ROOT
