@<TRIPOS>MOLECULE
UPP
   47    49     1     0     0
SMALL
bcc


@<TRIPOS>ATOM
      1 N1         -0.6050    0.0200    3.7430 n         1 UPP     -0.373000
      2 C2         -1.4010    0.5190    4.8010 c         1 UPP      0.803500
      3 N3         -2.7960    0.5610    4.6340 n         1 UPP     -0.597500
      4 C4         -3.4360    0.1680    3.4410 c         1 UPP      0.716700
      5 C5         -2.5610   -0.2980    2.3750 cc        1 UPP     -0.346200
      6 C6         -1.2080   -0.3400    2.5430 cd        1 UPP      0.074600
      7 O2         -0.9160    0.8930    5.8980 o         1 UPP     -0.690500
      8 O4         -4.6810    0.2470    3.4010 o         1 UPP     -0.674500
      9 C1B         0.8520    0.0610    3.8940 c3        1 UPP      0.264500
     10 C2B         1.5560   -1.2720    3.4810 c3        1 UPP      0.113100
     11 O2'         2.3890   -1.6880    4.5420 oh        1 UPP     -0.605800
     12 C3B         2.2950   -0.9300    2.1710 c3        1 UPP      0.106100
     13 C4B         2.2010    0.6030    2.0200 c3        1 UPP      0.068100
     14 O4'         1.4180    1.1150    3.1190 os        1 UPP     -0.427600
     15 O3'         3.6390   -1.3420    2.2920 oh        1 UPP     -0.659800
     16 C5B         1.5650    1.0610    0.6940 c3        1 UPP      0.175400
     17 O5'         2.5210    1.3390   -0.2700 os        1 UPP     -0.591200
     18 PA          2.9530    0.1610   -1.3590 p5        1 UPP      1.605800
     19 O1A         3.4210    0.8460   -2.5720 o         1 UPP     -0.874000
     20 O2A         3.7380   -0.7810   -0.5280 o         1 UPP     -0.874000
     21 O3A         1.5060   -0.5560   -1.6270 os        1 UPP     -0.824800
     22 PB          0.0910   -1.3360   -1.6360 p5        1 UPP      1.620800
     23 O1B         0.0360   -2.4400   -2.6010 o         1 UPP     -0.870500
     24 O2B        -0.3380   -1.4240   -0.2220 o         1 UPP     -0.870500
     25 O3B        -0.8630   -0.1020   -2.2670 os        1 UPP     -0.502500
     26 C1'        -1.0770    0.1120   -3.5740 ca        1 UPP      0.265100
     27 C2'        -2.2980   -0.3060   -4.1510 ca        1 UPP     -0.189000
     28 C3'        -2.5960    0.0180   -5.4690 ca        1 UPP     -0.118500
     29 C4'        -1.7030    0.7630   -6.2360 ca        1 UPP     -0.210000
     30 C5'        -0.4960    1.1810   -5.6730 ca        1 UPP     -0.118500
     31 C6'        -0.1760    0.8710   -4.3570 ca        1 UPP     -0.189000
     32 HN3        -3.3300    0.9130    5.3950 hn        1 UPP      0.326500
     33 H5         -3.0200   -0.6030    1.4250 ha        1 UPP      0.193000
     34 H6         -0.5320   -0.6840    1.7120 h4        1 UPP      0.268000
     35 H1'         1.0780    0.3160    4.9730 h2        1 UPP      0.109700
     36 H2B         0.8280   -2.1120    3.3290 h1        1 UPP      0.089700
     37 HO2'        3.2710   -1.3240    4.3880 ho        1 UPP      0.424000
     38 H3B         1.7930   -1.4580    1.3130 h1        1 UPP      0.113700
     39 H4B         3.2160    1.0710    2.1360 h1        1 UPP      0.079700
     40 HO3'        4.0100   -1.3370    1.3870 ho        1 UPP      0.493000
     41 H5'1        0.8410    0.2810    0.3180 h1        1 UPP      0.049200
     42 H5'2        1.0040    2.0170    0.8990 h1        1 UPP      0.049200
     43 H2'        -2.9970   -0.8980   -3.5450 ha        1 UPP      0.151000
     44 H3'        -3.5450   -0.3200   -5.9100 ha        1 UPP      0.100500
     45 H4'        -1.9440    1.0150   -7.2770 ha        1 UPP      0.094000
     46 H5'         0.2160    1.7620   -6.2770 ha        1 UPP      0.100500
     47 H6'         0.7830    1.1960   -3.9230 ha        1 UPP      0.151000
@<TRIPOS>BOND
     1    1    2 1   
     2    1    6 1   
     3    1    9 1   
     4    2    3 1   
     5    2    7 2   
     6    3    4 1   
     7    3   32 1   
     8    4    5 1   
     9    4    8 2   
    10    5    6 2   
    11    5   33 1   
    12    6   34 1   
    13    9   10 1   
    14    9   14 1   
    15    9   35 1   
    16   10   11 1   
    17   10   12 1   
    18   10   36 1   
    19   11   37 1   
    20   12   13 1   
    21   12   15 1   
    22   12   38 1   
    23   13   14 1   
    24   13   16 1   
    25   13   39 1   
    26   15   40 1   
    27   16   17 1   
    28   16   41 1   
    29   16   42 1   
    30   17   18 1   
    31   18   19 1   
    32   18   20 1   
    33   18   21 1   
    34   21   22 1   
    35   22   23 1   
    36   22   24 1   
    37   22   25 1   
    38   25   26 1   
    39   26   27 ar  
    40   26   31 ar  
    41   27   28 ar  
    42   27   43 1   
    43   28   29 ar  
    44   28   44 1   
    45   29   30 ar  
    46   29   45 1   
    47   30   31 ar  
    48   30   46 1   
    49   31   47 1   
@<TRIPOS>SUBSTRUCTURE
     1 UPP         1 TEMP              0 ****  ****    0 ROOT
