@<TRIPOS>MOLECULE
UPS
   33    34     1     0     0
SMALL
bcc


@<TRIPOS>ATOM
      1 OP3         3.3110   -2.7130   -0.2090 oh        1 UPS     -0.727900
      2 P           3.3080   -1.1580    0.0810 p5        1 UPS      1.264200
      3 S1P         4.0130   -0.4530    1.6570 s         1 UPS     -0.583000
      4 OP2         4.0130   -0.6620   -1.2560 oh        1 UPS     -0.727900
      5 O5'         1.7810   -0.8820   -0.2890 os        1 UPS     -0.553200
      6 C5'         1.0300    0.0580    0.4550 c3        1 UPS      0.134400
      7 C4'         0.5720    1.1980   -0.4560 c3        1 UPS      0.125100
      8 O4'        -0.4990    0.7530   -1.2970 os        1 UPS     -0.410600
      9 C1'        -1.7240    1.4380   -0.9970 c3        1 UPS      0.313500
     10 N1         -2.7240    0.5110   -0.4670 n         1 UPS     -0.387000
     11 C2         -2.6700    0.0490    0.8770 c         1 UPS      0.812500
     12 O2         -1.8350    0.5000    1.6940 o         1 UPS     -0.663500
     13 N3         -3.5970   -0.9140    1.2980 n         1 UPS     -0.585500
     14 C4         -4.5280   -1.5140    0.4290 c         1 UPS      0.713700
     15 O4         -5.3110   -2.3650    0.8800 o         1 UPS     -0.599500
     16 C5         -4.4800   -1.0650   -0.9680 cc        1 UPS     -0.310200
     17 C6         -3.5920   -0.1170   -1.3570 cd        1 UPS      0.051600
     18 C2'        -1.3800    2.6350   -0.0890 c3        1 UPS     -0.136400
     19 C3'         0.0600    2.3930    0.3780 c3        1 UPS      0.122100
     20 O3'         0.8960    3.4950    0.0730 oh        1 UPS     -0.592800
     21 HOP3        2.8630   -3.0010   -1.0070 ho        1 UPS      0.501500
     22 HOP2        4.7560   -0.0620   -1.1950 ho        1 UPS      0.501500
     23 H5'         0.1270   -0.4830    0.8600 h1        1 UPS      0.093700
     24 H5'A        1.6630    0.4570    1.3020 h1        1 UPS      0.093700
     25 H4'         1.3900    1.5150   -1.1600 h1        1 UPS      0.096700
     26 H1'        -2.1110    1.7910   -2.0010 h2        1 UPS      0.087700
     27 H5         -5.1860   -1.5360   -1.6620 ha        1 UPS      0.182000
     28 H6         -3.5270    0.2220   -2.4090 h4        1 UPS      0.167000
     29 H2'        -1.4390    3.5750   -0.6920 hc        1 UPS      0.083200
     30 H2'A       -2.0700    2.7240    0.7840 hc        1 UPS      0.083200
     31 H3'         0.0840    2.1620    1.4770 h1        1 UPS      0.082700
     32 HO3'        0.7420    4.1610    0.7540 ho        1 UPS      0.414000
     33 HN3        -3.5580   -1.1920    2.2550 hn        1 UPS      0.354500
@<TRIPOS>BOND
     1    1    2 1   
     2    1   21 1   
     3    2    3 2   
     4    2    4 1   
     5    2    5 1   
     6    4   22 1   
     7    5    6 1   
     8    6    7 1   
     9    6   23 1   
    10    6   24 1   
    11    7    8 1   
    12    7   19 1   
    13    7   25 1   
    14    8    9 1   
    15    9   10 1   
    16    9   18 1   
    17    9   26 1   
    18   10   11 1   
    19   10   17 1   
    20   11   12 2   
    21   11   13 1   
    22   13   14 1   
    23   13   33 1   
    24   14   15 2   
    25   14   16 1   
    26   16   17 2   
    27   16   27 1   
    28   17   28 1   
    29   18   19 1   
    30   18   29 1   
    31   18   30 1   
    32   19   20 1   
    33   19   31 1   
    34   20   32 1   
@<TRIPOS>SUBSTRUCTURE
     1 UPS         1 TEMP              0 ****  ****    0 ROOT
