@<TRIPOS>MOLECULE
UPS
   33    34     1     0     0
SMALL
bcc


@<TRIPOS>ATOM
      1 OP3        -4.3500   -2.1290   -0.1040 oh        1 UPS     -0.730400
      2 P          -2.7830   -2.3840    0.0510 p5        1 UPS      1.295200
      3 S1P        -2.2990   -2.3140    1.9350 s         1 UPS     -0.614000
      4 OP2        -2.4260   -3.7900   -0.5260 oh        1 UPS     -0.730400
      5 O5'        -1.9720   -1.2500   -0.7550 os        1 UPS     -0.556200
      6 C5'        -0.5940   -0.9960   -0.3930 c3        1 UPS      0.144400
      7 C4'         0.1970   -0.7300   -1.6150 c3        1 UPS      0.106100
      8 O4'         0.3640    0.9120   -1.8450 os        1 UPS     -0.409600
      9 C1'         1.3350    1.2830   -1.0820 c3        1 UPS      0.299500
     10 N1          0.8410    1.6950    0.1790 n         1 UPS     -0.393000
     11 C2          1.7320    1.6860    1.3470 c         1 UPS      0.812500
     12 O2          2.8350    1.1730    1.2630 o         1 UPS     -0.636500
     13 N3          1.3620    2.4290    2.5620 n         1 UPS     -0.586500
     14 C4          0.0910    3.0370    2.6580 c         1 UPS      0.713700
     15 O4         -0.2470    3.5800    3.6950 o         1 UPS     -0.604500
     16 C5         -0.8410    2.9900    1.5080 cc        1 UPS     -0.310200
     17 C6         -0.4430    2.3060    0.2710 cd        1 UPS      0.037600
     18 C2'         2.2710   -0.0300   -0.9200 c3        1 UPS     -0.149400
     19 C3'         1.4260   -1.2160   -1.4820 c3        1 UPS      0.090100
     20 O3'         1.9470   -1.6410   -2.7790 oh        1 UPS     -0.590800
     21 HOP3       -4.7980   -2.6940    0.4270 ho        1 UPS      0.507500
     22 HOP2       -2.9960   -4.3970   -0.2030 ho        1 UPS      0.507500
     23 H5'        -0.2310   -1.7720    0.0650 h1        1 UPS      0.079200
     24 H5'A       -0.5500   -0.2180    0.2000 h1        1 UPS      0.079200
     25 H4'        -0.2470   -1.1400   -2.4050 h1        1 UPS      0.110700
     26 H1'         1.8380    2.0090   -1.5040 h2        1 UPS      0.136700
     27 H5         -1.7240    3.4120    1.5740 ha        1 UPS      0.183000
     28 H6         -1.0550    2.2730   -0.4880 h4        1 UPS      0.171000
     29 H2'         2.4850   -0.1820    0.0350 hc        1 UPS      0.083700
     30 H2'A        3.0830    0.0740   -1.4330 hc        1 UPS      0.083700
     31 H3'         1.4290   -1.9720   -0.8460 h1        1 UPS      0.095700
     32 HO3'        2.3970   -2.4230   -2.6830 ho        1 UPS      0.418000
     33 HN3         1.9230    2.4200    3.2940 hn        1 UPS      0.353500
@<TRIPOS>BOND
     1    1    2 1   
     2    1   21 1   
     3    2    3 2   
     4    2    4 1   
     5    2    5 1   
     6    4   22 1   
     7    5    6 1   
     8    6    7 1   
     9    6   23 1   
    10    6   24 1   
    11    7    8 1   
    12    7   19 1   
    13    7   25 1   
    14    8    9 1   
    15    9   10 1   
    16    9   18 1   
    17    9   26 1   
    18   10   11 1   
    19   10   17 1   
    20   11   12 2   
    21   11   13 1   
    22   13   14 1   
    23   13   33 1   
    24   14   15 2   
    25   14   16 1   
    26   16   17 2   
    27   16   27 1   
    28   17   28 1   
    29   18   19 1   
    30   18   29 1   
    31   18   30 1   
    32   19   20 1   
    33   19   31 1   
    34   20   32 1   
@<TRIPOS>SUBSTRUCTURE
     1 UPS         1 TEMP              0 ****  ****    0 ROOT
