@<TRIPOS>MOLECULE
UPT
   31    33     1     0     0
SMALL
bcc


@<TRIPOS>ATOM
      1 S          -0.4130    0.2300   -0.2580 s         1 UPT     -0.495000
      2 P           1.3990   -0.0300   -0.0000 p5        1 UPT      1.197200
      3 O           2.0650    0.1160    1.4680 os        1 UPT     -0.500200
      4 O5          1.9590   -1.4640   -0.3940 oh        1 UPT     -0.726400
      5 O6          2.4970    0.8920   -0.7530 os        1 UPT     -0.494200
      6 C1          3.6340    1.1900    0.0230 c3        1 UPT      0.107100
      7 C2          3.3290    0.7430    1.4790 c3        1 UPT      0.118100
      8 C3          3.2780    2.0360    2.3100 c3        1 UPT      0.068100
      9 C4          4.3560    2.0780    3.3940 c3        1 UPT      0.126400
     10 O2          4.2160    3.2230    4.2000 oh        1 UPT     -0.579800
     11 O1          3.4480    3.1490    1.4220 os        1 UPT     -0.417600
     12 C           3.8070    2.7410    0.0910 c3        1 UPT      0.289500
     13 N           5.1460    3.1840   -0.2520 n         1 UPT     -0.392000
     14 C8          5.2810    4.3540   -1.0630 c         1 UPT      0.816500
     15 O4          4.2840    4.8870   -1.5890 o         1 UPT     -0.619500
     16 N1          6.5660    4.8700   -1.2770 ns        1 UPT     -0.583500
     17 C7          7.7250    4.3140   -0.7050 c         1 UPT      0.713700
     18 O3          8.8250    4.8370   -0.9400 o         1 UPT     -0.592500
     19 C5          7.5210    3.1310    0.1440 cc        1 UPT     -0.295200
     20 C6          6.2750    2.6380    0.3470 cd        1 UPT      0.032600
     21 H2          4.5200    0.6710   -0.4330 h1        1 UPT      0.112700
     22 H3          4.0790    0.0140    1.8890 h1        1 UPT      0.107700
     23 H4          2.2640    2.1820    2.7810 h1        1 UPT      0.120700
     24 H5          4.2280    1.2090    4.0940 h1        1 UPT      0.052200
     25 H6          5.3790    2.0510    2.9310 h1        1 UPT      0.052200
     26 H7          4.2270    3.9930    3.6150 ho        1 UPT      0.418000
     27 H8          3.0690    3.2640   -0.5970 h2        1 UPT      0.162700
     28 H9          6.6370    5.6800   -1.8570 hn        1 UPT      0.358500
     29 H10         8.4180    2.6850    0.5910 ha        1 UPT      0.183000
     30 H11         6.0900    1.7560    0.9890 h4        1 UPT      0.153000
     31 H1          1.3490   -2.1140   -0.7470 ho        1 UPT      0.508000
@<TRIPOS>BOND
     1    1    2 2   
     2    2    3 1   
     3    2    4 1   
     4    2    5 1   
     5    3    7 1   
     6    4   31 1   
     7    5    6 1   
     8    6    7 1   
     9    6   12 1   
    10    6   21 1   
    11    7    8 1   
    12    7   22 1   
    13    8    9 1   
    14    8   11 1   
    15    8   23 1   
    16    9   10 1   
    17    9   24 1   
    18    9   25 1   
    19   10   26 1   
    20   11   12 1   
    21   12   13 1   
    22   12   27 1   
    23   13   14 1   
    24   13   20 1   
    25   14   15 2   
    26   14   16 1   
    27   16   17 1   
    28   16   28 1   
    29   17   18 2   
    30   17   19 1   
    31   19   20 2   
    32   19   29 1   
    33   20   30 1   
@<TRIPOS>SUBSTRUCTURE
     1 UPT         1 TEMP              0 ****  ****    0 ROOT
