@<TRIPOS>MOLECULE
UPT
   31    33     1     0     0
SMALL
bcc


@<TRIPOS>ATOM
      1 S          -0.4090    0.2530   -0.3300 s         1 UPT     -0.495000
      2 P           1.3970   -0.0150   -0.0440 p5        1 UPT      1.197200
      3 O           2.0430    0.1340    1.4330 os        1 UPT     -0.500200
      4 O5          1.9570   -1.4520   -0.4240 oh        1 UPT     -0.726400
      5 O6          2.5110    0.9000   -0.7840 os        1 UPT     -0.494200
      6 C1          3.6380    1.1960    0.0080 c3        1 UPT      0.107100
      7 C2          3.3090    0.7560    1.4610 c3        1 UPT      0.118100
      8 C3          3.2520    2.0520    2.2860 c3        1 UPT      0.068100
      9 C4          4.3140    2.0930    3.3860 c3        1 UPT      0.126400
     10 O2          4.1680    3.2420    4.1860 oh        1 UPT     -0.579800
     11 O1          3.4400    3.1600    1.3970 os        1 UPT     -0.416600
     12 C           3.8170    2.7450    0.0730 c3        1 UPT      0.289500
     13 N           5.1630    3.1810   -0.2510 n         1 UPT     -0.392000
     14 C8          5.3170    4.3490   -1.0630 c         1 UPT      0.816500
     15 O4          4.3310    4.8850   -1.6060 o         1 UPT     -0.619500
     16 N1          6.6080    4.8570   -1.2590 n         1 UPT     -0.583500
     17 C7          7.7550    4.2970   -0.6680 c         1 UPT      0.713700
     18 O3          8.8610    4.8140   -0.8870 o         1 UPT     -0.592500
     19 C5          7.5320    3.1170    0.1810 cc        1 UPT     -0.295200
     20 C6          6.2810    2.6310    0.3660 cd        1 UPT      0.032600
     21 H2          4.5280    0.6710   -0.4330 h1        1 UPT      0.112700
     22 H3          4.0500    0.0240    1.8850 h1        1 UPT      0.107700
     23 H4          2.2320    2.2040    2.7420 h1        1 UPT      0.120700
     24 H5          4.1710    1.2270    4.0880 h1        1 UPT      0.052200
     25 H6          5.3430    2.0590    2.9380 h1        1 UPT      0.052200
     26 H7          4.1910    4.0100    3.5980 ho        1 UPT      0.418000
     27 H8          3.0920    3.2700   -0.6280 h2        1 UPT      0.162700
     28 H9          6.6910    5.6650   -1.8400 hn        1 UPT      0.358500
     29 H10         8.4200    2.6680    0.6420 ha        1 UPT      0.183000
     30 H11         6.0820    1.7520    1.0080 h4        1 UPT      0.153000
     31 H1          1.3500   -2.1010   -0.7840 ho        1 UPT      0.508000
@<TRIPOS>BOND
     1    1    2 2   
     2    2    3 1   
     3    2    4 1   
     4    2    5 1   
     5    3    7 1   
     6    4   31 1   
     7    5    6 1   
     8    6    7 1   
     9    6   12 1   
    10    6   21 1   
    11    7    8 1   
    12    7   22 1   
    13    8    9 1   
    14    8   11 1   
    15    8   23 1   
    16    9   10 1   
    17    9   24 1   
    18    9   25 1   
    19   10   26 1   
    20   11   12 1   
    21   12   13 1   
    22   12   27 1   
    23   13   14 1   
    24   13   20 1   
    25   14   15 2   
    26   14   16 1   
    27   16   17 1   
    28   16   28 1   
    29   17   18 2   
    30   17   19 1   
    31   19   20 2   
    32   19   29 1   
    33   20   30 1   
@<TRIPOS>SUBSTRUCTURE
     1 UPT         1 TEMP              0 ****  ****    0 ROOT
