@<TRIPOS>MOLECULE
UPV
   50    51     1     0     0
SMALL
bcc


@<TRIPOS>ATOM
      1 P          -2.0830   -2.0220    0.2320 p5        1 UPV      1.343900
      2 N1          0.0860    2.7360   -0.2060 n         1 UPV     -0.374000
      3 C2          0.3050    4.1320   -0.2060 c         1 UPV      0.796500
      4 O2          1.1390    4.6930   -0.9640 o         1 UPV     -0.703500
      5 N3         -0.4020    4.9300    0.7100 n         1 UPV     -0.598500
      6 C4         -1.3500    4.4000    1.6100 c         1 UPV      0.716700
      7 O4         -1.9270    5.2030    2.3750 o         1 UPV     -0.690500
      8 C5         -1.5450    2.9620    1.5480 cc        1 UPV     -0.369200
      9 C6         -0.8580    2.1890    0.6550 cd        1 UPV      0.072600
     10 CA          3.8640    0.6080   -0.3900 c3        1 UPV      0.333200
     11 CB          4.1450   -1.7080    0.2090 c         1 UPV      0.676100
     12 CG          3.5340   -2.8550    0.9910 c3        1 UPV     -0.079000
     13 C1'         0.7510    1.9350   -1.2470 c3        1 UPV      0.284500
     14 C2'         1.4940    0.6950   -0.6520 c3        1 UPV      0.106100
     15 O2'         2.7770    0.6220   -1.2760 os        1 UPV     -0.407600
     16 C3'         0.5940   -0.4880   -1.0320 c3        1 UPV      0.095100
     17 O3'         1.3140   -1.6040   -1.4940 oh        1 UPV     -0.633800
     18 C4'        -0.3850    0.0360   -2.0980 c3        1 UPV      0.065100
     19 O4'        -0.1890    1.4670   -2.2060 os        1 UPV     -0.430600
     20 C5'        -1.8700   -0.2450   -1.7540 c3        1 UPV      0.221400
     21 O5'        -2.1010   -1.5550   -1.4380 os        1 UPV     -0.571200
     22 OB1         3.6440   -0.4700    0.5110 os        1 UPV     -0.461900
     23 OB2         5.0840   -1.7610   -0.5920 o         1 UPV     -0.585000
     24 CD1         3.2610   -3.9870    0.0080 c3        1 UPV     -0.096433
     25 CD2         4.5630   -3.2960    2.0260 c3        1 UPV     -0.096433
     26 CD3         2.2340   -2.4660    1.6790 c3        1 UPV     -0.096433
     27 OP3        -3.3380   -2.7960    0.4460 o         1 UPV     -0.924500
     28 OP2        -0.7460   -2.7340    0.2130 o         1 UPV     -0.924500
     29 HN3        -0.2310    5.9080    0.6830 hn        1 UPV      0.321500
     30 H5         -2.2760    2.5100    2.2310 ha        1 UPV      0.188000
     31 H6         -1.0440    1.0630    0.6070 h4        1 UPV      0.306000
     32 H5'        -2.1870    0.4430   -0.9210 h1        1 UPV      0.000700
     33 H1'         1.4600    2.6130   -1.8090 h2        1 UPV      0.102700
     34 HD1         2.8350   -4.8600    0.5560 hc        1 UPV      0.050256
     35 HD1A        2.5150   -3.6480   -0.7550 hc        1 UPV      0.050256
     36 HD1B        4.2030   -4.2930   -0.5070 hc        1 UPV      0.050256
     37 H2'         1.5990    0.7500    0.4630 h1        1 UPV      0.077700
     38 HD2         4.1910   -4.2060    2.5550 hc        1 UPV      0.050256
     39 HD2A        5.5350   -3.5360    1.5330 hc        1 UPV      0.050256
     40 HD2B        4.7260   -2.4870    2.7770 hc        1 UPV      0.050256
     41 H3'        -0.0030   -0.7850   -0.1010 h1        1 UPV      0.157700
     42 HD3         1.3950   -2.3380    0.9350 hc        1 UPV      0.050256
     43 HD3A        1.9330   -3.2760    2.3860 hc        1 UPV      0.050256
     44 HD3B        2.3600   -1.5150    2.2470 hc        1 UPV      0.050256
     45 H4'        -0.1280   -0.3760   -3.1080 h1        1 UPV      0.053700
     46 H5'A       -2.4640    0.0180   -2.6790 h1        1 UPV      0.000700
     47 HA          4.7760    0.4740   -1.0270 h2        1 UPV      0.061700
     48 HAA         3.8990    1.5180    0.2690 h2        1 UPV      0.061700
     49 HO3'        0.7770   -2.3730   -1.2010 ho        1 UPV      0.471000
     50 OP1        -1.9420   -0.6680    0.9020 o         1 UPV     -0.924500
@<TRIPOS>BOND
     1    1   21 1   
     2    1   27 1   
     3    1   28 1   
     4    1   50 1   
     5    2    3 1   
     6    2    9 1   
     7    2   13 1   
     8    3    4 2   
     9    3    5 1   
    10    5    6 1   
    11    5   29 1   
    12    6    7 2   
    13    6    8 1   
    14    8    9 2   
    15    8   30 1   
    16    9   31 1   
    17   10   15 1   
    18   10   22 1   
    19   10   47 1   
    20   10   48 1   
    21   11   12 1   
    22   11   22 1   
    23   11   23 2   
    24   12   24 1   
    25   12   25 1   
    26   12   26 1   
    27   13   14 1   
    28   13   19 1   
    29   13   33 1   
    30   14   15 1   
    31   14   16 1   
    32   14   37 1   
    33   16   17 1   
    34   16   18 1   
    35   16   41 1   
    36   17   49 1   
    37   18   19 1   
    38   18   20 1   
    39   18   45 1   
    40   20   21 1   
    41   20   32 1   
    42   20   46 1   
    43   24   34 1   
    44   24   35 1   
    45   24   36 1   
    46   25   38 1   
    47   25   39 1   
    48   25   40 1   
    49   26   42 1   
    50   26   43 1   
    51   26   44 1   
@<TRIPOS>SUBSTRUCTURE
     1 UPV         1 TEMP              0 ****  ****    0 ROOT
