@<TRIPOS>MOLECULE
UPX
   47    50     1     0     0
SMALL
bcc


@<TRIPOS>ATOM
      1 OBB         0.2920   -0.6310    0.0010 o         1 UPX     -0.221000
      2 NAB         1.4920   -0.5790   -0.0440 no        1 UPX      0.325200
      3 OBC         2.1750   -0.9730    0.8700 o         1 UPX     -0.221000
      4 CAJ         2.1430   -0.0210   -1.2440 ca        1 UPX     -0.208200
      5 CAI         1.3760    0.4300   -2.3250 ca        1 UPX     -0.024000
      6 CAH         1.9860    0.9590   -3.4700 ca        1 UPX     -0.181000
      7 CAM         3.3690    1.0540   -3.5820 ca        1 UPX     -0.017000
      8 CAL         4.1670    0.6140   -2.5290 ca        1 UPX     -0.128800
      9 CAO         5.5920    0.5570   -2.3090 cc        1 UPX     -0.089200
     10 CAK         3.5520    0.0680   -1.3330 ca        1 UPX      0.020800
     11 NAA         4.5510   -0.2680   -0.4340 na        1 UPX     -0.160400
     12 CAN         5.7910    0.0120   -1.0400 cd        1 UPX     -0.139300
     13 CAP         7.1160   -0.2430   -0.4150 c         1 UPX      0.698300
     14 OBD         8.0940   -0.5080   -1.1350 o         1 UPX     -0.564100
     15 NAC         7.1740   -0.1640    0.9700 n         1 UPX     -0.467100
     16 CAQ         8.3200   -0.3480    1.7660 ca        1 UPX      0.069600
     17 CAV         8.2800    0.0880    3.1130 ca        1 UPX     -0.168000
     18 CAU         9.3730   -0.1020    3.9490 ca        1 UPX     -0.081500
     19 CAR         9.4920   -0.9760    1.2940 ca        1 UPX     -0.168000
     20 CAS        10.5760   -1.1600    2.1450 ca        1 UPX     -0.081500
     21 CAT        10.5290   -0.7320    3.4760 ca        1 UPX     -0.143900
     22 CAW        11.6910   -0.9560    4.3600 ce        1 UPX      0.402900
     23 CAX        12.2830   -2.3290    4.3050 c3        1 UPX     -0.173400
     24 NAD        12.1100    0.0460    5.0970 n2        1 UPX     -0.463400
     25 NAE        13.2320   -0.0400    5.8320 nh        1 UPX     -0.469000
     26 CAY        13.3070    0.8840    6.9320 cc        1 UPX      0.581400
     27 NAF        13.0380    2.2620    6.7900 na        1 UPX     -0.290900
     28 CAZ        13.3170    2.8480    8.0220 cc        1 UPX     -0.264600
     29 CBA        13.7540    1.8130    8.8700 cd        1 UPX      0.302200
     30 NAG        13.7400    0.5950    8.2030 nd        1 UPX     -0.690000
     31 HAI         0.2740    0.3680   -2.2730 ha        1 UPX      0.171000
     32 HAH         1.3460    1.3030   -4.2960 ha        1 UPX      0.150000
     33 HAM         3.8320    1.4710   -4.4900 ha        1 UPX      0.151000
     34 HAO         6.3700    0.8720   -3.0020 ha        1 UPX      0.182000
     35 HAA         4.4030   -0.7720    0.4080 hn        1 UPX      0.332700
     36 HAC         6.3920    0.2290    1.4460 hn        1 UPX      0.321500
     37 HAV         7.3820    0.5830    3.5150 ha        1 UPX      0.153000
     38 HAR         9.5660   -1.3200    0.2500 ha        1 UPX      0.153000
     39 HAU         9.3220    0.2490    4.9920 ha        1 UPX      0.144000
     40 HAS        11.4860   -1.6460    1.7580 ha        1 UPX      0.144000
     41 HAX1       12.3900   -2.7590    5.3330 hc        1 UPX      0.057367
     42 HAX2       13.2940   -2.2960    3.8270 hc        1 UPX      0.057367
     43 HAX3       11.6330   -3.0160    3.7100 hc        1 UPX      0.057367
     44 HAE        13.5010   -0.9680    6.1450 hn        1 UPX      0.404800
     45 HAF        12.6810    2.7040    5.9850 hn        1 UPX      0.315700
     46 HAZ        13.1900    3.9140    8.1970 h4        1 UPX      0.179000
     47 HBA        14.0710    1.8810    9.9100 h4        1 UPX      0.043100
@<TRIPOS>BOND
     1    1    2 1   
     2    2    3 1   
     3    2    4 1   
     4    4    5 ar  
     5    4   10 ar  
     6    5    6 ar  
     7    5   31 1   
     8    6    7 ar  
     9    6   32 1   
    10    7    8 ar  
    11    7   33 1   
    12    8    9 1   
    13    8   10 ar  
    14    9   12 2   
    15    9   34 1   
    16   10   11 1   
    17   11   12 1   
    18   11   35 1   
    19   12   13 1   
    20   13   14 2   
    21   13   15 1   
    22   15   16 1   
    23   15   36 1   
    24   16   17 ar  
    25   16   19 ar  
    26   17   18 ar  
    27   17   37 1   
    28   18   21 ar  
    29   18   39 1   
    30   19   20 ar  
    31   19   38 1   
    32   20   21 ar  
    33   20   40 1   
    34   21   22 1   
    35   22   23 1   
    36   22   24 2   
    37   23   41 1   
    38   23   42 1   
    39   23   43 1   
    40   24   25 1   
    41   25   26 1   
    42   25   44 1   
    43   26   27 1   
    44   26   30 2   
    45   27   28 1   
    46   27   45 1   
    47   28   29 2   
    48   28   46 1   
    49   29   30 1   
    50   29   47 1   
@<TRIPOS>SUBSTRUCTURE
     1 UPX         1 TEMP              0 ****  ****    0 ROOT
