@<TRIPOS>MOLECULE
UPX
   47    50     1     0     0
SMALL
bcc


@<TRIPOS>ATOM
      1 OBB         0.3190   -0.7690   -0.0420 o         1 UPX     -0.221000
      2 NAB         1.5170   -0.6850   -0.0820 no        1 UPX      0.325200
      3 OBC         2.2090   -1.0870    0.8210 o         1 UPX     -0.221000
      4 CAJ         2.1550   -0.0740   -1.2640 ca        1 UPX     -0.208200
      5 CAI         1.3790    0.3890   -2.3320 ca        1 UPX     -0.024000
      6 CAH         1.9770    0.9670   -3.4590 ca        1 UPX     -0.181000
      7 CAM         3.3570    1.1020   -3.5650 ca        1 UPX     -0.017000
      8 CAL         4.1640    0.6520   -2.5240 ca        1 UPX     -0.128800
      9 CAO         5.5900    0.6260   -2.3020 cc        1 UPX     -0.089200
     10 CAK         3.5620    0.0550   -1.3460 ca        1 UPX      0.020800
     11 NAA         4.5670   -0.2820   -0.4550 na        1 UPX     -0.160400
     12 CAN         5.8010    0.0490   -1.0480 cd        1 UPX     -0.139300
     13 CAP         7.1310   -0.1890   -0.4280 c         1 UPX      0.698300
     14 OBD         8.1180   -0.4060   -1.1530 o         1 UPX     -0.564100
     15 NAC         7.1840   -0.1520    0.9590 n         1 UPX     -0.467100
     16 CAQ         8.3330   -0.3310    1.7520 ca        1 UPX      0.069600
     17 CAV         8.2770    0.0600    3.1120 ca        1 UPX     -0.168000
     18 CAU         9.3730   -0.1280    3.9460 ca        1 UPX     -0.081500
     19 CAR         9.5230   -0.9100    1.2640 ca        1 UPX     -0.168000
     20 CAS        10.6100   -1.0930    2.1120 ca        1 UPX     -0.081500
     21 CAT        10.5470   -0.7110    3.4570 ca        1 UPX     -0.143900
     22 CAW        11.7120   -0.9310    4.3370 ce        1 UPX      0.402900
     23 CAX        12.3430   -2.2860    4.2380 c3        1 UPX     -0.173400
     24 NAD        12.1020    0.0560    5.1080 n2        1 UPX     -0.463400
     25 NAE        13.2240   -0.0230    5.8440 nh        1 UPX     -0.469000
     26 CAY        13.2700    0.8650    6.9740 cc        1 UPX      0.581400
     27 NAF        12.9640    2.2390    6.8780 na        1 UPX     -0.290900
     28 CAZ        13.2230    2.7910    8.1300 cc        1 UPX     -0.264600
     29 CBA        13.6860    1.7400    8.9440 cd        1 UPX      0.302200
     30 NAG        13.7080    0.5450    8.2370 nd        1 UPX     -0.690000
     31 HAI         0.2790    0.2950   -2.2850 ha        1 UPX      0.171000
     32 HAH         1.3290    1.3180   -4.2770 ha        1 UPX      0.150000
     33 HAM         3.8110    1.5570   -4.4590 ha        1 UPX      0.151000
     34 HAO         6.3600    0.9820   -2.9830 ha        1 UPX      0.182000
     35 HAA         4.4310   -0.8140    0.3720 hn        1 UPX      0.332700
     36 HAC         6.3910    0.2040    1.4440 hn        1 UPX      0.321500
     37 HAV         7.3650    0.5160    3.5280 ha        1 UPX      0.153000
     38 HAR         9.6090   -1.2180    0.2090 ha        1 UPX      0.153000
     39 HAU         9.3100    0.1860    4.9990 ha        1 UPX      0.144000
     40 HAS        11.5340   -1.5400    1.7120 ha        1 UPX      0.144000
     41 HAX1       11.7140   -2.9700    3.6180 hc        1 UPX      0.057367
     42 HAX2       13.3540   -2.2080    3.7650 hc        1 UPX      0.057367
     43 HAX3       12.4590   -2.7470    5.2510 hc        1 UPX      0.057367
     44 HAE        13.5180   -0.9530    6.1260 hn        1 UPX      0.404800
     45 HAF        12.5970    2.6970    6.0860 hn        1 UPX      0.315700
     46 HAZ        13.0660    3.8460    8.3400 h4        1 UPX      0.179000
     47 HBA        13.9980    1.7820    9.9870 h4        1 UPX      0.043100
@<TRIPOS>BOND
     1    1    2 1   
     2    2    3 1   
     3    2    4 1   
     4    4    5 ar  
     5    4   10 ar  
     6    5    6 ar  
     7    5   31 1   
     8    6    7 ar  
     9    6   32 1   
    10    7    8 ar  
    11    7   33 1   
    12    8    9 1   
    13    8   10 ar  
    14    9   12 2   
    15    9   34 1   
    16   10   11 1   
    17   11   12 1   
    18   11   35 1   
    19   12   13 1   
    20   13   14 2   
    21   13   15 1   
    22   15   16 1   
    23   15   36 1   
    24   16   17 ar  
    25   16   19 ar  
    26   17   18 ar  
    27   17   37 1   
    28   18   21 ar  
    29   18   39 1   
    30   19   20 ar  
    31   19   38 1   
    32   20   21 ar  
    33   20   40 1   
    34   21   22 1   
    35   22   23 1   
    36   22   24 2   
    37   23   41 1   
    38   23   42 1   
    39   23   43 1   
    40   24   25 1   
    41   25   26 1   
    42   25   44 1   
    43   26   27 1   
    44   26   30 2   
    45   27   28 1   
    46   27   45 1   
    47   28   29 2   
    48   28   46 1   
    49   29   30 1   
    50   29   47 1   
@<TRIPOS>SUBSTRUCTURE
     1 UPX         1 TEMP              0 ****  ****    0 ROOT
