@<TRIPOS>MOLECULE
UPX
   47    50     1     0     0
SMALL
bcc


@<TRIPOS>ATOM
      1 OBB        -6.9670    2.8000    1.2190 o         1 UPX     -0.221000
      2 NAB        -6.0540    2.0500    1.0020 no        1 UPX      0.325200
      3 OBC        -4.9720    2.2080    1.5120 o         1 UPX     -0.221000
      4 CAJ        -6.2630    0.9090    0.0890 ca        1 UPX     -0.208200
      5 CAI        -7.5110    0.6930   -0.5060 ca        1 UPX     -0.024000
      6 CAH        -7.7180   -0.3890   -1.3710 ca        1 UPX     -0.181000
      7 CAM        -6.7020   -1.2880   -1.6720 ca        1 UPX     -0.017000
      8 CAL        -5.4460   -1.1090   -1.0990 ca        1 UPX     -0.128800
      9 CAO        -4.1970   -1.8290   -1.1770 cc        1 UPX     -0.089200
     10 CAK        -5.2110    0.0100   -0.2030 ca        1 UPX      0.020800
     11 NAA        -3.8890   -0.0200    0.2070 na        1 UPX     -0.160400
     12 CAN        -3.2800   -1.1510   -0.3710 cd        1 UPX     -0.139300
     13 CAP        -1.8690   -1.5610   -0.1490 c         1 UPX      0.698300
     14 OBD        -1.5630   -2.7650   -0.1960 o         1 UPX     -0.564100
     15 NAC        -0.9590   -0.5430    0.1040 n         1 UPX     -0.467100
     16 CAQ         0.4220   -0.6970    0.3230 ca        1 UPX      0.069600
     17 CAV         1.2490    0.4500    0.2350 ca        1 UPX     -0.168000
     18 CAU         2.6140    0.3560    0.4770 ca        1 UPX     -0.081500
     19 CAR         1.0150   -1.9320    0.6590 ca        1 UPX     -0.168000
     20 CAS         2.3820   -2.0080    0.9000 ca        1 UPX     -0.081500
     21 CAT         3.1930   -0.8710    0.8170 ca        1 UPX     -0.143900
     22 CAW         4.6400   -0.9800    1.0940 ce        1 UPX      0.402900
     23 CAX         5.0000   -1.7540    2.3240 c3        1 UPX     -0.173400
     24 NAD         5.4750   -0.4150    0.2550 n2        1 UPX     -0.463400
     25 NAE         6.8050   -0.5740    0.3680 nh        1 UPX     -0.469000
     26 CAY         7.5930    0.4500   -0.2640 cc        1 UPX      0.581400
     27 NAF         7.3640    0.8810   -1.5880 na        1 UPX     -0.290900
     28 CAZ         8.3750    1.7880   -1.8900 cc        1 UPX     -0.264600
     29 CBA         9.1920    1.8730   -0.7470 cd        1 UPX      0.302200
     30 NAG         8.7070    1.0560    0.2650 nd        1 UPX     -0.690000
     31 HAI        -8.3440    1.3860   -0.2890 ha        1 UPX      0.171000
     32 HAH        -8.7150   -0.5220   -1.8190 ha        1 UPX      0.150000
     33 HAM        -6.8820   -2.1350   -2.3530 ha        1 UPX      0.151000
     34 HAO        -4.0030   -2.7330   -1.7500 ha        1 UPX      0.182000
     35 HAA        -3.5060    0.5620    0.9150 hn        1 UPX      0.332700
     36 HAC        -1.2560    0.3950   -0.0560 hn        1 UPX      0.321500
     37 HAV         0.8220    1.4300   -0.0270 ha        1 UPX      0.153000
     38 HAR         0.4070   -2.8490    0.7270 ha        1 UPX      0.153000
     39 HAU         3.2390    1.2590    0.3990 ha        1 UPX      0.144000
     40 HAS         2.8290   -2.9820    1.1550 ha        1 UPX      0.144000
     41 HAX1        5.4960   -2.7170    2.0440 hc        1 UPX      0.057367
     42 HAX2        5.7010   -1.1690    2.9720 hc        1 UPX      0.057367
     43 HAX3        4.0880   -1.9870    2.9260 hc        1 UPX      0.057367
     44 HAE         7.1640   -0.7550    1.3000 hn        1 UPX      0.404800
     45 HAF         6.6060    0.6170   -2.1610 hn        1 UPX      0.315700
     46 HAZ         8.4380    2.2840   -2.8560 h4        1 UPX      0.179000
     47 HBA        10.0890    2.4750   -0.6030 h4        1 UPX      0.043100
@<TRIPOS>BOND
     1    1    2 1   
     2    2    3 1   
     3    2    4 1   
     4    4    5 ar  
     5    4   10 ar  
     6    5    6 ar  
     7    5   31 1   
     8    6    7 ar  
     9    6   32 1   
    10    7    8 ar  
    11    7   33 1   
    12    8    9 1   
    13    8   10 ar  
    14    9   12 2   
    15    9   34 1   
    16   10   11 1   
    17   11   12 1   
    18   11   35 1   
    19   12   13 1   
    20   13   14 2   
    21   13   15 1   
    22   15   16 1   
    23   15   36 1   
    24   16   17 ar  
    25   16   19 ar  
    26   17   18 ar  
    27   17   37 1   
    28   18   21 ar  
    29   18   39 1   
    30   19   20 ar  
    31   19   38 1   
    32   20   21 ar  
    33   20   40 1   
    34   21   22 1   
    35   22   23 1   
    36   22   24 2   
    37   23   41 1   
    38   23   42 1   
    39   23   43 1   
    40   24   25 1   
    41   25   26 1   
    42   25   44 1   
    43   26   27 1   
    44   26   30 2   
    45   27   28 1   
    46   27   45 1   
    47   28   29 2   
    48   28   46 1   
    49   29   30 1   
    50   29   47 1   
@<TRIPOS>SUBSTRUCTURE
     1 UPX         1 TEMP              0 ****  ****    0 ROOT
