@<TRIPOS>MOLECULE
UPX
   47    37     1     0     0
SMALL
bcc


@<TRIPOS>ATOM
      1 OBB        -4.9690    5.9340    0.3250 o         1 UPX     -0.498200
      2 NAB        -4.8480    5.4190   -0.9390 no        1 UPX      0.841400
      3 OBC        -5.8460    5.0570   -1.5520 o         1 UPX     -0.498200
      4 CAJ        -3.5570    5.2540   -1.5210 c2        1 UPX     -0.157000
      5 CAI        -3.2880    6.0150   -2.6590 c1        1 UPX     -0.025000
      6 CAH        -1.9700    6.2770   -3.0260 c1        1 UPX     -0.101500
      7 CAM        -0.9200    5.7800   -2.2560 c1        1 UPX     -0.101500
      8 CAL        -1.1930    5.0080   -1.1010 c1        1 UPX     -0.114000
      9 CAO        -0.3640    4.2880   -0.2530 c1        1 UPX     -0.145000
     10 CAK        -2.4940    4.7490   -0.7400 c1        1 UPX      0.064000
     11 NAA        -2.4750    3.8660    0.3360 n1        1 UPX     -0.151000
     12 CAN        -1.1640    3.5850    0.6330 c1        1 UPX     -0.080000
     13 CAP        -0.6550    2.1170    0.7210 c1        1 UPX      0.374000
     14 OBD        -1.2180    1.3190    1.4470 o         1 UPX     -0.339000
     15 NAC         0.4430    1.7060   -0.0600 n3        1 UPX     -0.313000
     16 CAQ         0.8910    0.3540    0.0030 c2        1 UPX      0.086000
     17 CAV         2.2230    0.0810    0.2740 c2        1 UPX     -0.183000
     18 CAU         2.6930   -1.2210    0.2020 c1        1 UPX     -0.079000
     19 CAR         0.0260   -0.6790   -0.3410 c1        1 UPX     -0.152000
     20 CAS         0.4950   -1.9810   -0.4140 c1        1 UPX     -0.089000
     21 CAT         1.8290   -2.2560   -0.1430 c1        1 UPX     -0.121000
     22 CAW         2.3950   -3.6170   -0.4850 c2        1 UPX     -0.044000
     23 CAX         3.1610   -3.8180   -1.7870 c3        1 UPX     -0.165000
     24 NAD         2.2230   -4.6420    0.3530 n1        1 UPX     -0.086000
     25 NAE         1.5260   -4.4620    1.5400 n2        1 UPX     -0.160000
     26 CAY         1.3560   -5.5520    2.4320 c2        1 UPX      0.038000
     27 NAF         0.3250   -6.4340    2.4270 n2        1 UPX     -0.171000
     28 CAZ         0.5610   -7.3520    3.3720 c1        1 UPX     -0.169500
     29 CBA         1.7510   -7.0430    3.9740 c1        1 UPX     -0.169500
     30 NAG         2.2330   -5.9380    3.3940 n2        1 UPX     -0.171000
     31 HAI        -4.0280    6.3660   -3.2010 ha        1 UPX      0.171000
     32 HAH        -1.7790    6.8160   -3.8320 ha        1 UPX      0.148500
     33 HAM         0.0070    5.9640   -2.5140 ha        1 UPX      0.148500
     34 HAO         0.6130    4.2790   -0.2760 DU        1 UPX      0.217000
     35 HAA        -3.2070    3.5330    0.7690 DU        1 UPX      0.217000
     36 HAC         0.9290    2.3180   -0.5040 hn        1 UPX      0.237000
     37 HAV         2.8340    0.8100    0.5170 ha        1 UPX      0.133000
     38 HAR        -0.9110   -0.4870   -0.5320 ha        1 UPX      0.178000
     39 HAU         3.6300   -1.4120    0.3930 ha        1 UPX      0.140000
     40 HAS        -0.1180   -2.7120   -0.6580 ha        1 UPX      0.152000
     41 HAX1        3.5450   -2.9600   -2.0780 hc        1 UPX      0.093667
     42 HAX2        3.8770   -4.4630   -1.6460 hc        1 UPX      0.093667
     43 HAX3        2.5460   -4.1560   -2.4810 hc        1 UPX      0.093667
     44 HAE         1.1310   -3.6610    1.7200 hn        1 UPX      0.205000
     45 HAF        -0.3970   -6.4060    1.8790 DU        1 UPX      0.217000
     46 HAZ        -0.0120   -8.1060    3.5910 DU        1 UPX      0.217000
     47 HBA         2.1700   -7.5370    4.6940 DU        1 UPX      0.217000
@<TRIPOS>BOND
     1    1    2 2   
     2    2    3 2   
     3    2    4 1   
     4    4    5 1   
     5    4   10 1   
     6    5   31 1   
     7    6    7 1   
     8    6   32 1   
     9    7   33 1   
    10    8   10 1   
    11    9   12 1   
    12   11   12 1   
    13   13   14 1   
    14   13   15 1   
    15   15   16 1   
    16   15   36 1   
    17   16   17 1   
    18   16   19 1   
    19   17   18 1   
    20   17   37 1   
    21   18   39 1   
    22   19   38 1   
    23   20   21 1   
    24   20   40 1   
    25   21   22 1   
    26   22   23 1   
    27   22   24 1   
    28   23   41 1   
    29   23   42 1   
    30   23   43 1   
    31   25   26 1   
    32   25   44 1   
    33   26   27 1   
    34   26   30 1   
    35   27   28 1   
    36   28   29 1   
    37   29   30 1   
@<TRIPOS>SUBSTRUCTURE
     1 UPX         1 TEMP              0 ****  ****    0 ROOT
