@<TRIPOS>MOLECULE
UPX
   47    50     1     0     0
SMALL
bcc


@<TRIPOS>ATOM
      1 OBB         0.2910   -0.5400   -0.0180 o         1 UPX     -0.221000
      2 NAB         1.4910   -0.5090   -0.0590 no        1 UPX      0.325200
      3 OBC         2.1650   -0.8970    0.8640 o         1 UPX     -0.221000
      4 CAJ         2.1560    0.0170   -1.2670 ca        1 UPX     -0.208200
      5 CAI         1.4000    0.4600   -2.3590 ca        1 UPX     -0.024000
      6 CAH         2.0230    0.9580   -3.5110 ca        1 UPX     -0.181000
      7 CAM         3.4070    1.0290   -3.6190 ca        1 UPX     -0.017000
      8 CAL         4.1940    0.5960   -2.5560 ca        1 UPX     -0.128800
      9 CAO         5.6180    0.5190   -2.3290 cc        1 UPX     -0.089200
     10 CAK         3.5660    0.0820   -1.3520 ca        1 UPX      0.020800
     11 NAA         4.5560   -0.2540   -0.4430 na        1 UPX     -0.160400
     12 CAN         5.8030   -0.0050   -1.0490 cd        1 UPX     -0.139300
     13 CAP         7.1210   -0.2700   -0.4150 c         1 UPX      0.698300
     14 OBD         8.0980   -0.5640   -1.1250 o         1 UPX     -0.564100
     15 NAC         7.1760   -0.1680    0.9690 ns        1 UPX     -0.467100
     16 CAQ         8.3150   -0.3550    1.7730 ca        1 UPX      0.069600
     17 CAV         8.2760    0.1040    3.1120 ca        1 UPX     -0.168000
     18 CAU         9.3630   -0.0890    3.9560 ca        1 UPX     -0.081500
     19 CAR         9.4800   -1.0080    1.3170 ca        1 UPX     -0.168000
     20 CAS        10.5580   -1.1950    2.1750 ca        1 UPX     -0.081500
     21 CAT        10.5120   -0.7440    3.4990 ca        1 UPX     -0.143900
     22 CAW        11.6660   -0.9710    4.3910 ce        1 UPX      0.402900
     23 CAX        12.2390   -2.3530    4.3610 c3        1 UPX     -0.173400
     24 NAD        12.0970    0.0360    5.1140 n2        1 UPX     -0.463400
     25 NAE        13.2150   -0.0540    5.8550 nu        1 UPX     -0.469000
     26 CAY        13.2980    0.8860    6.9410 cc        1 UPX      0.581400
     27 NAF        13.0500    2.2650    6.7760 na        1 UPX     -0.290900
     28 CAZ        13.3320    2.8670    7.9990 cc        1 UPX     -0.264600
     29 CBA        13.7510    1.8390    8.8650 cd        1 UPX      0.302200
     30 NAG        13.7220    0.6110    8.2180 nd        1 UPX     -0.690000
     31 HAI         0.2970    0.4160   -2.3100 ha        1 UPX      0.171000
     32 HAH         1.3910    1.2970   -4.3460 ha        1 UPX      0.150000
     33 HAM         3.8810    1.4210   -4.5330 ha        1 UPX      0.151000
     34 HAO         6.4030    0.8090   -3.0250 ha        1 UPX      0.182000
     35 HAA         4.3970   -0.7400    0.4070 hn        1 UPX      0.332700
     36 HAC         6.3980    0.2460    1.4350 hn        1 UPX      0.321500
     37 HAV         7.3850    0.6190    3.5020 ha        1 UPX      0.153000
     38 HAR         9.5530   -1.3710    0.2780 ha        1 UPX      0.153000
     39 HAU         9.3140    0.2800    4.9920 ha        1 UPX      0.144000
     40 HAS        11.4620   -1.7010    1.8000 ha        1 UPX      0.144000
     41 HAX1       12.3360   -2.7680    5.3960 hc        1 UPX      0.057367
     42 HAX2       13.2520   -2.3420    3.8860 hc        1 UPX      0.057367
     43 HAX3       11.5810   -3.0410    3.7750 hc        1 UPX      0.057367
     44 HAE        13.4690   -0.9800    6.1840 hn        1 UPX      0.404800
     45 HAF        12.7030    2.7000    5.9620 hn        1 UPX      0.315700
     46 HAZ        13.2200    3.9380    8.1570 h4        1 UPX      0.179000
     47 HBA        14.0640    1.9200    9.9060 h4        1 UPX      0.043100
@<TRIPOS>BOND
     1    1    2 1   
     2    2    3 1   
     3    2    4 1   
     4    4    5 ar  
     5    4   10 ar  
     6    5    6 ar  
     7    5   31 1   
     8    6    7 ar  
     9    6   32 1   
    10    7    8 ar  
    11    7   33 1   
    12    8    9 1   
    13    8   10 ar  
    14    9   12 2   
    15    9   34 1   
    16   10   11 1   
    17   11   12 1   
    18   11   35 1   
    19   12   13 1   
    20   13   14 2   
    21   13   15 1   
    22   15   16 1   
    23   15   36 1   
    24   16   17 ar  
    25   16   19 ar  
    26   17   18 ar  
    27   17   37 1   
    28   18   21 ar  
    29   18   39 1   
    30   19   20 ar  
    31   19   38 1   
    32   20   21 ar  
    33   20   40 1   
    34   21   22 1   
    35   22   23 1   
    36   22   24 2   
    37   23   41 1   
    38   23   42 1   
    39   23   43 1   
    40   24   25 1   
    41   25   26 1   
    42   25   44 1   
    43   26   27 1   
    44   26   30 2   
    45   27   28 1   
    46   27   45 1   
    47   28   29 2   
    48   28   46 1   
    49   29   30 1   
    50   29   47 1   
@<TRIPOS>SUBSTRUCTURE
     1 UPX         1 TEMP              0 ****  ****    0 ROOT
