@<TRIPOS>MOLECULE
UQ1
   36    36     1     0     0
SMALL
bcc


@<TRIPOS>ATOM
      1 C1          1.1450   -0.5110    0.1740 c         1 UQ1      0.554500
      2 O1          2.2180   -0.8220   -0.3540 o         1 UQ1     -0.495100
      3 C2          1.0680   -0.0720    1.5900 cc        1 UQ1      0.010900
      4 O2          2.2310    0.3240    2.2170 os        1 UQ1     -0.316900
      5 CM2         3.1520   -0.7360    2.4920 c3        1 UQ1      0.111700
      6 C3         -0.1210    0.0240    2.2410 cd        1 UQ1      0.010900
      7 O3         -0.1300    0.2290    3.6050 os        1 UQ1     -0.312900
      8 CM3        -0.8170    1.4080    4.0340 c3        1 UQ1      0.110700
      9 C4         -1.4110   -0.1970    1.5410 c         1 UQ1      0.549500
     10 O4         -2.4900   -0.1870    2.1440 o         1 UQ1     -0.494100
     11 C5         -1.3290   -0.4270    0.0760 cc        1 UQ1     -0.128400
     12 CM5        -2.6210   -0.5160   -0.6460 c3        1 UQ1     -0.071900
     13 C6         -0.1440   -0.5590   -0.5600 cd        1 UQ1     -0.132400
     14 C7         -0.0540   -0.7880   -2.0310 c3        1 UQ1     -0.015000
     15 C8         -0.2920    0.4470   -2.8190 c2        1 UQ1     -0.183200
     16 C9         -0.1330    0.5020   -4.1520 c2        1 UQ1     -0.108400
     17 C10        -0.3760    1.7510   -4.9140 c3        1 UQ1     -0.061900
     18 C11         0.3010   -0.6710   -4.9470 c3        1 UQ1     -0.061900
     19 HM21        4.0060   -0.2080    2.9860 h1        1 UQ1      0.052033
     20 HM22        2.6880   -1.4760    3.1870 h1        1 UQ1      0.052033
     21 HM23        3.4810   -1.2280    1.5450 h1        1 UQ1      0.052033
     22 HM31       -0.6930    1.3820    5.1460 h1        1 UQ1      0.051700
     23 HM32       -0.3310    2.3150    3.6010 h1        1 UQ1      0.051700
     24 HM33       -1.8970    1.3600    3.7530 h1        1 UQ1      0.051700
     25 HM51       -3.4740   -0.2100    0.0100 hc        1 UQ1      0.063367
     26 HM52       -2.6060    0.1400   -1.5530 hc        1 UQ1      0.063367
     27 HM53       -2.7950   -1.5710   -0.9810 hc        1 UQ1      0.063367
     28 H71         0.9640   -1.2030   -2.2870 hc        1 UQ1      0.072700
     29 H72        -0.8100   -1.5700   -2.3290 hc        1 UQ1      0.072700
     30 H8         -0.6060    1.3370   -2.2520 ha        1 UQ1      0.127000
     31 H101        0.5510    2.0470   -5.4660 hc        1 UQ1      0.043867
     32 H102       -1.1910    1.5900   -5.6620 hc        1 UQ1      0.043867
     33 H103       -0.6720    2.5950   -4.2440 hc        1 UQ1      0.043867
     34 H111       -0.3500   -1.5550   -4.7290 hc        1 UQ1      0.043867
     35 H112        0.2540   -0.4600   -6.0430 hc        1 UQ1      0.043867
     36 H113        1.3540   -0.9460   -4.6840 hc        1 UQ1      0.043867
@<TRIPOS>BOND
     1    1    2 2   
     2    1    3 1   
     3    1   13 1   
     4    3    4 1   
     5    3    6 2   
     6    4    5 1   
     7    5   19 1   
     8    5   20 1   
     9    5   21 1   
    10    6    7 1   
    11    6    9 1   
    12    7    8 1   
    13    8   22 1   
    14    8   23 1   
    15    8   24 1   
    16    9   10 2   
    17    9   11 1   
    18   11   12 1   
    19   11   13 2   
    20   12   25 1   
    21   12   26 1   
    22   12   27 1   
    23   13   14 1   
    24   14   15 1   
    25   14   28 1   
    26   14   29 1   
    27   15   16 2   
    28   15   30 1   
    29   16   17 1   
    30   16   18 1   
    31   17   31 1   
    32   17   32 1   
    33   17   33 1   
    34   18   34 1   
    35   18   35 1   
    36   18   36 1   
@<TRIPOS>SUBSTRUCTURE
     1 UQ1         1 TEMP              0 ****  ****    0 ROOT
