@<TRIPOS>MOLECULE
UQ1
   36    36     1     0     0
SMALL
bcc


@<TRIPOS>ATOM
      1 C1          0.2120   -0.3460   -0.0910 c         1 UQ1      0.555500
      2 O1         -0.2700   -0.6940   -1.1750 o         1 UQ1     -0.503100
      3 C2          1.6790   -0.2290    0.1140 cc        1 UQ1      0.025900
      4 O2          2.5430   -0.1830   -0.9530 os        1 UQ1     -0.305900
      5 CM2         2.2410   -1.0300   -2.0660 c3        1 UQ1      0.115700
      6 C3          2.2070   -0.1130    1.3640 cd        1 UQ1     -0.018100
      7 O3          3.5710   -0.2320    1.5390 os        1 UQ1     -0.307900
      8 CM3         4.2100    0.9410    2.0500 c3        1 UQ1      0.109700
      9 C4          1.3540    0.0410    2.5620 c         1 UQ1      0.552500
     10 O4          1.8310    0.1000    3.7010 o         1 UQ1     -0.496100
     11 C5         -0.1100    0.1300    2.3180 cc        1 UQ1     -0.120400
     12 CM5        -0.9570    0.3990    3.5040 c3        1 UQ1     -0.072900
     13 C6         -0.6350   -0.0330    1.0850 cd        1 UQ1     -0.140400
     14 C7         -2.1020    0.0600    0.8290 c3        1 UQ1     -0.014000
     15 C8         -2.5900    1.4620    0.7970 c2        1 UQ1     -0.184200
     16 C9         -3.8410    1.7900    0.4360 c2        1 UQ1     -0.108400
     17 C10        -4.3000    3.2000    0.4130 c3        1 UQ1     -0.062400
     18 C11        -4.8410    0.7740    0.0300 c3        1 UQ1     -0.062400
     19 HM21        3.2220   -1.1050   -2.6000 h1        1 UQ1      0.053700
     20 HM22        1.4700   -0.5390   -2.7080 h1        1 UQ1      0.053700
     21 HM23        1.8890   -2.0330   -1.7300 h1        1 UQ1      0.053700
     22 HM31        5.2830    0.6340    2.1270 h1        1 UQ1      0.048700
     23 HM32        4.0900    1.7880    1.3330 h1        1 UQ1      0.048700
     24 HM33        3.7990    1.2070    3.0530 h1        1 UQ1      0.048700
     25 HM51       -1.5480   -0.5170    3.7620 hc        1 UQ1      0.063700
     26 HM52       -1.6770    1.2290    3.2890 hc        1 UQ1      0.063700
     27 HM53       -0.3360    0.6780    4.3920 hc        1 UQ1      0.063700
     28 H71        -2.3490   -0.4440   -0.1490 hc        1 UQ1      0.072200
     29 H72        -2.6530   -0.5050    1.6350 hc        1 UQ1      0.072200
     30 H8         -1.8650    2.2390    1.0860 ha        1 UQ1      0.127000
     31 H101       -5.1530    3.3360    1.1240 hc        1 UQ1      0.043867
     32 H102       -3.4840    3.9070    0.7000 hc        1 UQ1      0.043867
     33 H103       -4.6560    3.4690   -0.6130 hc        1 UQ1      0.043867
     34 H111       -4.9140   -0.0350    0.8000 hc        1 UQ1      0.043867
     35 H112       -4.5370    0.3000   -0.9380 hc        1 UQ1      0.043867
     36 H113       -5.8530    1.2290   -0.1020 hc        1 UQ1      0.043867
@<TRIPOS>BOND
     1    1    2 2   
     2    1    3 1   
     3    1   13 1   
     4    3    4 1   
     5    3    6 2   
     6    4    5 1   
     7    5   19 1   
     8    5   20 1   
     9    5   21 1   
    10    6    7 1   
    11    6    9 1   
    12    7    8 1   
    13    8   22 1   
    14    8   23 1   
    15    8   24 1   
    16    9   10 2   
    17    9   11 1   
    18   11   12 1   
    19   11   13 2   
    20   12   25 1   
    21   12   26 1   
    22   12   27 1   
    23   13   14 1   
    24   14   15 1   
    25   14   28 1   
    26   14   29 1   
    27   15   16 2   
    28   15   30 1   
    29   16   17 1   
    30   16   18 1   
    31   17   31 1   
    32   17   32 1   
    33   17   33 1   
    34   18   34 1   
    35   18   35 1   
    36   18   36 1   
@<TRIPOS>SUBSTRUCTURE
     1 UQ1         1 TEMP              0 ****  ****    0 ROOT
