@<TRIPOS>MOLECULE
UQ1
   36    36     1     0     0
SMALL
bcc


@<TRIPOS>ATOM
      1 C1          0.1620   -0.2580   -0.1930 c         1 UQ1      0.554500
      2 O1         -0.3270   -0.5610   -1.2870 o         1 UQ1     -0.495100
      3 C2          1.6280   -0.1410    0.0040 cc        1 UQ1      0.010900
      4 O2          2.4310   -0.0310   -1.1110 os        1 UQ1     -0.316900
      5 CM2         2.5310   -1.2220   -1.8980 c3        1 UQ1      0.111700
      6 C3          2.1750   -0.0600    1.2450 cd        1 UQ1      0.010900
      7 O3          3.5420   -0.1670    1.3900 os        1 UQ1     -0.312900
      8 CM3         4.1730    0.9550    2.0130 c3        1 UQ1      0.110700
      9 C4          1.3300    0.0280    2.4620 c         1 UQ1      0.549500
     10 O4          1.8200    0.0240    3.5970 o         1 UQ1     -0.494100
     11 C5         -0.1350    0.1250    2.2360 cc        1 UQ1     -0.128400
     12 CM5        -0.9690    0.3460    3.4420 c3        1 UQ1     -0.071900
     13 C6         -0.6750    0.0060    1.0040 cd        1 UQ1     -0.132400
     14 C7         -2.1450    0.1040    0.7690 c3        1 UQ1     -0.015000
     15 C8         -2.6390    1.5040    0.8050 c2        1 UQ1     -0.183200
     16 C9         -3.9000    1.8400    0.4890 c2        1 UQ1     -0.108400
     17 C10        -4.3660    3.2470    0.5310 c3        1 UQ1     -0.061900
     18 C11        -4.9060    0.8340    0.0710 c3        1 UQ1     -0.061900
     19 HM21        3.2100   -0.9180   -2.7340 h1        1 UQ1      0.052033
     20 HM22        1.5280   -1.5220   -2.2860 h1        1 UQ1      0.052033
     21 HM23        2.9880   -2.0420   -1.2940 h1        1 UQ1      0.052033
     22 HM31        5.2540    0.6670    2.0180 h1        1 UQ1      0.051700
     23 HM32        4.0100    1.8750    1.4030 h1        1 UQ1      0.051700
     24 HM33        3.7930    1.0930    3.0540 h1        1 UQ1      0.051700
     25 HM51       -1.5570   -0.5790    3.6700 hc        1 UQ1      0.063367
     26 HM52       -1.6920    1.1830    3.2660 hc        1 UQ1      0.063367
     27 HM53       -0.3390    0.5920    4.3320 hc        1 UQ1      0.063367
     28 H71        -2.3990   -0.3550   -0.2290 hc        1 UQ1      0.072700
     29 H72        -2.6850   -0.4990    1.5540 hc        1 UQ1      0.072700
     30 H8         -1.9090    2.2730    1.1030 ha        1 UQ1      0.127000
     31 H101       -5.2030    3.3510    1.2670 hc        1 UQ1      0.043867
     32 H102       -3.5460    3.9460    0.8270 hc        1 UQ1      0.043867
     33 H103       -4.7460    3.5530   -0.4750 hc        1 UQ1      0.043867
     34 H111       -4.9620    0.0010    0.8170 hc        1 UQ1      0.043867
     35 H112       -4.6210    0.3920   -0.9170 hc        1 UQ1      0.043867
     36 H113       -5.9210    1.2900   -0.0250 hc        1 UQ1      0.043867
@<TRIPOS>BOND
     1    1    2 2   
     2    1    3 1   
     3    1   13 1   
     4    3    4 1   
     5    3    6 2   
     6    4    5 1   
     7    5   19 1   
     8    5   20 1   
     9    5   21 1   
    10    6    7 1   
    11    6    9 1   
    12    7    8 1   
    13    8   22 1   
    14    8   23 1   
    15    8   24 1   
    16    9   10 2   
    17    9   11 1   
    18   11   12 1   
    19   11   13 2   
    20   12   25 1   
    21   12   26 1   
    22   12   27 1   
    23   13   14 1   
    24   14   15 1   
    25   14   28 1   
    26   14   29 1   
    27   15   16 2   
    28   15   30 1   
    29   16   17 1   
    30   16   18 1   
    31   17   31 1   
    32   17   32 1   
    33   17   33 1   
    34   18   34 1   
    35   18   35 1   
    36   18   36 1   
@<TRIPOS>SUBSTRUCTURE
     1 UQ1         1 TEMP              0 ****  ****    0 ROOT
