@<TRIPOS>MOLECULE
UQ2
   49    49     1     0     0
SMALL
bcc


@<TRIPOS>ATOM
      1 C1         -0.3950    1.0900   -2.0270 c         1 UQ2      0.554500
      2 C2          0.4400    0.7690   -3.2110 cc        1 UQ2      0.010900
      3 C3          0.2970   -0.4020   -3.8860 cd        1 UQ2      0.010900
      4 C4         -0.6230   -1.4660   -3.4120 c         1 UQ2      0.549500
      5 C5         -1.2940   -1.2170   -2.1100 cc        1 UQ2     -0.128400
      6 C6         -1.1770   -0.0380   -1.4620 cd        1 UQ2     -0.133400
      7 CM2         0.9690    2.8930   -4.1120 c3        1 UQ2      0.111700
      8 CM3         1.8400   -1.6780   -5.1540 c3        1 UQ2      0.110700
      9 CM5        -2.1070   -2.3330   -1.5710 c3        1 UQ2     -0.071900
     10 C7         -1.8460    0.2180   -0.1540 c3        1 UQ2     -0.016000
     11 C8         -1.1410   -0.4220    0.9850 c2        1 UQ2     -0.180200
     12 C9         -1.4760   -0.2010    2.2670 c2        1 UQ2     -0.108400
     13 C10        -2.5800    0.7120    2.6480 c3        1 UQ2     -0.063900
     14 C11        -0.7500   -0.8720    3.3830 c3        1 UQ2     -0.040200
     15 C12         0.0830    0.1150    4.1810 c3        1 UQ2     -0.042200
     16 C13         0.7640   -0.5330    5.3250 c2        1 UQ2     -0.180200
     17 C14         1.6690    0.0920    6.0960 c2        1 UQ2     -0.120400
     18 C15         2.3270   -0.5880    7.2370 c3        1 UQ2     -0.058900
     19 C16         2.0760    1.4970    5.8550 c3        1 UQ2     -0.058900
     20 O1         -0.4380    2.2290   -1.5500 o         1 UQ2     -0.495100
     21 O2          1.4360    1.6530   -3.5680 os        1 UQ2     -0.316900
     22 O3          0.9400   -0.5670   -5.0950 os        1 UQ2     -0.312900
     23 O4         -0.8150   -2.4980   -4.0630 o         1 UQ2     -0.494100
     24 H2M1        1.9160    3.4490   -4.3240 h1        1 UQ2      0.051700
     25 H2M2        0.3980    2.7060   -5.0530 h1        1 UQ2      0.051700
     26 H2M3        0.3430    3.4380   -3.3660 h1        1 UQ2      0.051700
     27 H3M1        2.2480   -1.6170   -6.1940 h1        1 UQ2      0.052033
     28 H3M2        2.6530   -1.5530   -4.4000 h1        1 UQ2      0.052033
     29 H3M3        1.2920   -2.6380   -4.9970 h1        1 UQ2      0.052033
     30 H5M1       -1.9420   -3.2740   -2.1520 hc        1 UQ2      0.063033
     31 H5M2       -1.8490   -2.5190   -0.4970 hc        1 UQ2      0.063033
     32 H5M3       -3.1950   -2.0710   -1.6270 hc        1 UQ2      0.063033
     33 H71        -1.9110    1.3300    0.0260 hc        1 UQ2      0.073200
     34 H72        -2.9050   -0.1680   -0.1980 hc        1 UQ2      0.073200
     35 H8         -0.3120   -1.1000    0.7280 ha        1 UQ2      0.128000
     36 H101       -2.3040    1.7700    2.4070 hc        1 UQ2      0.044700
     37 H102       -3.5100    0.4610    2.0790 hc        1 UQ2      0.044700
     38 H103       -2.8050    0.6470    3.7400 hc        1 UQ2      0.044700
     39 H111       -1.4990   -1.3640    4.0610 hc        1 UQ2      0.047200
     40 H112       -0.0820   -1.6820    2.9850 hc        1 UQ2      0.047200
     41 H121        0.8460    0.5920    3.5060 hc        1 UQ2      0.051700
     42 H122       -0.5780    0.9440    4.5580 hc        1 UQ2      0.051700
     43 H13         0.4850   -1.5800    5.5270 ha        1 UQ2      0.121000
     44 H151        3.4370   -0.5740    7.1040 hc        1 UQ2      0.041367
     45 H152        2.0840   -0.0560    8.1910 hc        1 UQ2      0.041367
     46 H153        1.9960   -1.6510    7.3320 hc        1 UQ2      0.041367
     47 H161        1.1760    2.1580    5.7750 hc        1 UQ2      0.041367
     48 H162        2.7240    1.8800    6.6810 hc        1 UQ2      0.041367
     49 H163        2.6460    1.5740    4.8940 hc        1 UQ2      0.041367
@<TRIPOS>BOND
     1    1    2 1   
     2    1    6 1   
     3    1   20 2   
     4    2    3 2   
     5    2   21 1   
     6    3    4 1   
     7    3   22 1   
     8    4    5 1   
     9    4   23 2   
    10    5    6 2   
    11    5    9 1   
    12    6   10 1   
    13    7   21 1   
    14    7   24 1   
    15    7   25 1   
    16    7   26 1   
    17    8   22 1   
    18    8   27 1   
    19    8   28 1   
    20    8   29 1   
    21    9   30 1   
    22    9   31 1   
    23    9   32 1   
    24   10   11 1   
    25   10   33 1   
    26   10   34 1   
    27   11   12 2   
    28   11   35 1   
    29   12   13 1   
    30   12   14 1   
    31   13   36 1   
    32   13   37 1   
    33   13   38 1   
    34   14   15 1   
    35   14   39 1   
    36   14   40 1   
    37   15   16 1   
    38   15   41 1   
    39   15   42 1   
    40   16   17 2   
    41   16   43 1   
    42   17   18 1   
    43   17   19 1   
    44   18   44 1   
    45   18   45 1   
    46   18   46 1   
    47   19   47 1   
    48   19   48 1   
    49   19   49 1   
@<TRIPOS>SUBSTRUCTURE
     1 UQ2         1 TEMP              0 ****  ****    0 ROOT
