@<TRIPOS>MOLECULE
UQ2
   49    49     1     0     0
SMALL
bcc


@<TRIPOS>ATOM
      1 C1         -0.0400   -0.4190    0.2060 c         1 UQ2      0.557500
      2 C2          1.4370   -0.2760    0.2620 cc        1 UQ2      0.023900
      3 C3          2.1000   -0.3000    1.4520 cd        1 UQ2     -0.015100
      4 C4          1.3830   -0.3330    2.7450 c         1 UQ2      0.552500
      5 C5         -0.1000   -0.2580    2.6780 cc        1 UQ2     -0.123400
      6 C6         -0.7570   -0.2830    1.4980 cd        1 UQ2     -0.133400
      7 CM2         1.7790   -0.7990   -2.0420 c3        1 UQ2      0.115700
      8 CM3         4.1430    0.7260    2.0570 c3        1 UQ2      0.109700
      9 CM5        -0.8070   -0.1640    3.9780 c3        1 UQ2     -0.070900
     10 C7         -2.2460   -0.2000    1.4050 c3        1 UQ2     -0.012000
     11 C8         -2.7120    1.2100    1.3600 c2        1 UQ2     -0.191200
     12 C9         -3.3420    1.7810    0.3220 c2        1 UQ2     -0.089400
     13 C10        -3.6340    1.0700   -0.9460 c3        1 UQ2     -0.072900
     14 C11        -3.8120    3.1960    0.4020 c3        1 UQ2     -0.045200
     15 C12        -2.9130    4.1280   -0.3910 c3        1 UQ2     -0.042200
     16 C13        -3.3900    5.5300   -0.3450 c2        1 UQ2     -0.180200
     17 C14        -2.6980    6.5620   -0.8530 c2        1 UQ2     -0.120400
     18 C15        -3.2100    7.9520   -0.7930 c3        1 UQ2     -0.058900
     19 C16        -1.3770    6.3840   -1.5040 c3        1 UQ2     -0.058900
     20 O1         -0.6340   -0.6450   -0.8550 o         1 UQ2     -0.508100
     21 O2          2.1710   -0.0640   -0.8790 os        1 UQ2     -0.305900
     22 O3          3.4770   -0.3890    1.4590 os        1 UQ2     -0.307900
     23 O4          1.9850   -0.4120    3.8230 o         1 UQ2     -0.496100
     24 H2M1        0.9250   -0.2780   -2.5400 h1        1 UQ2      0.053033
     25 H2M2        1.5010   -1.8480   -1.7870 h1        1 UQ2      0.053033
     26 H2M3        2.6960   -0.7700   -2.6830 h1        1 UQ2      0.053033
     27 H3M1        3.8440    0.8360    3.1270 h1        1 UQ2      0.049033
     28 H3M2        5.2250    0.4530    1.9710 h1        1 UQ2      0.049033
     29 H3M3        3.9220    1.6580    1.4840 h1        1 UQ2      0.049033
     30 H5M1       -1.3910   -1.1020    4.1620 hc        1 UQ2      0.062367
     31 H5M2       -0.0850   -0.0300    4.8220 hc        1 UQ2      0.062367
     32 H5M3       -1.5200    0.6980    3.9750 hc        1 UQ2      0.062367
     33 H71        -2.7080   -0.7040    2.3000 hc        1 UQ2      0.068700
     34 H72        -2.5900   -0.7640    0.4930 hc        1 UQ2      0.068700
     35 H8         -2.5130    1.7900    2.2770 ha        1 UQ2      0.121000
     36 H101       -2.7250    0.5300   -1.3180 hc        1 UQ2      0.050367
     37 H102       -4.4470    0.3170   -0.7860 hc        1 UQ2      0.050367
     38 H103       -3.9700    1.7820   -1.7400 hc        1 UQ2      0.050367
     39 H111       -3.8450    3.5380    1.4710 hc        1 UQ2      0.047700
     40 H112       -4.8600    3.2570    0.0010 hc        1 UQ2      0.047700
     41 H121       -2.8660    3.7850   -1.4620 hc        1 UQ2      0.051200
     42 H122       -1.8650    4.0710    0.0120 hc        1 UQ2      0.051200
     43 H13        -4.3680    5.6940    0.1360 ha        1 UQ2      0.122000
     44 H151       -4.1900    8.0090   -0.2590 hc        1 UQ2      0.041200
     45 H152       -2.4770    8.6080   -0.2590 hc        1 UQ2      0.041200
     46 H153       -3.3470    8.3550   -1.8280 hc        1 UQ2      0.041200
     47 H161       -1.4310    5.5880   -2.2890 hc        1 UQ2      0.041200
     48 H162       -1.0290    7.3310   -1.9830 hc        1 UQ2      0.041200
     49 H163       -0.6140    6.0690   -0.7480 hc        1 UQ2      0.041200
@<TRIPOS>BOND
     1    1    2 1   
     2    1    6 1   
     3    1   20 2   
     4    2    3 2   
     5    2   21 1   
     6    3    4 1   
     7    3   22 1   
     8    4    5 1   
     9    4   23 2   
    10    5    6 2   
    11    5    9 1   
    12    6   10 1   
    13    7   21 1   
    14    7   24 1   
    15    7   25 1   
    16    7   26 1   
    17    8   22 1   
    18    8   27 1   
    19    8   28 1   
    20    8   29 1   
    21    9   30 1   
    22    9   31 1   
    23    9   32 1   
    24   10   11 1   
    25   10   33 1   
    26   10   34 1   
    27   11   12 2   
    28   11   35 1   
    29   12   13 1   
    30   12   14 1   
    31   13   36 1   
    32   13   37 1   
    33   13   38 1   
    34   14   15 1   
    35   14   39 1   
    36   14   40 1   
    37   15   16 1   
    38   15   41 1   
    39   15   42 1   
    40   16   17 2   
    41   16   43 1   
    42   17   18 1   
    43   17   19 1   
    44   18   44 1   
    45   18   45 1   
    46   18   46 1   
    47   19   47 1   
    48   19   48 1   
    49   19   49 1   
@<TRIPOS>SUBSTRUCTURE
     1 UQ2         1 TEMP              0 ****  ****    0 ROOT
