@<TRIPOS>MOLECULE
UQ2
   49    49     1     0     0
SMALL
bcc


@<TRIPOS>ATOM
      1 C1         -0.0490   -0.4220    0.2020 c         1 UQ2      0.557500
      2 C2          1.4280   -0.2850    0.2630 cc        1 UQ2      0.023900
      3 C3          2.0870   -0.3140    1.4550 cd        1 UQ2     -0.015100
      4 C4          1.3650   -0.3470    2.7460 c         1 UQ2      0.552500
      5 C5         -0.1180   -0.2670    2.6730 cc        1 UQ2     -0.123400
      6 C6         -0.7710   -0.2870    1.4920 cd        1 UQ2     -0.133400
      7 CM2         1.7760   -0.8030   -2.0410 c3        1 UQ2      0.115700
      8 CM3         4.1320    0.7030    2.0710 c3        1 UQ2      0.109700
      9 CM5        -0.8290   -0.1740    3.9710 c3        1 UQ2     -0.070900
     10 C7         -2.2590   -0.1970    1.3920 c3        1 UQ2     -0.012000
     11 C8         -2.7200    1.2140    1.3500 c2        1 UQ2     -0.191200
     12 C9         -3.3440    1.7900    0.3110 c2        1 UQ2     -0.089400
     13 C10        -3.6330    1.0830   -0.9600 c3        1 UQ2     -0.072900
     14 C11        -3.8080    3.2070    0.3930 c3        1 UQ2     -0.045200
     15 C12        -2.9020    4.1370   -0.3940 c3        1 UQ2     -0.042200
     16 C13        -3.3740    5.5410   -0.3450 c2        1 UQ2     -0.180200
     17 C14        -2.6740    6.5720   -0.8440 c2        1 UQ2     -0.120400
     18 C15        -3.1820    7.9640   -0.7820 c3        1 UQ2     -0.058900
     19 C16        -1.3490    6.3920   -1.4840 c3        1 UQ2     -0.058900
     20 O1         -0.6410   -0.6430   -0.8620 o         1 UQ2     -0.508100
     21 O2          2.1670   -0.0730   -0.8750 os        1 UQ2     -0.305900
     22 O3          3.4630   -0.4090    1.4680 os        1 UQ2     -0.307900
     23 O4          1.9630   -0.4310    3.8250 o         1 UQ2     -0.496100
     24 H2M1        0.9260   -0.2780   -2.5410 h1        1 UQ2      0.053033
     25 H2M2        1.4940   -1.8520   -1.7890 h1        1 UQ2      0.053033
     26 H2M3        2.6960   -0.7770   -2.6780 h1        1 UQ2      0.053033
     27 H3M1        3.8290    0.8110    3.1400 h1        1 UQ2      0.049033
     28 H3M2        5.2130    0.4250    1.9880 h1        1 UQ2      0.049033
     29 H3M3        3.9170    1.6370    1.4990 h1        1 UQ2      0.049033
     30 H5M1       -1.4170   -1.1100    4.1510 hc        1 UQ2      0.062367
     31 H5M2       -0.1100   -0.0430    4.8180 hc        1 UQ2      0.062367
     32 H5M3       -1.5390    0.6910    3.9680 hc        1 UQ2      0.062367
     33 H71        -2.7250   -0.7020    2.2850 hc        1 UQ2      0.068700
     34 H72        -2.6010   -0.7580    0.4790 hc        1 UQ2      0.068700
     35 H8         -2.5220    1.7900    2.2690 ha        1 UQ2      0.121000
     36 H101       -2.7250    0.5410   -1.3300 hc        1 UQ2      0.050367
     37 H102       -4.4490    0.3330   -0.8050 hc        1 UQ2      0.050367
     38 H103       -3.9630    1.7980   -1.7530 hc        1 UQ2      0.050367
     39 H111       -3.8450    3.5460    1.4620 hc        1 UQ2      0.047700
     40 H112       -4.8540    3.2720   -0.0120 hc        1 UQ2      0.047700
     41 H121       -2.8520    3.7970   -1.4650 hc        1 UQ2      0.051200
     42 H122       -1.8560    4.0750    0.0140 hc        1 UQ2      0.051200
     43 H13        -4.3560    5.7070    0.1280 ha        1 UQ2      0.122000
     44 H151       -4.1650    8.0230   -0.2560 hc        1 UQ2      0.041200
     45 H152       -2.4510    8.6150   -0.2390 hc        1 UQ2      0.041200
     46 H153       -3.3090    8.3710   -1.8160 hc        1 UQ2      0.041200
     47 H161       -1.3990    5.5970   -2.2700 hc        1 UQ2      0.041200
     48 H162       -0.9950    7.3390   -1.9590 hc        1 UQ2      0.041200
     49 H163       -0.5930    6.0750   -0.7220 hc        1 UQ2      0.041200
@<TRIPOS>BOND
     1    1    2 1   
     2    1    6 1   
     3    1   20 2   
     4    2    3 2   
     5    2   21 1   
     6    3    4 1   
     7    3   22 1   
     8    4    5 1   
     9    4   23 2   
    10    5    6 2   
    11    5    9 1   
    12    6   10 1   
    13    7   21 1   
    14    7   24 1   
    15    7   25 1   
    16    7   26 1   
    17    8   22 1   
    18    8   27 1   
    19    8   28 1   
    20    8   29 1   
    21    9   30 1   
    22    9   31 1   
    23    9   32 1   
    24   10   11 1   
    25   10   33 1   
    26   10   34 1   
    27   11   12 2   
    28   11   35 1   
    29   12   13 1   
    30   12   14 1   
    31   13   36 1   
    32   13   37 1   
    33   13   38 1   
    34   14   15 1   
    35   14   39 1   
    36   14   40 1   
    37   15   16 1   
    38   15   41 1   
    39   15   42 1   
    40   16   17 2   
    41   16   43 1   
    42   17   18 1   
    43   17   19 1   
    44   18   44 1   
    45   18   45 1   
    46   18   46 1   
    47   19   47 1   
    48   19   48 1   
    49   19   49 1   
@<TRIPOS>SUBSTRUCTURE
     1 UQ2         1 TEMP              0 ****  ****    0 ROOT
