@<TRIPOS>MOLECULE
UQ5
   88    88     1     0     0
SMALL
bcc


@<TRIPOS>ATOM
      1 C1         -1.9490    0.9430    0.7640 cc        1 UQ5     -0.123400
      2 C2         -1.0400    1.1830   -0.3890 c         1 UQ5      0.552500
      3 C3          0.4080    1.0570   -0.1170 cc        1 UQ5     -0.015100
      4 C4          0.8870    0.8040    1.1330 cd        1 UQ5      0.023900
      5 C5         -0.0190    0.7780    2.3090 c         1 UQ5      0.557500
      6 C6         -1.4730    0.7410    2.0110 cd        1 UQ5     -0.133400
      7 C1M        -3.4000    0.9500    0.4600 c3        1 UQ5     -0.070900
      8 C3M         1.2340    0.3460   -2.2170 c3        1 UQ5      0.109700
      9 C4M         2.8830    1.0510    2.4200 c3        1 UQ5      0.115700
     10 C7         -2.3650    0.4880    3.1820 c3        1 UQ5     -0.012000
     11 C8         -2.6800   -0.9560    3.3280 c2        1 UQ5     -0.190200
     12 C9         -2.3150   -1.7240    4.3660 c2        1 UQ5     -0.089400
     13 C10        -1.5140   -1.2220    5.5080 c3        1 UQ5     -0.072900
     14 C11        -2.7270   -3.1570    4.4350 c3        1 UQ5     -0.045200
     15 C12        -1.5720   -4.0850    4.1040 c3        1 UQ5     -0.043200
     16 C13        -1.9640   -5.5110    4.2000 c2        1 UQ5     -0.176200
     17 C14        -1.1700   -6.5230    3.8120 c2        1 UQ5     -0.120400
     18 C15         0.1780   -6.2920    3.2400 c3        1 UQ5     -0.059900
     19 C16        -1.6020   -7.9430    3.9460 c3        1 UQ5     -0.039200
     20 C17        -1.8340   -8.5880    2.5920 c3        1 UQ5     -0.043200
     21 C18        -2.2110  -10.0150    2.7140 c2        1 UQ5     -0.174200
     22 C19        -2.6100  -10.7660    1.6750 c2        1 UQ5     -0.123400
     23 C20        -2.7150  -10.2180    0.3010 c3        1 UQ5     -0.058900
     24 C21        -2.9610  -12.2050    1.8460 c3        1 UQ5     -0.039200
     25 C22        -4.4460  -12.4470    1.6370 c3        1 UQ5     -0.043200
     26 C23        -4.7950  -13.8820    1.7510 c2        1 UQ5     -0.174200
     27 C24        -6.0580  -14.3370    1.7530 c2        1 UQ5     -0.123400
     28 C25        -7.2240  -13.4270    1.6490 c3        1 UQ5     -0.058900
     29 C26        -6.3580  -15.7940    1.8520 c3        1 UQ5     -0.038200
     30 C27        -7.0140  -16.1420    3.1760 c3        1 UQ5     -0.043200
     31 C28        -7.3670  -17.5780    3.2600 c2        1 UQ5     -0.177200
     32 C29        -7.8450  -18.1570    4.3740 c2        1 UQ5     -0.124400
     33 C30        -8.0530  -17.4000    5.6310 c3        1 UQ5     -0.057900
     34 C31        -8.1910  -19.5980    4.4190 c3        1 UQ5     -0.057900
     35 O2         -1.4710    1.4660   -1.5120 o         1 UQ5     -0.496100
     36 O3          1.2940    1.2940   -1.1480 os        1 UQ5     -0.307900
     37 O4          2.2250    0.5230    1.2640 os        1 UQ5     -0.305900
     38 O5          0.4140    0.7940    3.4670 o         1 UQ5     -0.508100
     39 H1M1       -3.5830    1.0060   -0.6420 hc        1 UQ5      0.062700
     40 H1M2       -3.8860    1.8370    0.9410 hc        1 UQ5      0.062700
     41 H1M3       -3.8880    0.0250    0.8580 hc        1 UQ5      0.062700
     42 H3M1        0.2210    0.3460   -2.6860 h1        1 UQ5      0.049033
     43 H3M2        1.4990   -0.6720   -1.8430 h1        1 UQ5      0.049033
     44 H3M3        2.0060    0.7200   -2.9340 h1        1 UQ5      0.049033
     45 H4M1        2.5420    2.0880    2.6440 h1        1 UQ5      0.053033
     46 H4M2        3.9630    1.0370    2.1260 h1        1 UQ5      0.053033
     47 H4M3        2.6950    0.3800    3.2930 h1        1 UQ5      0.053033
     48 H71        -1.8730    0.8870    4.1130 hc        1 UQ5      0.069200
     49 H72        -3.3290    1.0560    3.0490 hc        1 UQ5      0.069200
     50 H8         -3.2700   -1.3840    2.5000 ha        1 UQ5      0.121000
     51 H101       -1.1500   -2.0640    6.1470 hc        1 UQ5      0.050367
     52 H102       -2.1350   -0.5430    6.1460 hc        1 UQ5      0.050367
     53 H103       -0.6240   -0.6450    5.1470 hc        1 UQ5      0.050367
     54 H111       -3.5740   -3.3550    3.7240 hc        1 UQ5      0.048200
     55 H112       -3.1030   -3.3800    5.4700 hc        1 UQ5      0.048200
     56 H121       -1.1980   -3.8640    3.0670 hc        1 UQ5      0.052200
     57 H122       -0.7160   -3.8850    4.8060 hc        1 UQ5      0.052200
     58 H13        -2.9620   -5.7120    4.6210 ha        1 UQ5      0.123000
     59 H151        0.7560   -7.2450    3.1590 hc        1 UQ5      0.042033
     60 H152        0.7580   -5.5790    3.8790 hc        1 UQ5      0.042033
     61 H153        0.0910   -5.8450    2.2170 hc        1 UQ5      0.042033
     62 H161       -2.5440   -8.0110    4.5530 hc        1 UQ5      0.046200
     63 H162       -0.8090   -8.5140    4.5010 hc        1 UQ5      0.046200
     64 H171       -2.6410   -8.0280    2.0430 hc        1 UQ5      0.050200
     65 H172       -0.9000   -8.5000    1.9700 hc        1 UQ5      0.050200
     66 H18        -2.1440  -10.4490    3.7250 ha        1 UQ5      0.123000
     67 H201       -3.5740   -9.5030    0.2370 hc        1 UQ5      0.041367
     68 H202       -2.8750  -11.0290   -0.4510 hc        1 UQ5      0.041367
     69 H203       -1.7830   -9.6620    0.0290 hc        1 UQ5      0.041367
     70 H211       -2.3760  -12.8140    1.1050 hc        1 UQ5      0.046200
     71 H212       -2.6700  -12.5600    2.8700 hc        1 UQ5      0.046200
     72 H221       -5.0320  -11.8530    2.3910 hc        1 UQ5      0.050200
     73 H222       -4.7470  -12.0680    0.6210 hc        1 UQ5      0.050200
     74 H23        -3.9470  -14.5820    1.8330 ha        1 UQ5      0.123000
     75 H251       -7.0840  -12.7070    0.8040 hc        1 UQ5      0.041367
     76 H252       -8.1710  -13.9950    1.4760 hc        1 UQ5      0.041367
     77 H253       -7.3350  -12.8340    2.5920 hc        1 UQ5      0.041367
     78 H261       -7.0430  -16.0840    1.0080 hc        1 UQ5      0.045700
     79 H262       -5.4180  -16.3960    1.7370 hc        1 UQ5      0.045700
     80 H271       -6.3220  -15.8730    4.0200 hc        1 UQ5      0.049700
     81 H272       -7.9420  -15.5200    3.3090 hc        1 UQ5      0.049700
     82 H28        -7.2200  -18.1690    2.3420 ha        1 UQ5      0.122000
     83 H301       -7.0680  -17.0740    6.0520 hc        1 UQ5      0.040533
     84 H302       -8.6650  -16.4820    5.4390 hc        1 UQ5      0.040533
     85 H303       -8.5770  -18.0200    6.3980 hc        1 UQ5      0.040533
     86 H311       -7.9770  -20.1060    3.4470 hc        1 UQ5      0.040533
     87 H312       -7.6040  -20.1090    5.2220 hc        1 UQ5      0.040533
     88 H313       -9.2790  -19.7230    4.6500 hc        1 UQ5      0.040533
@<TRIPOS>BOND
     1    1    2 1   
     2    1    6 2   
     3    1    7 1   
     4    2    3 1   
     5    2   35 2   
     6    3    4 2   
     7    3   36 1   
     8    4    5 1   
     9    4   37 1   
    10    5    6 1   
    11    5   38 2   
    12    6   10 1   
    13    7   39 1   
    14    7   40 1   
    15    7   41 1   
    16    8   36 1   
    17    8   42 1   
    18    8   43 1   
    19    8   44 1   
    20    9   37 1   
    21    9   45 1   
    22    9   46 1   
    23    9   47 1   
    24   10   11 1   
    25   10   48 1   
    26   10   49 1   
    27   11   12 2   
    28   11   50 1   
    29   12   13 1   
    30   12   14 1   
    31   13   51 1   
    32   13   52 1   
    33   13   53 1   
    34   14   15 1   
    35   14   54 1   
    36   14   55 1   
    37   15   16 1   
    38   15   56 1   
    39   15   57 1   
    40   16   17 2   
    41   16   58 1   
    42   17   18 1   
    43   17   19 1   
    44   18   59 1   
    45   18   60 1   
    46   18   61 1   
    47   19   20 1   
    48   19   62 1   
    49   19   63 1   
    50   20   21 1   
    51   20   64 1   
    52   20   65 1   
    53   21   22 2   
    54   21   66 1   
    55   22   23 1   
    56   22   24 1   
    57   23   67 1   
    58   23   68 1   
    59   23   69 1   
    60   24   25 1   
    61   24   70 1   
    62   24   71 1   
    63   25   26 1   
    64   25   72 1   
    65   25   73 1   
    66   26   27 2   
    67   26   74 1   
    68   27   28 1   
    69   27   29 1   
    70   28   75 1   
    71   28   76 1   
    72   28   77 1   
    73   29   30 1   
    74   29   78 1   
    75   29   79 1   
    76   30   31 1   
    77   30   80 1   
    78   30   81 1   
    79   31   32 2   
    80   31   82 1   
    81   32   33 1   
    82   32   34 1   
    83   33   83 1   
    84   33   84 1   
    85   33   85 1   
    86   34   86 1   
    87   34   87 1   
    88   34   88 1   
@<TRIPOS>SUBSTRUCTURE
     1 UQ5         1 TEMP              0 ****  ****    0 ROOT
