@<TRIPOS>MOLECULE
UQ5
   88    88     1     0     0
SMALL
bcc


@<TRIPOS>ATOM
      1 C1         -1.8780    0.8980    0.5740 cc        1 UQ5     -0.123400
      2 C2         -0.8830    1.1140   -0.5100 c         1 UQ5      0.552500
      3 C3          0.5410    1.0120   -0.1210 cc        1 UQ5     -0.015100
      4 C4          0.9200    0.8020    1.1700 cd        1 UQ5      0.023900
      5 C5         -0.0760    0.8020    2.2710 c         1 UQ5      0.557500
      6 C6         -1.5010    0.7390    1.8600 cd        1 UQ5     -0.133400
      7 C1M        -3.3000    0.8800    0.1560 c3        1 UQ5     -0.070900
      8 C3M         1.5360    0.2470   -2.1260 c3        1 UQ5      0.109700
      9 C4M         2.8050    1.1100    2.6030 c3        1 UQ5      0.115700
     10 C7         -2.4820    0.5120    2.9640 c3        1 UQ5     -0.012000
     11 C8         -2.7950   -0.9300    3.1290 c2        1 UQ5     -0.190200
     12 C9         -2.5060   -1.6630    4.2150 c2        1 UQ5     -0.089400
     13 C10        -1.8000   -1.1190    5.4010 c3        1 UQ5     -0.073900
     14 C11        -2.9100   -3.0980    4.2950 c3        1 UQ5     -0.045200
     15 C12        -1.7260   -4.0230    4.0810 c3        1 UQ5     -0.043200
     16 C13        -2.1110   -5.4490    4.1930 c2        1 UQ5     -0.176200
     17 C14        -1.2840   -6.4640    3.8900 c2        1 UQ5     -0.120400
     18 C15         0.0980   -6.2360    3.4040 c3        1 UQ5     -0.059900
     19 C16        -1.7120   -7.8840    4.0370 c3        1 UQ5     -0.039200
     20 C17        -1.8470   -8.5700    2.6900 c3        1 UQ5     -0.043200
     21 C18        -2.2170   -9.9980    2.8290 c2        1 UQ5     -0.174200
     22 C19        -2.5450  -10.7820    1.7900 c2        1 UQ5     -0.123400
     23 C20        -2.5720  -10.2740    0.3970 c3        1 UQ5     -0.058900
     24 C21        -2.8920  -12.2190    1.9800 c3        1 UQ5     -0.039200
     25 C22        -4.3580  -12.4840    1.6900 c3        1 UQ5     -0.043200
     26 C23        -4.7000  -13.9190    1.8230 c2        1 UQ5     -0.174200
     27 C24        -5.9570  -14.3890    1.7680 c2        1 UQ5     -0.123400
     28 C25        -7.1240  -13.4950    1.5750 c3        1 UQ5     -0.058900
     29 C26        -6.2470  -15.8460    1.8900 c3        1 UQ5     -0.038200
     30 C27        -6.9720  -16.1660    3.1850 c3        1 UQ5     -0.043200
     31 C28        -7.3140  -17.6030    3.2890 c2        1 UQ5     -0.177200
     32 C29        -7.8430  -18.1590    4.3920 c2        1 UQ5     -0.124400
     33 C30        -8.1230  -17.3710    5.6160 c3        1 UQ5     -0.057900
     34 C31        -8.1770  -19.6010    4.4570 c3        1 UQ5     -0.057900
     35 O2         -1.2250    1.3580   -1.6730 o         1 UQ5     -0.496100
     36 O3          1.5040    1.2280   -1.0850 os        1 UQ5     -0.307900
     37 O4          2.2470    0.5400    1.4160 os        1 UQ5     -0.305900
     38 O5          0.2630    0.8580    3.4590 o         1 UQ5     -0.508100
     39 H1M1       -3.3950    0.9000   -0.9590 hc        1 UQ5      0.062700
     40 H1M2       -3.8310    1.7760    0.5690 hc        1 UQ5      0.062700
     41 H1M3       -3.8100   -0.0380    0.5420 hc        1 UQ5      0.062700
     42 H3M1        0.5640    0.2220   -2.6740 h1        1 UQ5      0.049033
     43 H3M2        1.7800   -0.7560   -1.7000 h1        1 UQ5      0.049033
     44 H3M3        2.3610    0.6080   -2.7910 h1        1 UQ5      0.049033
     45 H4M1        2.4390    2.1500    2.7670 h1        1 UQ5      0.053033
     46 H4M2        3.9060    1.0990    2.3970 h1        1 UQ5      0.053033
     47 H4M3        2.5550    0.4640    3.4790 h1        1 UQ5      0.053033
     48 H71        -2.0680    0.9440    3.9180 hc        1 UQ5      0.069200
     49 H72        -3.4370    1.0650    2.7380 hc        1 UQ5      0.069200
     50 H8         -3.3140   -1.3890    2.2710 ha        1 UQ5      0.121000
     51 H101       -1.4800   -1.9380    6.0910 hc        1 UQ5      0.050367
     52 H102       -2.4760   -0.4290    5.9680 hc        1 UQ5      0.050367
     53 H103       -0.8910   -0.5420    5.0930 hc        1 UQ5      0.050367
     54 H111       -3.6980   -3.3260    3.5290 hc        1 UQ5      0.048200
     55 H112       -3.3610   -3.2950    5.3050 hc        1 UQ5      0.048200
     56 H121       -1.2760   -3.8290    3.0690 hc        1 UQ5      0.052200
     57 H122       -0.9260   -3.7920    4.8390 hc        1 UQ5      0.052200
     58 H13        -3.1340   -5.6490    4.5510 ha        1 UQ5      0.123000
     59 H151        0.6880   -7.1840    3.3930 hc        1 UQ5      0.042033
     60 H152        0.6260   -5.4960    4.0570 hc        1 UQ5      0.042033
     61 H153        0.0760   -5.8230    2.3630 hc        1 UQ5      0.042033
     62 H161       -2.6920   -7.9430    4.5810 hc        1 UQ5      0.046200
     63 H162       -0.9540   -8.4300    4.6610 hc        1 UQ5      0.046200
     64 H171       -2.6210   -8.0370    2.0730 hc        1 UQ5      0.050200
     65 H172       -0.8750   -8.4890    2.1300 hc        1 UQ5      0.050200
     66 H18        -2.2080  -10.4030    3.8550 ha        1 UQ5      0.123000
     67 H201       -3.4340   -9.5720    0.2610 hc        1 UQ5      0.041367
     68 H202       -2.6770  -11.1070   -0.3400 hc        1 UQ5      0.041367
     69 H203       -1.6320   -9.7120    0.1670 hc        1 UQ5      0.041367
     70 H211       -2.2560  -12.8420    1.2930 hc        1 UQ5      0.046200
     71 H212       -2.6600  -12.5430    3.0300 hc        1 UQ5      0.046200
     72 H221       -4.9950  -11.8760    2.3890 hc        1 UQ5      0.050200
     73 H222       -4.6020  -12.1370    0.6470 hc        1 UQ5      0.050200
     74 H23        -3.8510  -14.6080    1.9700 ha        1 UQ5      0.123000
     75 H251       -6.9430  -12.7940    0.7210 hc        1 UQ5      0.041367
     76 H252       -8.0530  -14.0780    1.3640 hc        1 UQ5      0.041367
     77 H253       -7.2940  -12.8800    2.4950 hc        1 UQ5      0.041367
     78 H261       -6.8810  -16.1660    1.0180 hc        1 UQ5      0.045700
     79 H262       -5.2960  -16.4400    1.8430 hc        1 UQ5      0.045700
     80 H271       -6.3300  -15.8650    4.0580 hc        1 UQ5      0.049700
     81 H272       -7.9120  -15.5510    3.2490 hc        1 UQ5      0.049700
     82 H28        -7.1140  -18.2160    2.3960 ha        1 UQ5      0.122000
     83 H301       -7.1640  -17.0260    6.0810 hc        1 UQ5      0.040533
     84 H302       -8.7300  -16.4640    5.3690 hc        1 UQ5      0.040533
     85 H303       -8.6820  -17.9760    6.3700 hc        1 UQ5      0.040533
     86 H311       -7.9070  -20.1320    3.5110 hc        1 UQ5      0.040533
     87 H312       -7.6270  -20.0840    5.3030 hc        1 UQ5      0.040533
     88 H313       -9.2740  -19.7330    4.6350 hc        1 UQ5      0.040533
@<TRIPOS>BOND
     1    1    2 1   
     2    1    6 2   
     3    1    7 1   
     4    2    3 1   
     5    2   35 2   
     6    3    4 2   
     7    3   36 1   
     8    4    5 1   
     9    4   37 1   
    10    5    6 1   
    11    5   38 2   
    12    6   10 1   
    13    7   39 1   
    14    7   40 1   
    15    7   41 1   
    16    8   36 1   
    17    8   42 1   
    18    8   43 1   
    19    8   44 1   
    20    9   37 1   
    21    9   45 1   
    22    9   46 1   
    23    9   47 1   
    24   10   11 1   
    25   10   48 1   
    26   10   49 1   
    27   11   12 2   
    28   11   50 1   
    29   12   13 1   
    30   12   14 1   
    31   13   51 1   
    32   13   52 1   
    33   13   53 1   
    34   14   15 1   
    35   14   54 1   
    36   14   55 1   
    37   15   16 1   
    38   15   56 1   
    39   15   57 1   
    40   16   17 2   
    41   16   58 1   
    42   17   18 1   
    43   17   19 1   
    44   18   59 1   
    45   18   60 1   
    46   18   61 1   
    47   19   20 1   
    48   19   62 1   
    49   19   63 1   
    50   20   21 1   
    51   20   64 1   
    52   20   65 1   
    53   21   22 2   
    54   21   66 1   
    55   22   23 1   
    56   22   24 1   
    57   23   67 1   
    58   23   68 1   
    59   23   69 1   
    60   24   25 1   
    61   24   70 1   
    62   24   71 1   
    63   25   26 1   
    64   25   72 1   
    65   25   73 1   
    66   26   27 2   
    67   26   74 1   
    68   27   28 1   
    69   27   29 1   
    70   28   75 1   
    71   28   76 1   
    72   28   77 1   
    73   29   30 1   
    74   29   78 1   
    75   29   79 1   
    76   30   31 1   
    77   30   80 1   
    78   30   81 1   
    79   31   32 2   
    80   31   82 1   
    81   32   33 1   
    82   32   34 1   
    83   33   83 1   
    84   33   84 1   
    85   33   85 1   
    86   34   86 1   
    87   34   87 1   
    88   34   88 1   
@<TRIPOS>SUBSTRUCTURE
     1 UQ5         1 TEMP              0 ****  ****    0 ROOT
