@<TRIPOS>MOLECULE
UQ5
   88    88     1     0     0
SMALL
bcc


@<TRIPOS>ATOM
      1 C1          7.0960   -2.0550    1.5380 cc        1 UQ5     -0.128400
      2 C2          7.7800   -1.5010    2.7350 c         1 UQ5      0.548500
      3 C3          8.2360   -0.0930    2.6330 cc        1 UQ5      0.010900
      4 C4          8.1150    0.6130    1.4780 cd        1 UQ5      0.010900
      5 C5          7.6240   -0.0190    0.2290 c         1 UQ5      0.554500
      6 C6          7.0120   -1.3630    0.3810 cd        1 UQ5     -0.133400
      7 C1M         6.5230   -3.4150    1.6840 c3        1 UQ5     -0.071900
      8 C3M         8.1130    0.5820    4.9010 c3        1 UQ5      0.110700
      9 C4M         9.5180    2.3550    0.7050 c3        1 UQ5      0.111700
     10 C7          6.3260   -1.9120   -0.8240 c3        1 UQ5     -0.016000
     11 C8          4.8460   -1.8330   -0.7270 c2        1 UQ5     -0.179200
     12 C9          4.0310   -2.1250   -1.7530 c2        1 UQ5     -0.108400
     13 C10         4.5500   -2.5480   -3.0760 c3        1 UQ5     -0.063900
     14 C11         2.5500   -2.0440   -1.6120 c3        1 UQ5     -0.040200
     15 C12         1.9740   -0.8950   -2.4210 c3        1 UQ5     -0.043200
     16 C13         0.4970   -0.8390   -2.3300 c2        1 UQ5     -0.177200
     17 C14        -0.2360    0.1720   -2.8250 c2        1 UQ5     -0.120400
     18 C15         0.3840    1.3350   -3.5050 c3        1 UQ5     -0.059900
     19 C16        -1.7230    0.1740   -2.7250 c3        1 UQ5     -0.039200
     20 C17        -2.2190    1.2580   -1.7840 c3        1 UQ5     -0.043200
     21 C18        -3.6980    1.3020   -1.7190 c2        1 UQ5     -0.174200
     22 C19        -4.3770    2.0730   -0.8540 c2        1 UQ5     -0.123400
     23 C20        -3.6920    2.9480    0.1270 c3        1 UQ5     -0.058900
     24 C21        -5.8670    2.0970   -0.8400 c3        1 UQ5     -0.039200
     25 C22        -6.4260    1.4690    0.4240 c3        1 UQ5     -0.043200
     26 C23        -7.9050    1.5370    0.4710 c2        1 UQ5     -0.174200
     27 C24        -8.6440    0.9250    1.4110 c2        1 UQ5     -0.123400
     28 C25        -8.0310    0.1110    2.4890 c3        1 UQ5     -0.058900
     29 C26       -10.1300    1.0380    1.4260 c3        1 UQ5     -0.038200
     30 C27       -10.7960   -0.2850    1.0930 c3        1 UQ5     -0.043200
     31 C28       -12.2730   -0.1950    1.1610 c2        1 UQ5     -0.177200
     32 C29       -13.0910   -1.1940    0.7910 c2        1 UQ5     -0.124400
     33 C30       -12.5780   -2.4830    0.2690 c3        1 UQ5     -0.057900
     34 C31       -14.5660   -1.0690    0.8770 c3        1 UQ5     -0.057900
     35 O2          7.9570   -2.1710    3.7580 o         1 UQ5     -0.494100
     36 O3          8.8920    0.4740    3.7050 os        1 UQ5     -0.312900
     37 O4          8.3710    1.9680    1.4680 os        1 UQ5     -0.316900
     38 O5          7.7250    0.5400   -0.8690 o         1 UQ5     -0.495100
     39 H1M1        7.1200   -4.1440    1.0780 hc        1 UQ5      0.063367
     40 H1M2        6.5370   -3.7490    2.7510 hc        1 UQ5      0.063367
     41 H1M3        5.4680   -3.4340    1.3110 hc        1 UQ5      0.063367
     42 H3M1        7.2210    1.2290    4.7220 h1        1 UQ5      0.052033
     43 H3M2        7.8080   -0.4280    5.2650 h1        1 UQ5      0.052033
     44 H3M3        8.8200    1.0680    5.6200 h1        1 UQ5      0.052033
     45 H4M1       10.4380    1.8920    1.1360 h1        1 UQ5      0.051700
     46 H4M2        9.3920    2.0710   -0.3670 h1        1 UQ5      0.051700
     47 H4M3        9.5390    3.4670    0.8250 h1        1 UQ5      0.051700
     48 H71         6.6700   -1.3530   -1.7420 hc        1 UQ5      0.073200
     49 H72         6.6300   -2.9890   -0.9640 hc        1 UQ5      0.073200
     50 H8          4.4370   -1.5140    0.2450 ha        1 UQ5      0.128000
     51 H101        5.0740   -1.6930   -3.5750 hc        1 UQ5      0.045033
     52 H102        5.2860   -3.3830   -2.9600 hc        1 UQ5      0.045033
     53 H103        3.7250   -2.8940   -3.7460 hc        1 UQ5      0.045033
     54 H111        2.0960   -3.0110   -1.9610 hc        1 UQ5      0.047200
     55 H112        2.2650   -1.9140   -0.5340 hc        1 UQ5      0.047200
     56 H121        2.4140    0.0750   -2.0600 hc        1 UQ5      0.052200
     57 H122        2.2790   -1.0070   -3.4990 hc        1 UQ5      0.052200
     58 H13         0.0090   -1.6900   -1.8270 ha        1 UQ5      0.122000
     59 H151        0.9270    1.9710   -2.7600 hc        1 UQ5      0.042033
     60 H152        1.1240    0.9930   -4.2710 hc        1 UQ5      0.042033
     61 H153       -0.3850    1.9680   -4.0130 hc        1 UQ5      0.042033
     62 H161       -2.1570    0.3410   -3.7480 hc        1 UQ5      0.046200
     63 H162       -2.0930   -0.8230   -2.3660 hc        1 UQ5      0.046200
     64 H171       -1.8000    1.0820   -0.7550 hc        1 UQ5      0.050700
     65 H172       -1.8290    2.2570   -2.1250 hc        1 UQ5      0.050700
     66 H18        -4.2340    0.6590   -2.4360 ha        1 UQ5      0.123000
     67 H201       -3.1960    2.3280    0.9160 hc        1 UQ5      0.041700
     68 H202       -2.9010    3.5580   -0.3780 hc        1 UQ5      0.041700
     69 H203       -4.4110    3.6440    0.6260 hc        1 UQ5      0.041700
     70 H211       -6.2160    3.1630   -0.9130 hc        1 UQ5      0.046200
     71 H212       -6.2760    1.5530   -1.7330 hc        1 UQ5      0.046200
     72 H221       -6.0930    0.3970    0.4890 hc        1 UQ5      0.050200
     73 H222       -5.9980    1.9940    1.3230 hc        1 UQ5      0.050200
     74 H23        -8.3880    2.1340   -0.3200 ha        1 UQ5      0.123000
     75 H251       -7.6110   -0.8360    2.0640 hc        1 UQ5      0.041367
     76 H252       -7.1930    0.6720    2.9740 hc        1 UQ5      0.041367
     77 H253       -8.7800   -0.1560    3.2740 hc        1 UQ5      0.041367
     78 H261      -10.4600    1.3760    2.4460 hc        1 UQ5      0.045700
     79 H262      -10.4710    1.8170    0.6930 hc        1 UQ5      0.045700
     80 H271      -10.4830   -0.6130    0.0640 hc        1 UQ5      0.049700
     81 H272      -10.4360   -1.0760    1.8080 hc        1 UQ5      0.049700
     82 H28       -12.6850    0.7530    1.5410 ha        1 UQ5      0.122000
     83 H301      -11.8150   -2.9120    0.9660 hc        1 UQ5      0.040533
     84 H302      -13.4010   -3.2280    0.1430 hc        1 UQ5      0.040533
     85 H303      -12.0860   -2.3280   -0.7250 hc        1 UQ5      0.040533
     86 H311      -14.8750   -0.0610    1.2470 hc        1 UQ5      0.040533
     87 H312      -15.0240   -1.2310   -0.1310 hc        1 UQ5      0.040533
     88 H313      -14.9760   -1.8420    1.5750 hc        1 UQ5      0.040533
@<TRIPOS>BOND
     1    1    2 1   
     2    1    6 2   
     3    1    7 1   
     4    2    3 1   
     5    2   35 2   
     6    3    4 2   
     7    3   36 1   
     8    4    5 1   
     9    4   37 1   
    10    5    6 1   
    11    5   38 2   
    12    6   10 1   
    13    7   39 1   
    14    7   40 1   
    15    7   41 1   
    16    8   36 1   
    17    8   42 1   
    18    8   43 1   
    19    8   44 1   
    20    9   37 1   
    21    9   45 1   
    22    9   46 1   
    23    9   47 1   
    24   10   11 1   
    25   10   48 1   
    26   10   49 1   
    27   11   12 2   
    28   11   50 1   
    29   12   13 1   
    30   12   14 1   
    31   13   51 1   
    32   13   52 1   
    33   13   53 1   
    34   14   15 1   
    35   14   54 1   
    36   14   55 1   
    37   15   16 1   
    38   15   56 1   
    39   15   57 1   
    40   16   17 2   
    41   16   58 1   
    42   17   18 1   
    43   17   19 1   
    44   18   59 1   
    45   18   60 1   
    46   18   61 1   
    47   19   20 1   
    48   19   62 1   
    49   19   63 1   
    50   20   21 1   
    51   20   64 1   
    52   20   65 1   
    53   21   22 2   
    54   21   66 1   
    55   22   23 1   
    56   22   24 1   
    57   23   67 1   
    58   23   68 1   
    59   23   69 1   
    60   24   25 1   
    61   24   70 1   
    62   24   71 1   
    63   25   26 1   
    64   25   72 1   
    65   25   73 1   
    66   26   27 2   
    67   26   74 1   
    68   27   28 1   
    69   27   29 1   
    70   28   75 1   
    71   28   76 1   
    72   28   77 1   
    73   29   30 1   
    74   29   78 1   
    75   29   79 1   
    76   30   31 1   
    77   30   80 1   
    78   30   81 1   
    79   31   32 2   
    80   31   82 1   
    81   32   33 1   
    82   32   34 1   
    83   33   83 1   
    84   33   84 1   
    85   33   85 1   
    86   34   86 1   
    87   34   87 1   
    88   34   88 1   
@<TRIPOS>SUBSTRUCTURE
     1 UQ5         1 TEMP              0 ****  ****    0 ROOT
