@<TRIPOS>MOLECULE
UQ6
  103   103     1     0     0
SMALL
bcc


@<TRIPOS>ATOM
      1 C1          6.5870   -1.4450    2.7110 ca        1 UQ6     -0.061300
      2 C1M         7.5460   -2.0500    1.7570 c3        1 UQ6     -0.051800
      3 C2          6.3400   -2.0710    3.9490 ca        1 UQ6      0.098100
      4 O2          7.0050   -3.2460    4.2170 oh        1 UQ6     -0.495100
      5 C3          5.4400   -1.5120    4.8750 ca        1 UQ6      0.024100
      6 C4          4.7740   -0.3220    4.5590 ca        1 UQ6      0.016100
      7 C5          5.0290    0.3120    3.3280 ca        1 UQ6      0.107100
      8 O5          4.4140    1.4980    2.9970 oh        1 UQ6     -0.495100
      9 C6          5.9320   -0.2440    2.4020 ca        1 UQ6     -0.072300
     10 O3          5.1800   -2.2360    6.0300 os        1 UQ6     -0.350900
     11 C3M         5.6220   -1.5850    7.2260 c3        1 UQ6      0.109700
     12 O4          3.9380    0.3310    5.4550 os        1 UQ6     -0.350900
     13 C4M         2.7140   -0.3650    5.7070 c3        1 UQ6      0.108700
     14 C7          6.1940    0.4570    1.1120 c3        1 UQ6      0.001100
     15 C8          5.5100   -0.1770   -0.0430 c2        1 UQ6     -0.164200
     16 C9          5.6830    0.2310   -1.3110 c2        1 UQ6     -0.127400
     17 C10         6.5940    1.3460   -1.6630 c3        1 UQ6     -0.059900
     18 C11         4.9780   -0.4350   -2.4420 c3        1 UQ6     -0.037200
     19 C12         3.8440    0.4210   -2.9770 c3        1 UQ6     -0.044200
     20 C13         3.1630   -0.2170   -4.1270 c2        1 UQ6     -0.173200
     21 C14         2.0380    0.2660   -4.6810 c2        1 UQ6     -0.124400
     22 C15         1.3720    1.4890   -4.1730 c3        1 UQ6     -0.058900
     23 C16         1.4000   -0.4030   -5.8510 c3        1 UQ6     -0.038200
     24 C17         0.0670   -1.0280   -5.4790 c3        1 UQ6     -0.045200
     25 C18        -0.6020   -1.6390   -6.6510 c2        1 UQ6     -0.169200
     26 C19        -1.8570   -2.1150   -6.6450 c2        1 UQ6     -0.125400
     27 C20        -2.4610   -2.7250   -7.8560 c3        1 UQ6     -0.056900
     28 C21        -2.7360   -2.0850   -5.4420 c3        1 UQ6     -0.042200
     29 C22        -3.5960   -0.8340   -5.4100 c3        1 UQ6     -0.042200
     30 C23        -4.4990   -0.8110   -4.2360 c2        1 UQ6     -0.173200
     31 C24        -5.4660    0.1040   -4.0620 c2        1 UQ6     -0.124400
     32 C25        -5.7250    1.1760   -5.0530 c3        1 UQ6     -0.058900
     33 C26        -6.3550    0.0770   -2.8660 c3        1 UQ6     -0.039200
     34 C27        -5.9780    1.1520   -1.8620 c3        1 UQ6     -0.043200
     35 C28        -6.8770    1.1520   -0.6860 c2        1 UQ6     -0.173200
     36 C29        -6.6630    1.9000    0.4090 c2        1 UQ6     -0.124400
     37 C30        -5.4870    2.7930    0.5350 c3        1 UQ6     -0.058900
     38 C31        -7.6080    1.8790    1.5610 c3        1 UQ6     -0.038200
     39 C32        -6.9860    1.2290    2.7840 c3        1 UQ6     -0.043200
     40 C33        -7.8980    1.2540    3.9510 c2        1 UQ6     -0.177200
     41 C34        -7.6370    0.6230    5.1070 c2        1 UQ6     -0.124400
     42 C35        -8.5730    0.6750    6.2550 c3        1 UQ6     -0.057400
     43 C36        -6.4010   -0.1710    5.3120 c3        1 UQ6     -0.057400
     44 H1M1        7.1240   -2.0360    0.7200 hc        1 UQ6      0.054033
     45 H1M2        8.5010   -1.4650    1.7550 hc        1 UQ6      0.054033
     46 H1M3        7.7800   -3.1070    2.0360 hc        1 UQ6      0.054033
     47 HO2         6.6840   -3.5770    5.0710 ho        1 UQ6      0.434000
     48 HO5         3.8610    1.7630    3.7500 ho        1 UQ6      0.434000
     49 H3M1        5.3030   -2.2850    8.0390 h1        1 UQ6      0.048367
     50 H3M2        6.7320   -1.4680    7.2120 h1        1 UQ6      0.048367
     51 H3M3        5.1230   -0.5910    7.3310 h1        1 UQ6      0.048367
     52 H4M1        2.1960    0.2780    6.4600 h1        1 UQ6      0.048033
     53 H4M2        2.1150   -0.4430    4.7680 h1        1 UQ6      0.048033
     54 H4M3        2.9270   -1.3800    6.1220 h1        1 UQ6      0.048033
     55 H71         5.8580    1.5300    1.1920 hc        1 UQ6      0.066700
     56 H72         7.3060    0.4770    0.9240 hc        1 UQ6      0.066700
     57 H8          4.8290   -1.0100    0.1930 ha        1 UQ6      0.130000
     58 H101        6.3730    2.2460   -1.0350 hc        1 UQ6      0.041367
     59 H102        7.6570    1.0480   -1.4740 hc        1 UQ6      0.041367
     60 H103        6.4940    1.6320   -2.7380 hc        1 UQ6      0.041367
     61 H111        5.7150   -0.6370   -3.2660 hc        1 UQ6      0.045700
     62 H112        4.5660   -1.4280   -2.1150 hc        1 UQ6      0.045700
     63 H121        3.1010    0.6140   -2.1550 hc        1 UQ6      0.051200
     64 H122        4.2460    1.4240   -3.2910 hc        1 UQ6      0.051200
     65 H13         3.6350   -1.1300   -4.5240 ha        1 UQ6      0.122000
     66 H151        2.1170    2.3130   -4.0350 hc        1 UQ6      0.041367
     67 H152        0.5790    1.8430   -4.8760 hc        1 UQ6      0.041367
     68 H153        0.8970    1.2840   -3.1800 hc        1 UQ6      0.041367
     69 H161        1.2420    0.3560   -6.6640 hc        1 UQ6      0.045700
     70 H162        2.0780   -1.1960   -6.2660 hc        1 UQ6      0.045700
     71 H171        0.2320   -1.8140   -4.6910 hc        1 UQ6      0.051700
     72 H172       -0.5980   -0.2440   -5.0230 hc        1 UQ6      0.051700
     73 H18         0.0050   -1.6960   -7.5710 ha        1 UQ6      0.121000
     74 H201       -1.7950   -2.6210   -8.7470 hc        1 UQ6      0.039700
     75 H202       -2.6490   -3.8140   -7.6810 hc        1 UQ6      0.039700
     76 H203       -3.4400   -2.2350   -8.0850 hc        1 UQ6      0.039700
     77 H211       -3.4000   -2.9910   -5.4430 hc        1 UQ6      0.046700
     78 H212       -2.1130   -2.1320   -4.5080 hc        1 UQ6      0.046700
     79 H221       -2.9320    0.0740   -5.3890 hc        1 UQ6      0.049700
     80 H222       -4.2020   -0.7710   -6.3560 hc        1 UQ6      0.049700
     81 H23        -4.3360   -1.6010   -3.4850 ha        1 UQ6      0.123000
     82 H251       -4.7670    1.6570   -5.3750 hc        1 UQ6      0.041367
     83 H252       -6.2170    0.7460   -5.9620 hc        1 UQ6      0.041367
     84 H253       -6.3940    1.9670   -4.6320 hc        1 UQ6      0.041367
     85 H261       -7.4180    0.2300   -3.1960 hc        1 UQ6      0.046200
     86 H262       -6.3040   -0.9270   -2.3660 hc        1 UQ6      0.046200
     87 H271       -4.9150    0.9960   -1.5280 hc        1 UQ6      0.050200
     88 H272       -6.0150    2.1600   -2.3600 hc        1 UQ6      0.050200
     89 H28        -7.7600    0.4940   -0.7500 ha        1 UQ6      0.123000
     90 H301       -4.5520    2.1860    0.6470 hc        1 UQ6      0.041033
     91 H302       -5.3770    3.4270   -0.3810 hc        1 UQ6      0.041033
     92 H303       -5.5780    3.4660    1.4220 hc        1 UQ6      0.041033
     93 H311       -7.9050    2.9340    1.8090 hc        1 UQ6      0.045700
     94 H312       -8.5470    1.3260    1.2880 hc        1 UQ6      0.045700
     95 H321       -6.7080    0.1660    2.5430 hc        1 UQ6      0.049700
     96 H322       -6.0300    1.7620    3.0450 hc        1 UQ6      0.049700
     97 H33        -8.8280    1.8320    3.8280 ha        1 UQ6      0.122000
     98 H351       -8.8780   -0.3610    6.5480 hc        1 UQ6      0.040200
     99 H352       -8.0730    1.1520    7.1360 hc        1 UQ6      0.040200
    100 H353       -9.4930    1.2590    6.0130 hc        1 UQ6      0.040200
    101 H361       -5.4990    0.4300    5.0330 hc        1 UQ6      0.040200
    102 H362       -6.2970   -0.4930    6.3770 hc        1 UQ6      0.040200
    103 H363       -6.4180   -1.0850    4.6660 hc        1 UQ6      0.040200
@<TRIPOS>BOND
     1    1    2 1   
     2    1    3 ar  
     3    1    9 ar  
     4    2   44 1   
     5    2   45 1   
     6    2   46 1   
     7    3    4 1   
     8    3    5 ar  
     9    4   47 1   
    10    5    6 ar  
    11    5   10 1   
    12    6    7 ar  
    13    6   12 1   
    14    7    8 1   
    15    7    9 ar  
    16    8   48 1   
    17    9   14 1   
    18   10   11 1   
    19   11   49 1   
    20   11   50 1   
    21   11   51 1   
    22   12   13 1   
    23   13   52 1   
    24   13   53 1   
    25   13   54 1   
    26   14   15 1   
    27   14   55 1   
    28   14   56 1   
    29   15   16 2   
    30   15   57 1   
    31   16   17 1   
    32   16   18 1   
    33   17   58 1   
    34   17   59 1   
    35   17   60 1   
    36   18   19 1   
    37   18   61 1   
    38   18   62 1   
    39   19   20 1   
    40   19   63 1   
    41   19   64 1   
    42   20   21 2   
    43   20   65 1   
    44   21   22 1   
    45   21   23 1   
    46   22   66 1   
    47   22   67 1   
    48   22   68 1   
    49   23   24 1   
    50   23   69 1   
    51   23   70 1   
    52   24   25 1   
    53   24   71 1   
    54   24   72 1   
    55   25   26 2   
    56   25   73 1   
    57   26   27 1   
    58   26   28 1   
    59   27   74 1   
    60   27   75 1   
    61   27   76 1   
    62   28   29 1   
    63   28   77 1   
    64   28   78 1   
    65   29   30 1   
    66   29   79 1   
    67   29   80 1   
    68   30   31 2   
    69   30   81 1   
    70   31   32 1   
    71   31   33 1   
    72   32   82 1   
    73   32   83 1   
    74   32   84 1   
    75   33   34 1   
    76   33   85 1   
    77   33   86 1   
    78   34   35 1   
    79   34   87 1   
    80   34   88 1   
    81   35   36 2   
    82   35   89 1   
    83   36   37 1   
    84   36   38 1   
    85   37   90 1   
    86   37   91 1   
    87   37   92 1   
    88   38   39 1   
    89   38   93 1   
    90   38   94 1   
    91   39   40 1   
    92   39   95 1   
    93   39   96 1   
    94   40   41 2   
    95   40   97 1   
    96   41   42 1   
    97   41   43 1   
    98   42   98 1   
    99   42   99 1   
   100   42  100 1   
   101   43  101 1   
   102   43  102 1   
   103   43  103 1   
@<TRIPOS>SUBSTRUCTURE
     1 UQ6         1 TEMP              0 ****  ****    0 ROOT
