@<TRIPOS>MOLECULE
UQ6
  103   103     1     0     0
SMALL
bcc


@<TRIPOS>ATOM
      1 C1         -2.3750    1.8080    0.0270 ca        1 UQ6     -0.061300
      2 C1M        -3.8560    1.7460    0.0630 c3        1 UQ6     -0.051800
      3 C2         -1.7210    2.3000   -1.1200 ca        1 UQ6      0.098100
      4 O2         -2.5020    2.6960   -2.1820 oh        1 UQ6     -0.495100
      5 C3         -0.3170    2.3760   -1.1760 ca        1 UQ6      0.024100
      6 C4          0.4420    1.9500   -0.0780 ca        1 UQ6      0.016100
      7 C5         -0.2100    1.4700    1.0740 ca        1 UQ6      0.107100
      8 O5          0.5030    1.0710    2.1810 oh        1 UQ6     -0.495100
      9 C6         -1.6160    1.3970    1.1320 ca        1 UQ6     -0.072300
     10 O3          0.2550    2.7820   -2.3730 os        1 UQ6     -0.350900
     11 C3M         0.9550    4.0260   -2.2810 c3        1 UQ6      0.109700
     12 O4          1.8230    2.0740   -0.0270 os        1 UQ6     -0.350900
     13 C4M         2.5090    1.1970   -0.9270 c3        1 UQ6      0.108700
     14 C7         -2.2790    0.8990    2.3710 c3        1 UQ6      0.001100
     15 C8         -2.7840   -0.4910    2.2410 c2        1 UQ6     -0.164200
     16 C9         -3.4950   -1.1050    3.2010 c2        1 UQ6     -0.127400
     17 C10        -3.8510   -0.4290    4.4710 c3        1 UQ6     -0.059900
     18 C11        -3.9850   -2.5020    3.0280 c3        1 UQ6     -0.038200
     19 C12        -3.1810   -3.4840    3.8630 c3        1 UQ6     -0.044200
     20 C13        -3.6930   -4.8680    3.7360 c2        1 UQ6     -0.173200
     21 C14        -3.2560   -5.8910    4.4880 c2        1 UQ6     -0.124400
     22 C15        -2.2200   -5.7150    5.5330 c3        1 UQ6     -0.058900
     23 C16        -3.8110   -7.2650    4.3270 c3        1 UQ6     -0.039200
     24 C17        -2.8460   -8.1770    3.5900 c3        1 UQ6     -0.044200
     25 C18        -3.3770   -9.5550    3.4640 c2        1 UQ6     -0.170200
     26 C19        -2.6710  -10.6000    3.0050 c2        1 UQ6     -0.125400
     27 C20        -3.2710  -11.9520    2.8950 c3        1 UQ6     -0.056900
     28 C21        -1.2520  -10.4950    2.5600 c3        1 UQ6     -0.042200
     29 C22        -0.2890  -10.8070    3.6920 c3        1 UQ6     -0.042200
     30 C23         1.1240  -10.7400    3.2520 c2        1 UQ6     -0.173200
     31 C24         2.1570  -11.1280    4.0180 c2        1 UQ6     -0.124400
     32 C25         1.9680  -11.6780    5.3810 c3        1 UQ6     -0.058900
     33 C26         3.5610  -11.0500    3.5230 c3        1 UQ6     -0.039200
     34 C27         4.3100   -9.8830    4.1420 c3        1 UQ6     -0.043200
     35 C28         5.7160   -9.8180    3.6800 c2        1 UQ6     -0.174200
     36 C29         6.5400   -8.7960    3.9600 c2        1 UQ6     -0.124400
     37 C30         6.1010   -7.6260    4.7580 c3        1 UQ6     -0.058900
     38 C31         7.9540   -8.7860    3.4880 c3        1 UQ6     -0.038200
     39 C32         8.1840   -7.7180    2.4340 c3        1 UQ6     -0.043200
     40 C33         9.5990   -7.6630    1.9990 c2        1 UQ6     -0.177200
     41 C34        10.0320   -6.8960    0.9860 c2        1 UQ6     -0.124400
     42 C35        11.4580   -6.8640    0.5820 c3        1 UQ6     -0.057400
     43 C36         9.1150   -6.0340    0.2000 c3        1 UQ6     -0.057400
     44 H1M1       -4.2550    2.5660    0.7130 hc        1 UQ6      0.054033
     45 H1M2       -4.1940    0.7660    0.4860 hc        1 UQ6      0.054033
     46 H1M3       -4.2890    1.8640   -0.9610 hc        1 UQ6      0.054033
     47 HO2        -1.9060    2.9480   -2.9060 ho        1 UQ6      0.434000
     48 HO5         1.4440    1.2210    1.9950 ho        1 UQ6      0.434000
     49 H3M1        0.2460    4.8470   -2.0150 h1        1 UQ6      0.048367
     50 H3M2        1.3680    4.1720   -3.3100 h1        1 UQ6      0.048367
     51 H3M3        1.7730    3.9530   -1.5240 h1        1 UQ6      0.048367
     52 H4M1        3.5870    1.4560   -0.7750 h1        1 UQ6      0.048033
     53 H4M2        2.3120    0.1330   -0.6530 h1        1 UQ6      0.048033
     54 H4M3        2.1900    1.3980   -1.9790 h1        1 UQ6      0.048033
     55 H71        -1.5530    0.9450    3.2320 hc        1 UQ6      0.066700
     56 H72        -3.1350    1.5850    2.6310 hc        1 UQ6      0.066700
     57 H8         -2.5330   -1.0130    1.3040 ha        1 UQ6      0.129000
     58 H101       -2.9410    0.0130    4.9490 hc        1 UQ6      0.041367
     59 H102       -4.5750    0.4020    4.2750 hc        1 UQ6      0.041367
     60 H103       -4.3190   -1.1410    5.1940 hc        1 UQ6      0.041367
     61 H111       -3.9280   -2.8040    1.9480 hc        1 UQ6      0.045700
     62 H112       -5.0660   -2.5520    3.3310 hc        1 UQ6      0.045700
     63 H121       -3.2050   -3.1670    4.9420 hc        1 UQ6      0.051200
     64 H122       -2.1040   -3.4530    3.5400 hc        1 UQ6      0.051200
     65 H13        -4.4710   -5.0290    2.9710 ha        1 UQ6      0.122000
     66 H151       -2.6480   -5.1610    6.4070 hc        1 UQ6      0.041367
     67 H152       -1.8350   -6.7000    5.8950 hc        1 UQ6      0.041367
     68 H153       -1.3580   -5.1210    5.1380 hc        1 UQ6      0.041367
     69 H161       -4.0280   -7.6940    5.3430 hc        1 UQ6      0.045200
     70 H162       -4.7840   -7.2280    3.7680 hc        1 UQ6      0.045200
     71 H171       -2.6480   -7.7570    2.5660 hc        1 UQ6      0.051700
     72 H172       -1.8610   -8.1950    4.1320 hc        1 UQ6      0.051700
     73 H18        -4.4280   -9.6910    3.7710 ha        1 UQ6      0.121000
     74 H201       -4.2950  -11.9880    3.3400 hc        1 UQ6      0.040033
     75 H202       -2.6280  -12.7010    3.4220 hc        1 UQ6      0.040033
     76 H203       -3.3440  -12.2520    1.8190 hc        1 UQ6      0.040033
     77 H211       -1.0460   -9.4620    2.1700 hc        1 UQ6      0.046700
     78 H212       -1.0730  -11.2110    1.7140 hc        1 UQ6      0.046700
     79 H221       -0.4530  -10.0770    4.5330 hc        1 UQ6      0.049700
     80 H222       -0.5110  -11.8300    4.1030 hc        1 UQ6      0.049700
     81 H23         1.2980  -10.3430    2.2390 ha        1 UQ6      0.123000
     82 H251        2.9340  -11.7200    5.9410 hc        1 UQ6      0.041367
     83 H252        1.2470  -11.0500    5.9640 hc        1 UQ6      0.041367
     84 H253        1.5500  -12.7150    5.3210 hc        1 UQ6      0.041367
     85 H261        4.0920  -12.0080    3.7730 hc        1 UQ6      0.046200
     86 H262        3.5750  -10.9450    2.4050 hc        1 UQ6      0.046200
     87 H271        3.7820   -8.9230    3.8880 hc        1 UQ6      0.050200
     88 H272        4.2890   -9.9750    5.2630 hc        1 UQ6      0.050200
     89 H28         6.0690  -10.6750    3.0830 ha        1 UQ6      0.123000
     90 H301        6.9650   -6.9780    5.0440 hc        1 UQ6      0.041033
     91 H302        5.5850   -7.9610    5.6930 hc        1 UQ6      0.041033
     92 H303        5.3770   -7.0080    4.1690 hc        1 UQ6      0.041033
     93 H311        8.6300   -8.5970    4.3650 hc        1 UQ6      0.045700
     94 H312        8.2320   -9.7880    3.0640 hc        1 UQ6      0.045700
     95 H321        7.8800   -6.7150    2.8440 hc        1 UQ6      0.049700
     96 H322        7.5230   -7.9170    1.5470 hc        1 UQ6      0.049700
     97 H33        10.3050   -8.2960    2.5620 ha        1 UQ6      0.122000
     98 H351       12.0770   -7.5620    1.1960 hc        1 UQ6      0.040200
     99 H352       11.5590   -7.1540   -0.4930 hc        1 UQ6      0.040200
    100 H353       11.8670   -5.8300    0.7040 hc        1 UQ6      0.040200
    101 H361        8.5030   -5.3910    0.8810 hc        1 UQ6      0.040200
    102 H362        9.6800   -5.3720   -0.5000 hc        1 UQ6      0.040200
    103 H363        8.4120   -6.6660   -0.4000 hc        1 UQ6      0.040200
@<TRIPOS>BOND
     1    1    2 1   
     2    1    3 ar  
     3    1    9 ar  
     4    2   44 1   
     5    2   45 1   
     6    2   46 1   
     7    3    4 1   
     8    3    5 ar  
     9    4   47 1   
    10    5    6 ar  
    11    5   10 1   
    12    6    7 ar  
    13    6   12 1   
    14    7    8 1   
    15    7    9 ar  
    16    8   48 1   
    17    9   14 1   
    18   10   11 1   
    19   11   49 1   
    20   11   50 1   
    21   11   51 1   
    22   12   13 1   
    23   13   52 1   
    24   13   53 1   
    25   13   54 1   
    26   14   15 1   
    27   14   55 1   
    28   14   56 1   
    29   15   16 2   
    30   15   57 1   
    31   16   17 1   
    32   16   18 1   
    33   17   58 1   
    34   17   59 1   
    35   17   60 1   
    36   18   19 1   
    37   18   61 1   
    38   18   62 1   
    39   19   20 1   
    40   19   63 1   
    41   19   64 1   
    42   20   21 2   
    43   20   65 1   
    44   21   22 1   
    45   21   23 1   
    46   22   66 1   
    47   22   67 1   
    48   22   68 1   
    49   23   24 1   
    50   23   69 1   
    51   23   70 1   
    52   24   25 1   
    53   24   71 1   
    54   24   72 1   
    55   25   26 2   
    56   25   73 1   
    57   26   27 1   
    58   26   28 1   
    59   27   74 1   
    60   27   75 1   
    61   27   76 1   
    62   28   29 1   
    63   28   77 1   
    64   28   78 1   
    65   29   30 1   
    66   29   79 1   
    67   29   80 1   
    68   30   31 2   
    69   30   81 1   
    70   31   32 1   
    71   31   33 1   
    72   32   82 1   
    73   32   83 1   
    74   32   84 1   
    75   33   34 1   
    76   33   85 1   
    77   33   86 1   
    78   34   35 1   
    79   34   87 1   
    80   34   88 1   
    81   35   36 2   
    82   35   89 1   
    83   36   37 1   
    84   36   38 1   
    85   37   90 1   
    86   37   91 1   
    87   37   92 1   
    88   38   39 1   
    89   38   93 1   
    90   38   94 1   
    91   39   40 1   
    92   39   95 1   
    93   39   96 1   
    94   40   41 2   
    95   40   97 1   
    96   41   42 1   
    97   41   43 1   
    98   42   98 1   
    99   42   99 1   
   100   42  100 1   
   101   43  101 1   
   102   43  102 1   
   103   43  103 1   
@<TRIPOS>SUBSTRUCTURE
     1 UQ6         1 TEMP              0 ****  ****    0 ROOT
