@<TRIPOS>MOLECULE
UQ6
  103   103     1     0     0
SMALL
bcc


@<TRIPOS>ATOM
      1 C1         -2.0790    1.5270   -0.0530 ca        1 UQ6     -0.061300
      2 C1M        -3.5470    1.4540   -0.2360 c3        1 UQ6     -0.051800
      3 C2         -1.2580    1.9420   -1.1200 ca        1 UQ6      0.098100
      4 O2         -1.8690    2.2560   -2.3130 oh        1 UQ6     -0.495100
      5 C3          0.1380    2.0270   -0.9690 ca        1 UQ6      0.024100
      6 C4          0.7220    1.6870    0.2570 ca        1 UQ6      0.016100
      7 C5         -0.0960    1.2830    1.3290 ca        1 UQ6      0.107100
      8 O5          0.4410    0.9690    2.5570 oh        1 UQ6     -0.495100
      9 C6         -1.4950    1.2020    1.1800 ca        1 UQ6     -0.072300
     10 O3          0.8850    2.3530   -2.0930 os        1 UQ6     -0.350900
     11 C3M         1.5650    3.6080   -1.9850 c3        1 UQ6      0.109700
     12 O4          2.0800    1.8270    0.5070 os        1 UQ6     -0.350900
     13 C4M         2.8930    0.8960   -0.2150 c3        1 UQ6      0.108700
     14 C7         -2.3390    0.7860    2.3370 c3        1 UQ6      0.001100
     15 C8         -2.8200   -0.6140    2.2310 c2        1 UQ6     -0.164200
     16 C9         -3.6670   -1.1660    3.1160 c2        1 UQ6     -0.127400
     17 C10        -4.2060   -0.4080    4.2700 c3        1 UQ6     -0.059900
     18 C11        -4.1280   -2.5760    2.9710 c3        1 UQ6     -0.037200
     19 C12        -3.4550   -3.4910    3.9790 c3        1 UQ6     -0.044200
     20 C13        -3.9370   -4.8880    3.8670 c2        1 UQ6     -0.173200
     21 C14        -3.3840   -5.9160    4.5320 c2        1 UQ6     -0.124400
     22 C15        -2.2240   -5.7360    5.4380 c3        1 UQ6     -0.058900
     23 C16        -3.9170   -7.3010    4.4000 c3        1 UQ6     -0.038200
     24 C17        -2.9420   -8.2080    3.6700 c3        1 UQ6     -0.045200
     25 C18        -3.4360   -9.6030    3.5950 c2        1 UQ6     -0.169200
     26 C19        -2.7110  -10.6400    3.1460 c2        1 UQ6     -0.125400
     27 C20        -3.2750  -12.0120    3.0880 c3        1 UQ6     -0.056900
     28 C21        -1.3080  -10.5080    2.6630 c3        1 UQ6     -0.042200
     29 C22        -0.3080  -10.7570    3.7780 c3        1 UQ6     -0.042200
     30 C23         1.0910  -10.6610    3.3010 c2        1 UQ6     -0.173200
     31 C24         2.1550  -10.9860    4.0530 c2        1 UQ6     -0.124400
     32 C25         2.0160  -11.4910    5.4400 c3        1 UQ6     -0.058900
     33 C26         3.5430  -10.8810    3.5210 c3        1 UQ6     -0.039200
     34 C27         4.2670   -9.6680    4.0790 c3        1 UQ6     -0.043200
     35 C28         5.6570   -9.5730    3.5770 c2        1 UQ6     -0.173200
     36 C29         6.4500   -8.5110    3.7930 c2        1 UQ6     -0.124400
     37 C30         5.9890   -7.3240    4.5540 c3        1 UQ6     -0.058900
     38 C31         7.8500   -8.4700    3.2820 c3        1 UQ6     -0.038200
     39 C32         8.0140   -7.4390    2.1790 c3        1 UQ6     -0.043200
     40 C33         9.4150   -7.3530    1.7050 c2        1 UQ6     -0.177200
     41 C34         9.7910   -6.6210    0.6430 c2        1 UQ6     -0.124400
     42 C35        11.2040   -6.5540    0.2010 c3        1 UQ6     -0.057400
     43 C36         8.8220   -5.8360   -0.1590 c3        1 UQ6     -0.057400
     44 H1M1       -4.0380    2.3140    0.2860 hc        1 UQ6      0.054033
     45 H1M2       -3.9470    0.5030    0.1990 hc        1 UQ6      0.054033
     46 H1M3       -3.8210    1.4960   -1.3190 hc        1 UQ6      0.054033
     47 HO2        -1.1700    2.4620   -2.9550 ho        1 UQ6      0.434000
     48 HO5         1.3990    1.1150    2.5040 ho        1 UQ6      0.434000
     49 H3M1        0.8250    4.4390   -1.8880 h1        1 UQ6      0.048367
     50 H3M2        2.1290    3.6850   -2.9470 h1        1 UQ6      0.048367
     51 H3M3        2.2590    3.5960   -1.1100 h1        1 UQ6      0.048367
     52 H4M1        3.9360    1.1750    0.0780 h1        1 UQ6      0.048033
     53 H4M2        2.6550   -0.1480    0.1000 h1        1 UQ6      0.048033
     54 H4M3        2.7370    1.0200   -1.3140 h1        1 UQ6      0.048033
     55 H71        -1.7500    0.8990    3.2920 hc        1 UQ6      0.066700
     56 H72        -3.2230    1.4810    2.4160 hc        1 UQ6      0.066700
     57 H8         -2.4350   -1.1980    1.3800 ha        1 UQ6      0.130000
     58 H101       -3.3760    0.0810    4.8410 hc        1 UQ6      0.041367
     59 H102       -4.8970    0.3970    3.9130 hc        1 UQ6      0.041367
     60 H103       -4.7710   -1.0730    4.9680 hc        1 UQ6      0.041367
     61 H111       -3.9150   -2.9510    1.9340 hc        1 UQ6      0.045700
     62 H112       -5.2410   -2.6150    3.1160 hc        1 UQ6      0.045700
     63 H121       -3.6500   -3.1110    5.0200 hc        1 UQ6      0.051200
     64 H122       -2.3410   -3.4600    3.8270 hc        1 UQ6      0.051200
     65 H13        -4.7970   -5.0510    3.1980 ha        1 UQ6      0.122000
     66 H151       -2.3980   -4.8770    6.1330 hc        1 UQ6      0.041367
     67 H152       -2.0370   -6.6540    6.0480 hc        1 UQ6      0.041367
     68 H153       -1.3020   -5.5150    4.8420 hc        1 UQ6      0.041367
     69 H161       -4.1150   -7.7160    5.4260 hc        1 UQ6      0.045700
     70 H162       -4.8960   -7.2940    3.8510 hc        1 UQ6      0.045700
     71 H171       -2.7750   -7.8140    2.6300 hc        1 UQ6      0.051700
     72 H172       -1.9460   -8.1820    4.1920 hc        1 UQ6      0.051700
     73 H18        -4.4740   -9.7610    3.9320 ha        1 UQ6      0.121000
     74 H201       -4.2860  -12.0650    3.5610 hc        1 UQ6      0.039700
     75 H202       -2.5970  -12.7270    3.6190 hc        1 UQ6      0.039700
     76 H203       -3.3660  -12.3430    2.0230 hc        1 UQ6      0.039700
     77 H211       -1.1420   -9.4820    2.2370 hc        1 UQ6      0.046700
     78 H212       -1.1280  -11.2430    1.8330 hc        1 UQ6      0.046700
     79 H221       -0.4740  -10.0090    4.6020 hc        1 UQ6      0.049700
     80 H222       -0.4880  -11.7740    4.2230 hc        1 UQ6      0.049700
     81 H23         1.2270  -10.2960    2.2690 ha        1 UQ6      0.123000
     82 H251        2.9970  -11.4840    5.9760 hc        1 UQ6      0.041367
     83 H252        1.2920  -10.8640    6.0180 hc        1 UQ6      0.041367
     84 H253        1.6290  -12.5420    5.4270 hc        1 UQ6      0.041367
     85 H261        4.1120  -11.8110    3.7910 hc        1 UQ6      0.046200
     86 H262        3.5270  -10.8160    2.4000 hc        1 UQ6      0.046200
     87 H271        3.7000   -8.7360    3.8060 hc        1 UQ6      0.050200
     88 H272        4.2790   -9.7210    5.2020 hc        1 UQ6      0.050200
     89 H28         6.0270  -10.4400    3.0060 ha        1 UQ6      0.123000
     90 H301        6.8380   -6.6390    4.7940 hc        1 UQ6      0.041033
     91 H302        5.5050   -7.6380    5.5130 hc        1 UQ6      0.041033
     92 H303        5.2330   -6.7540    3.9570 hc        1 UQ6      0.041033
     93 H311        8.5420   -8.2220    4.1320 hc        1 UQ6      0.045700
     94 H312        8.1540   -9.4780    2.8920 hc        1 UQ6      0.045700
     95 H321        7.6840   -6.4320    2.5570 hc        1 UQ6      0.049700
     96 H322        7.3380   -7.6990    1.3200 hc        1 UQ6      0.049700
     97 H33        10.1580   -7.9290    2.2790 ha        1 UQ6      0.122000
     98 H351       11.8660   -7.1990    0.8300 hc        1 UQ6      0.040200
     99 H352       11.2890   -6.8920   -0.8620 hc        1 UQ6      0.040200
    100 H353       11.5760   -5.5010    0.2620 hc        1 UQ6      0.040200
    101 H361        8.1950   -5.1900    0.5060 hc        1 UQ6      0.040200
    102 H362        9.3430   -5.1820   -0.9000 hc        1 UQ6      0.040200
    103 H363        8.1360   -6.5240   -0.7160 hc        1 UQ6      0.040200
@<TRIPOS>BOND
     1    1    2 1   
     2    1    3 ar  
     3    1    9 ar  
     4    2   44 1   
     5    2   45 1   
     6    2   46 1   
     7    3    4 1   
     8    3    5 ar  
     9    4   47 1   
    10    5    6 ar  
    11    5   10 1   
    12    6    7 ar  
    13    6   12 1   
    14    7    8 1   
    15    7    9 ar  
    16    8   48 1   
    17    9   14 1   
    18   10   11 1   
    19   11   49 1   
    20   11   50 1   
    21   11   51 1   
    22   12   13 1   
    23   13   52 1   
    24   13   53 1   
    25   13   54 1   
    26   14   15 1   
    27   14   55 1   
    28   14   56 1   
    29   15   16 2   
    30   15   57 1   
    31   16   17 1   
    32   16   18 1   
    33   17   58 1   
    34   17   59 1   
    35   17   60 1   
    36   18   19 1   
    37   18   61 1   
    38   18   62 1   
    39   19   20 1   
    40   19   63 1   
    41   19   64 1   
    42   20   21 2   
    43   20   65 1   
    44   21   22 1   
    45   21   23 1   
    46   22   66 1   
    47   22   67 1   
    48   22   68 1   
    49   23   24 1   
    50   23   69 1   
    51   23   70 1   
    52   24   25 1   
    53   24   71 1   
    54   24   72 1   
    55   25   26 2   
    56   25   73 1   
    57   26   27 1   
    58   26   28 1   
    59   27   74 1   
    60   27   75 1   
    61   27   76 1   
    62   28   29 1   
    63   28   77 1   
    64   28   78 1   
    65   29   30 1   
    66   29   79 1   
    67   29   80 1   
    68   30   31 2   
    69   30   81 1   
    70   31   32 1   
    71   31   33 1   
    72   32   82 1   
    73   32   83 1   
    74   32   84 1   
    75   33   34 1   
    76   33   85 1   
    77   33   86 1   
    78   34   35 1   
    79   34   87 1   
    80   34   88 1   
    81   35   36 2   
    82   35   89 1   
    83   36   37 1   
    84   36   38 1   
    85   37   90 1   
    86   37   91 1   
    87   37   92 1   
    88   38   39 1   
    89   38   93 1   
    90   38   94 1   
    91   39   40 1   
    92   39   95 1   
    93   39   96 1   
    94   40   41 2   
    95   40   97 1   
    96   41   42 1   
    97   41   43 1   
    98   42   98 1   
    99   42   99 1   
   100   42  100 1   
   101   43  101 1   
   102   43  102 1   
   103   43  103 1   
@<TRIPOS>SUBSTRUCTURE
     1 UQ6         1 TEMP              0 ****  ****    0 ROOT
