@<TRIPOS>MOLECULE
UQ7
  114   114     1     0     0
SMALL
bcc


@<TRIPOS>ATOM
      1 C1          0.7620   -0.4320    0.6110 c         1 UQ7      0.557500
      2 C2          0.3420   -1.0580    1.8910 cc        1 UQ7      0.023900
      3 C3         -0.8050   -1.7880    1.9730 cd        1 UQ7     -0.015100
      4 C4         -1.7530   -1.8840    0.8400 c         1 UQ7      0.552500
      5 C5         -1.4220   -1.0780   -0.3650 cc        1 UQ7     -0.123400
      6 C6         -0.2620   -0.3940   -0.4630 cd        1 UQ7     -0.133400
      7 CM2         2.4950   -0.9010    2.9100 c3        1 UQ7      0.115700
      8 CM3        -2.2280   -2.1530    3.8270 c3        1 UQ7      0.109700
      9 CM5        -2.4350   -1.0810   -1.4470 c3        1 UQ7     -0.070900
     10 C7          0.0880    0.4300   -1.6590 c3        1 UQ7     -0.012000
     11 C8         -0.4390    1.8140   -1.5420 c2        1 UQ7     -0.190200
     12 C9          0.3140    2.9220   -1.4650 c2        1 UQ7     -0.089400
     13 C10         1.7970    2.9000   -1.4600 c3        1 UQ7     -0.073900
     14 C11        -0.3210    4.2710   -1.3980 c3        1 UQ7     -0.045200
     15 C12        -0.2620    4.8470    0.0050 c3        1 UQ7     -0.043200
     16 C13        -0.8620    6.1990    0.0740 c2        1 UQ7     -0.176200
     17 C14        -1.0680    6.8580    1.2260 c2        1 UQ7     -0.120400
     18 C15        -0.7150    6.2740    2.5420 c3        1 UQ7     -0.059900
     19 C16        -1.6590    8.2270    1.2430 c3        1 UQ7     -0.039200
     20 O1          1.9010    0.0210    0.4490 o         1 UQ7     -0.508100
     21 O2          1.0710   -0.8740    3.0410 os        1 UQ7     -0.305900
     22 O3         -1.0540   -2.5360    3.1050 os        1 UQ7     -0.307900
     23 O4         -2.7660   -2.5900    0.8960 o         1 UQ7     -0.496100
     24 C17        -3.0490    8.2290    1.8540 c3        1 UQ7     -0.043200
     25 C18        -3.6210    9.5940    1.9240 c2        1 UQ7     -0.174200
     26 C19        -4.8890    9.8450    2.2870 c2        1 UQ7     -0.123400
     27 C20        -5.8360    8.7620    2.6450 c3        1 UQ7     -0.058900
     28 C21        -5.4140   11.2390    2.3600 c3        1 UQ7     -0.039200
     29 C22        -6.4510   11.5030    1.2830 c3        1 UQ7     -0.043200
     30 C23        -7.0180   12.8680    1.3810 c2        1 UQ7     -0.174200
     31 C24        -7.8410   13.3960    0.4600 c2        1 UQ7     -0.123400
     32 C25        -8.2480   12.6470   -0.7530 c3        1 UQ7     -0.058900
     33 C26        -8.4000   14.7680    0.6140 c3        1 UQ7     -0.038200
     34 C27        -7.8320   15.7230   -0.4210 c3        1 UQ7     -0.044200
     35 C28        -8.4240   17.0770   -0.3110 c2        1 UQ7     -0.174200
     36 C29        -7.9850   18.1350   -1.0120 c2        1 UQ7     -0.123400
     37 C30        -6.8500   18.0350   -1.9610 c3        1 UQ7     -0.058900
     38 C31        -8.6250   19.4740   -0.8790 c3        1 UQ7     -0.038200
     39 C32        -7.7010   20.4730   -0.2060 c3        1 UQ7     -0.043200
     40 C33        -8.3090   21.8210   -0.1190 c2        1 UQ7     -0.174200
     41 C34        -7.7560   22.8390    0.5610 c2        1 UQ7     -0.123400
     42 C35        -6.4780   22.6920    1.2970 c3        1 UQ7     -0.058900
     43 C36        -8.3980   24.1830    0.6040 c3        1 UQ7     -0.038200
     44 C37        -8.9190   24.5110    1.9910 c3        1 UQ7     -0.043200
     45 C38        -9.5080   25.8680    2.0570 c2        1 UQ7     -0.177200
     46 C39       -10.1450   26.3460    3.1390 c2        1 UQ7     -0.124400
     47 C40       -10.7190   27.7120    3.1690 c3        1 UQ7     -0.057900
     48 C41       -10.3200   25.5400    4.3710 c3        1 UQ7     -0.057900
     49 HM21        2.8550    0.1000    2.5680 h1        1 UQ7      0.053033
     50 HM22        2.8250   -1.6970    2.2040 h1        1 UQ7      0.053033
     51 HM23        2.8420   -1.1190    3.9520 h1        1 UQ7      0.053033
     52 HM31       -2.1270   -1.1040    4.1960 h1        1 UQ7      0.049033
     53 HM32       -3.1370   -2.2640    3.1880 h1        1 UQ7      0.049033
     54 HM33       -2.2490   -2.8750    4.6810 h1        1 UQ7      0.049033
     55 HM51       -3.3730   -1.5980   -1.1220 hc        1 UQ7      0.062700
     56 HM52       -2.0320   -1.6170   -2.3450 hc        1 UQ7      0.062700
     57 HM53       -2.6890   -0.0340   -1.7490 hc        1 UQ7      0.062700
     58 H71         1.2060    0.4370   -1.7870 hc        1 UQ7      0.069200
     59 H72        -0.3480   -0.0450   -2.5820 hc        1 UQ7      0.069200
     60 H8         -1.5400    1.8880   -1.5330 ha        1 UQ7      0.121000
     61 H101        2.1820    2.1420   -0.7300 hc        1 UQ7      0.050367
     62 H102        2.1810    2.6320   -2.4770 hc        1 UQ7      0.050367
     63 H103        2.2140    3.8990   -1.1820 hc        1 UQ7      0.050367
     64 H111       -1.3930    4.2160   -1.7280 hc        1 UQ7      0.048200
     65 H112        0.2100    4.9610   -2.1090 hc        1 UQ7      0.048200
     66 H121        0.8090    4.8960    0.3470 hc        1 UQ7      0.052200
     67 H122       -0.7960    4.1580    0.7160 hc        1 UQ7      0.052200
     68 H13        -1.1360    6.6580   -0.8900 ha        1 UQ7      0.123000
     69 H151       -1.4120    5.4330    2.7890 hc        1 UQ7      0.042033
     70 H152        0.3260    5.8640    2.5220 hc        1 UQ7      0.042033
     71 H153       -0.7800    7.0350    3.3570 hc        1 UQ7      0.042033
     72 H161       -0.9880    8.9060    1.8360 hc        1 UQ7      0.046200
     73 H162       -1.7140    8.6420    0.2010 hc        1 UQ7      0.046200
     74 H171       -3.0020    7.7900    2.8890 hc        1 UQ7      0.050200
     75 H172       -3.7250    7.5640    1.2510 hc        1 UQ7      0.050200
     76 H18        -2.9400   10.4190    1.6610 ha        1 UQ7      0.123000
     77 H201       -6.1130    8.1760    1.7320 hc        1 UQ7      0.041367
     78 H202       -5.3670    8.0580    3.3770 hc        1 UQ7      0.041367
     79 H203       -6.7720    9.1710    3.0980 hc        1 UQ7      0.041367
     80 H211       -4.5760   11.9790    2.2550 hc        1 UQ7      0.046200
     81 H212       -5.8760   11.4020    3.3710 hc        1 UQ7      0.046200
     82 H221       -5.9840   11.3590    0.2700 hc        1 UQ7      0.050200
     83 H222       -7.2800   10.7470    1.3670 hc        1 UQ7      0.050200
     84 H23        -6.7290   13.4490    2.2720 ha        1 UQ7      0.123000
     85 H251       -9.0750   13.1680   -1.2960 hc        1 UQ7      0.041367
     86 H252       -8.5970   11.6180   -0.4800 hc        1 UQ7      0.041367
     87 H253       -7.3790   12.5420   -1.4510 hc        1 UQ7      0.041367
     88 H261       -8.1830   15.1670    1.6410 hc        1 UQ7      0.046200
     89 H262       -9.5180   14.7220    0.5060 hc        1 UQ7      0.046200
     90 H271       -6.7160   15.7860   -0.3020 hc        1 UQ7      0.050200
     91 H272       -8.0240   15.3140   -1.4520 hc        1 UQ7      0.050200
     92 H28        -9.2680   17.1810    0.3900 ha        1 UQ7      0.123000
     93 H301       -6.9870   17.1600   -2.6450 hc        1 UQ7      0.041367
     94 H302       -6.7560   18.9590   -2.5830 hc        1 UQ7      0.041367
     95 H303       -5.8920   17.8880   -1.4010 hc        1 UQ7      0.041367
     96 H311       -9.5770   19.3960   -0.2890 hc        1 UQ7      0.045700
     97 H312       -8.9000   19.8500   -1.9020 hc        1 UQ7      0.045700
     98 H321       -6.7350   20.5340   -0.7800 hc        1 UQ7      0.050200
     99 H322       -7.4410   20.1070    0.8250 hc        1 UQ7      0.050200
    100 H33        -9.2610   21.9580   -0.6560 ha        1 UQ7      0.123000
    101 H351       -6.0860   23.6820    1.6360 hc        1 UQ7      0.041367
    102 H352       -6.6250   22.0440    2.1980 hc        1 UQ7      0.041367
    103 H353       -5.7050   22.2080    0.6480 hc        1 UQ7      0.041367
    104 H361       -9.2460   24.2360   -0.1300 hc        1 UQ7      0.045700
    105 H362       -7.6440   24.9570    0.2950 hc        1 UQ7      0.045700
    106 H371       -8.0780   24.4320    2.7350 hc        1 UQ7      0.049700
    107 H372       -9.6880   23.7490    2.2930 hc        1 UQ7      0.049700
    108 H38        -9.3970   26.4900    1.1540 ha        1 UQ7      0.122000
    109 H401      -10.5750   28.2430    2.1960 hc        1 UQ7      0.040533
    110 H402      -11.8150   27.6630    3.3860 hc        1 UQ7      0.040533
    111 H403      -10.2300   28.3150    3.9750 hc        1 UQ7      0.040533
    112 H411      -11.0040   24.6770    4.1730 hc        1 UQ7      0.040533
    113 H412       -9.3370   25.1280    4.7130 hc        1 UQ7      0.040533
    114 H413      -10.7540   26.1520    5.1990 hc        1 UQ7      0.040533
@<TRIPOS>BOND
     1    1    2 1   
     2    1    6 1   
     3    1   20 2   
     4    2    3 2   
     5    2   21 1   
     6    3    4 1   
     7    3   22 1   
     8    4    5 1   
     9    4   23 2   
    10    5    6 2   
    11    5    9 1   
    12    6   10 1   
    13    7   21 1   
    14    7   49 1   
    15    7   50 1   
    16    7   51 1   
    17    8   22 1   
    18    8   52 1   
    19    8   53 1   
    20    8   54 1   
    21    9   55 1   
    22    9   56 1   
    23    9   57 1   
    24   10   11 1   
    25   10   58 1   
    26   10   59 1   
    27   11   12 2   
    28   11   60 1   
    29   12   13 1   
    30   12   14 1   
    31   13   61 1   
    32   13   62 1   
    33   13   63 1   
    34   14   15 1   
    35   14   64 1   
    36   14   65 1   
    37   15   16 1   
    38   15   66 1   
    39   15   67 1   
    40   16   17 2   
    41   16   68 1   
    42   17   18 1   
    43   17   19 1   
    44   18   69 1   
    45   18   70 1   
    46   18   71 1   
    47   19   24 1   
    48   19   72 1   
    49   19   73 1   
    50   24   25 1   
    51   24   74 1   
    52   24   75 1   
    53   25   26 2   
    54   25   76 1   
    55   26   27 1   
    56   26   28 1   
    57   27   77 1   
    58   27   78 1   
    59   27   79 1   
    60   28   29 1   
    61   28   80 1   
    62   28   81 1   
    63   29   30 1   
    64   29   82 1   
    65   29   83 1   
    66   30   31 2   
    67   30   84 1   
    68   31   32 1   
    69   31   33 1   
    70   32   85 1   
    71   32   86 1   
    72   32   87 1   
    73   33   34 1   
    74   33   88 1   
    75   33   89 1   
    76   34   35 1   
    77   34   90 1   
    78   34   91 1   
    79   35   36 2   
    80   35   92 1   
    81   36   37 1   
    82   36   38 1   
    83   37   93 1   
    84   37   94 1   
    85   37   95 1   
    86   38   39 1   
    87   38   96 1   
    88   38   97 1   
    89   39   40 1   
    90   39   98 1   
    91   39   99 1   
    92   40   41 2   
    93   40  100 1   
    94   41   42 1   
    95   41   43 1   
    96   42  101 1   
    97   42  102 1   
    98   42  103 1   
    99   43   44 1   
   100   43  104 1   
   101   43  105 1   
   102   44   45 1   
   103   44  106 1   
   104   44  107 1   
   105   45   46 2   
   106   45  108 1   
   107   46   47 1   
   108   46   48 1   
   109   47  109 1   
   110   47  110 1   
   111   47  111 1   
   112   48  112 1   
   113   48  113 1   
   114   48  114 1   
@<TRIPOS>SUBSTRUCTURE
     1 UQ7         1 TEMP              0 ****  ****    0 ROOT
