@<TRIPOS>MOLECULE
UQ7
  114   114     1     0     0
SMALL
bcc


@<TRIPOS>ATOM
      1 C1          0.7920   -0.4220    0.6050 c         1 UQ7      0.557500
      2 C2          0.4630   -1.0060    1.9290 cc        1 UQ7      0.023900
      3 C3         -0.6730   -1.7360    2.1130 cd        1 UQ7     -0.015100
      4 C4         -1.6950   -1.8720    1.0520 c         1 UQ7      0.552500
      5 C5         -1.4510   -1.1050   -0.1990 cc        1 UQ7     -0.123400
      6 C6         -0.3030   -0.4210   -0.3970 cd        1 UQ7     -0.133400
      7 CM2         2.6790   -0.8110    2.7950 c3        1 UQ7      0.115700
      8 CM3        -1.9650   -2.0440    4.0700 c3        1 UQ7      0.109700
      9 CM5        -2.5350   -1.1460   -1.2090 c3        1 UQ7     -0.070900
     10 C7         -0.0390    0.3640   -1.6410 c3        1 UQ7     -0.012000
     11 C8         -0.5640    1.7500   -1.5330 c2        1 UQ7     -0.190200
     12 C9          0.1870    2.8610   -1.5420 c2        1 UQ7     -0.089400
     13 C10         1.6670    2.8450   -1.6360 c3        1 UQ7     -0.073900
     14 C11        -0.4490    4.2100   -1.4760 c3        1 UQ7     -0.045200
     15 C12        -0.3010    4.8300   -0.0980 c3        1 UQ7     -0.043200
     16 C13        -0.9020    6.1830   -0.0320 c2        1 UQ7     -0.176200
     17 C14        -1.0410    6.8740    1.1110 c2        1 UQ7     -0.120400
     18 C15        -0.6060    6.3290    2.4200 c3        1 UQ7     -0.059900
     19 C16        -1.6350    8.2410    1.1230 c3        1 UQ7     -0.039200
     20 O1          1.9150    0.0290    0.3510 o         1 UQ7     -0.508100
     21 O2          1.2670   -0.7830    3.0210 os        1 UQ7     -0.305900
     22 O3         -0.8410   -2.4480    3.2830 os        1 UQ7     -0.307900
     23 O4         -2.6990   -2.5780    1.1990 o         1 UQ7     -0.496100
     24 C17        -2.9850    8.2580    1.8170 c3        1 UQ7     -0.043200
     25 C18        -3.5580    9.6230    1.8830 c2        1 UQ7     -0.174200
     26 C19        -4.8050    9.8820    2.3090 c2        1 UQ7     -0.123400
     27 C20        -5.7280    8.8060    2.7440 c3        1 UQ7     -0.058900
     28 C21        -5.3290   11.2750    2.3760 c3        1 UQ7     -0.039200
     29 C22        -6.4230   11.5120    1.3500 c3        1 UQ7     -0.043200
     30 C23        -6.9890   12.8770    1.4480 c2        1 UQ7     -0.174200
     31 C24        -7.8590   13.3830    0.5580 c2        1 UQ7     -0.123400
     32 C25        -8.3230   12.6080   -0.6180 c3        1 UQ7     -0.058900
     33 C26        -8.4150   14.7570    0.7100 c3        1 UQ7     -0.038200
     34 C27        -7.9030   15.6920   -0.3710 c3        1 UQ7     -0.044200
     35 C28        -8.4930   17.0460   -0.2600 c2        1 UQ7     -0.174200
     36 C29        -8.0900   18.0910   -0.9990 c2        1 UQ7     -0.123400
     37 C30        -6.9990   17.9770   -1.9960 c3        1 UQ7     -0.058900
     38 C31        -8.7300   19.4310   -0.8630 c3        1 UQ7     -0.038200
     39 C32        -7.7800   20.4450   -0.2500 c3        1 UQ7     -0.043200
     40 C33        -8.3890   21.7920   -0.1610 c2        1 UQ7     -0.174200
     41 C34        -7.8130   22.8230    0.4780 c2        1 UQ7     -0.123400
     42 C35        -6.5040   22.6930    1.1640 c3        1 UQ7     -0.058900
     43 C36        -8.4570   24.1660    0.5250 c3        1 UQ7     -0.038200
     44 C37        -8.9210   24.5170    1.9270 c3        1 UQ7     -0.043200
     45 C38        -9.5130   25.8720    1.9940 c2        1 UQ7     -0.177200
     46 C39       -10.1080   26.3660    3.0920 c2        1 UQ7     -0.124400
     47 C40       -10.6860   27.7310    3.1230 c3        1 UQ7     -0.057900
     48 C41       -10.2320   25.5800    4.3440 c3        1 UQ7     -0.057900
     49 HM21        3.0110    0.1790    2.3960 h1        1 UQ7      0.053033
     50 HM22        2.9640   -1.6290    2.0940 h1        1 UQ7      0.053033
     51 HM23        3.0970   -0.9940    3.8170 h1        1 UQ7      0.053033
     52 HM31       -1.8440   -0.9840    4.3980 h1        1 UQ7      0.049033
     53 HM32       -2.9140   -2.1790    3.4990 h1        1 UQ7      0.049033
     54 HM33       -1.9240   -2.7380    4.9470 h1        1 UQ7      0.049033
     55 HM51       -3.4460   -1.6550   -0.8040 hc        1 UQ7      0.062700
     56 HM52       -2.1910   -1.7090   -2.1140 hc        1 UQ7      0.062700
     57 HM53       -2.8140   -0.1100   -1.5260 hc        1 UQ7      0.062700
     58 H71         1.0680    0.3700   -1.8450 hc        1 UQ7      0.069200
     59 H72        -0.5350   -0.1420   -2.5170 hc        1 UQ7      0.069200
     60 H8         -1.6620    1.8210   -1.4530 ha        1 UQ7      0.121000
     61 H101        2.1030    2.1110   -0.9110 hc        1 UQ7      0.050367
     62 H102        1.9830    2.5460   -2.6680 hc        1 UQ7      0.050367
     63 H103        2.0970    3.8530   -1.4170 hc        1 UQ7      0.050367
     64 H111       -1.5400    4.1420   -1.7330 hc        1 UQ7      0.048200
     65 H112        0.0310    4.8790   -2.2410 hc        1 UQ7      0.048200
     66 H121        0.7900    4.8930    0.1710 hc        1 UQ7      0.052200
     67 H122       -0.7840    4.1620    0.6670 hc        1 UQ7      0.052200
     68 H13        -1.2350    6.6120   -0.9910 ha        1 UQ7      0.123000
     69 H151       -1.2840    5.4960    2.7330 hc        1 UQ7      0.042033
     70 H152        0.4330    5.9190    2.3480 hc        1 UQ7      0.042033
     71 H153       -0.6230    7.1150    3.2140 hc        1 UQ7      0.042033
     72 H161       -0.9320    8.9390    1.6560 hc        1 UQ7      0.046200
     73 H162       -1.7530    8.6270    0.0750 hc        1 UQ7      0.046200
     74 H171       -2.8760    7.8470    2.8580 hc        1 UQ7      0.050200
     75 H172       -3.6950    7.5760    1.2730 hc        1 UQ7      0.050200
     76 H18        -2.8940   10.4430    1.5640 ha        1 UQ7      0.123000
     77 H201       -6.0540    8.1990    1.8620 hc        1 UQ7      0.041367
     78 H202       -5.2170    8.1190    3.4650 hc        1 UQ7      0.041367
     79 H203       -6.6380    9.2250    3.2390 hc        1 UQ7      0.041367
     80 H211       -4.5000   12.0140    2.2080 hc        1 UQ7      0.046200
     81 H212       -5.7360   11.4630    3.4060 hc        1 UQ7      0.046200
     82 H221       -6.0110   11.3450    0.3170 hc        1 UQ7      0.050200
     83 H222       -7.2430   10.7560    1.4970 hc        1 UQ7      0.050200
     84 H23        -6.6600   13.4780    2.3110 ha        1 UQ7      0.123000
     85 H251       -9.1780   13.1140   -1.1290 hc        1 UQ7      0.041367
     86 H252       -8.6520   11.5840   -0.3070 hc        1 UQ7      0.041367
     87 H253       -7.4890   12.4920   -1.3560 hc        1 UQ7      0.041367
     88 H261       -8.1500   15.1780    1.7170 hc        1 UQ7      0.046200
     89 H262       -9.5370   14.7040    0.6580 hc        1 UQ7      0.046200
     90 H271       -6.7820   15.7600   -0.3070 hc        1 UQ7      0.050200
     91 H272       -8.1430   15.2610   -1.3820 hc        1 UQ7      0.050200
     92 H28        -9.3060   17.1600    0.4760 ha        1 UQ7      0.123000
     93 H301       -7.1620   17.0880   -2.6550 hc        1 UQ7      0.041367
     94 H302       -6.9370   18.8890   -2.6400 hc        1 UQ7      0.041367
     95 H303       -6.0160   17.8450   -1.4770 hc        1 UQ7      0.041367
     96 H311       -9.6540   19.3610   -0.2300 hc        1 UQ7      0.045700
     97 H312       -9.0510   19.7870   -1.8800 hc        1 UQ7      0.045700
     98 H321       -6.8410   20.4990   -0.8670 hc        1 UQ7      0.050200
     99 H322       -7.4730   20.0990    0.7750 hc        1 UQ7      0.050200
    100 H33        -9.3640   21.9170   -0.6600 ha        1 UQ7      0.123000
    101 H351       -6.1020   23.6910    1.4670 hc        1 UQ7      0.041367
    102 H352       -6.6120   22.0620    2.0820 hc        1 UQ7      0.041367
    103 H353       -5.7580   22.1990    0.4920 hc        1 UQ7      0.041367
    104 H361       -9.3360   24.2030   -0.1740 hc        1 UQ7      0.045700
    105 H362       -7.7200   24.9380    0.1710 hc        1 UQ7      0.045700
    106 H371       -8.0500   24.4530    2.6360 hc        1 UQ7      0.049700
    107 H372       -9.6750   23.7570    2.2740 hc        1 UQ7      0.049700
    108 H38        -9.4410   26.4800    1.0770 ha        1 UQ7      0.122000
    109 H401      -10.5830   28.2450    2.1360 hc        1 UQ7      0.040533
    110 H402      -11.7730   27.6810    3.3840 hc        1 UQ7      0.040533
    111 H403      -10.1690   28.3490    3.8990 hc        1 UQ7      0.040533
    112 H411      -10.9210   24.7120    4.1880 hc        1 UQ7      0.040533
    113 H412       -9.2350   25.1750    4.6520 hc        1 UQ7      0.040533
    114 H413      -10.6330   26.2050    5.1780 hc        1 UQ7      0.040533
@<TRIPOS>BOND
     1    1    2 1   
     2    1    6 1   
     3    1   20 2   
     4    2    3 2   
     5    2   21 1   
     6    3    4 1   
     7    3   22 1   
     8    4    5 1   
     9    4   23 2   
    10    5    6 2   
    11    5    9 1   
    12    6   10 1   
    13    7   21 1   
    14    7   49 1   
    15    7   50 1   
    16    7   51 1   
    17    8   22 1   
    18    8   52 1   
    19    8   53 1   
    20    8   54 1   
    21    9   55 1   
    22    9   56 1   
    23    9   57 1   
    24   10   11 1   
    25   10   58 1   
    26   10   59 1   
    27   11   12 2   
    28   11   60 1   
    29   12   13 1   
    30   12   14 1   
    31   13   61 1   
    32   13   62 1   
    33   13   63 1   
    34   14   15 1   
    35   14   64 1   
    36   14   65 1   
    37   15   16 1   
    38   15   66 1   
    39   15   67 1   
    40   16   17 2   
    41   16   68 1   
    42   17   18 1   
    43   17   19 1   
    44   18   69 1   
    45   18   70 1   
    46   18   71 1   
    47   19   24 1   
    48   19   72 1   
    49   19   73 1   
    50   24   25 1   
    51   24   74 1   
    52   24   75 1   
    53   25   26 2   
    54   25   76 1   
    55   26   27 1   
    56   26   28 1   
    57   27   77 1   
    58   27   78 1   
    59   27   79 1   
    60   28   29 1   
    61   28   80 1   
    62   28   81 1   
    63   29   30 1   
    64   29   82 1   
    65   29   83 1   
    66   30   31 2   
    67   30   84 1   
    68   31   32 1   
    69   31   33 1   
    70   32   85 1   
    71   32   86 1   
    72   32   87 1   
    73   33   34 1   
    74   33   88 1   
    75   33   89 1   
    76   34   35 1   
    77   34   90 1   
    78   34   91 1   
    79   35   36 2   
    80   35   92 1   
    81   36   37 1   
    82   36   38 1   
    83   37   93 1   
    84   37   94 1   
    85   37   95 1   
    86   38   39 1   
    87   38   96 1   
    88   38   97 1   
    89   39   40 1   
    90   39   98 1   
    91   39   99 1   
    92   40   41 2   
    93   40  100 1   
    94   41   42 1   
    95   41   43 1   
    96   42  101 1   
    97   42  102 1   
    98   42  103 1   
    99   43   44 1   
   100   43  104 1   
   101   43  105 1   
   102   44   45 1   
   103   44  106 1   
   104   44  107 1   
   105   45   46 2   
   106   45  108 1   
   107   46   47 1   
   108   46   48 1   
   109   47  109 1   
   110   47  110 1   
   111   47  111 1   
   112   48  112 1   
   113   48  113 1   
   114   48  114 1   
@<TRIPOS>SUBSTRUCTURE
     1 UQ7         1 TEMP              0 ****  ****    0 ROOT
