@<TRIPOS>MOLECULE
UQ7
  114   114     1     0     0
SMALL
bcc


@<TRIPOS>ATOM
      1 C1         -0.2050   -0.4350  -11.6130 c         1 UQ7      0.554500
      2 C2         -1.0840   -1.5220  -12.1110 cc        1 UQ7      0.010900
      3 C3         -2.4210   -1.3390  -12.2730 cd        1 UQ7      0.010900
      4 C4         -3.0890   -0.0810  -11.8570 c         1 UQ7      0.548500
      5 C5         -2.2330    0.9170  -11.1650 cc        1 UQ7     -0.128400
      6 C6         -0.8990    0.7470  -11.0400 cd        1 UQ7     -0.133400
      7 CM2         0.3600   -2.8330  -13.4520 c3        1 UQ7      0.111700
      8 CM3        -4.2340   -2.8610  -12.1760 c3        1 UQ7      0.110700
      9 CM5        -2.9250    2.1140  -10.6320 c3        1 UQ7     -0.071900
     10 C7         -0.0330    1.7430  -10.3460 c3        1 UQ7     -0.016000
     11 C8         -0.1330    1.6560   -8.8670 c2        1 UQ7     -0.179200
     12 C9          0.6680    2.3480   -8.0400 c2        1 UQ7     -0.108400
     13 C10         1.7260    3.2570   -8.5440 c3        1 UQ7     -0.063900
     14 C11         0.5290    2.2420   -6.5600 c3        1 UQ7     -0.040200
     15 C12         1.7140    1.5230   -5.9390 c3        1 UQ7     -0.043200
     16 C13         1.6100    1.4590   -4.4620 c2        1 UQ7     -0.177200
     17 C14         2.4470    0.7430   -3.6940 c2        1 UQ7     -0.120400
     18 C15         3.5530   -0.0600   -4.2690 c3        1 UQ7     -0.059900
     19 C16         2.3140    0.7250   -2.2090 c3        1 UQ7     -0.039200
     20 O1          1.0260   -0.5100  -11.6770 o         1 UQ7     -0.495100
     21 O2         -0.5270   -2.7640  -12.3300 os        1 UQ7     -0.316900
     22 O3         -3.1580   -2.2980  -12.9340 os        1 UQ7     -0.312900
     23 O4         -4.2890    0.1210  -12.0720 o         1 UQ7     -0.494100
     24 C17         1.8710   -0.6360   -1.7030 c3        1 UQ7     -0.043200
     25 C18         1.7880   -0.6780   -0.2250 c2        1 UQ7     -0.174200
     26 C19         1.2850   -1.7200    0.4570 c2        1 UQ7     -0.123400
     27 C20         0.7560   -2.9260   -0.2230 c3        1 UQ7     -0.058900
     28 C21         1.2400   -1.7230    1.9470 c3        1 UQ7     -0.038200
     29 C22        -0.1850   -1.6450    2.4650 c3        1 UQ7     -0.043200
     30 C23        -0.2420   -1.7030    3.9440 c2        1 UQ7     -0.174200
     31 C24        -1.3680   -1.5050    4.6490 c2        1 UQ7     -0.123400
     32 C25        -2.6630   -1.2000    3.9950 c3        1 UQ7     -0.058900
     33 C26        -1.3780   -1.5920    6.1360 c3        1 UQ7     -0.038200
     34 C27        -1.6170   -0.2350    6.7750 c3        1 UQ7     -0.043200
     35 C28        -1.6940   -0.3230    8.2510 c2        1 UQ7     -0.173200
     36 C29        -2.0500    0.7070    9.0370 c2        1 UQ7     -0.124400
     37 C30        -2.4180    2.0320    8.4840 c3        1 UQ7     -0.058900
     38 C31        -2.1210    0.5640   10.5190 c3        1 UQ7     -0.039200
     39 C32        -0.9390    1.2270   11.2030 c3        1 UQ7     -0.043200
     40 C33        -1.0190    1.1160   12.6780 c2        1 UQ7     -0.174200
     41 C34        -0.0250    1.4860   13.5030 c2        1 UQ7     -0.123400
     42 C35         1.2560    2.0350   12.9960 c3        1 UQ7     -0.058900
     43 C36        -0.1610    1.3720   14.9820 c3        1 UQ7     -0.038200
     44 C37         0.7630    0.3080   15.5490 c3        1 UQ7     -0.043200
     45 C38         0.6760    0.2260   17.0250 c2        1 UQ7     -0.177200
     46 C39         1.3010   -0.7150   17.7510 c2        1 UQ7     -0.124400
     47 C40         1.1940   -0.7630   19.2290 c3        1 UQ7     -0.057900
     48 C41         2.1340   -1.7710   17.1260 c3        1 UQ7     -0.057900
     49 HM21        0.6950   -3.9010  -13.4450 h1        1 UQ7      0.051700
     50 HM22       -0.1940   -2.5970  -14.3920 h1        1 UQ7      0.051700
     51 HM23        1.2250   -2.1420  -13.3120 h1        1 UQ7      0.051700
     52 HM31       -4.6780   -3.6060  -12.8830 h1        1 UQ7      0.052033
     53 HM32       -3.8370   -3.3670  -11.2640 h1        1 UQ7      0.052033
     54 HM33       -4.9790   -2.0750  -11.9050 h1        1 UQ7      0.052033
     55 HM51       -4.0360    1.9940  -10.6750 hc        1 UQ7      0.063367
     56 HM52       -2.6210    2.2990   -9.5700 hc        1 UQ7      0.063367
     57 HM53       -2.6440    3.0150  -11.2360 hc        1 UQ7      0.063367
     58 H71         1.0410    1.5910  -10.6570 hc        1 UQ7      0.073200
     59 H72        -0.3260    2.7810  -10.6760 hc        1 UQ7      0.073200
     60 H8         -0.9070    0.9820   -8.4680 ha        1 UQ7      0.128000
     61 H101        2.5390    2.6640   -9.0360 hc        1 UQ7      0.045033
     62 H102        1.3060    3.9630   -9.3040 hc        1 UQ7      0.045033
     63 H103        2.1780    3.8560   -7.7160 hc        1 UQ7      0.045033
     64 H111        0.4500    3.2760   -6.1260 hc        1 UQ7      0.047200
     65 H112       -0.4150    1.6970   -6.2930 hc        1 UQ7      0.047200
     66 H121        1.7830    0.4820   -6.3600 hc        1 UQ7      0.052200
     67 H122        2.6650    2.0510   -6.2250 hc        1 UQ7      0.052200
     68 H13         0.7950    2.0450   -4.0070 ha        1 UQ7      0.122000
     69 H151        3.1400   -0.9490   -4.8100 hc        1 UQ7      0.042033
     70 H152        4.1390    0.5480   -5.0030 hc        1 UQ7      0.042033
     71 H153        4.2490   -0.4240   -3.4740 hc        1 UQ7      0.042033
     72 H161        3.3050    0.9900   -1.7510 hc        1 UQ7      0.046200
     73 H162        1.5760    1.5020   -1.8730 hc        1 UQ7      0.046200
     74 H171        0.8700   -0.8930   -2.1470 hc        1 UQ7      0.050700
     75 H172        2.5940   -1.4210   -2.0610 hc        1 UQ7      0.050700
     76 H18         2.1730    0.2060    0.3080 ha        1 UQ7      0.123000
     77 H201       -0.2020   -2.6820   -0.7500 hc        1 UQ7      0.041700
     78 H202        1.4840   -3.2960   -0.9880 hc        1 UQ7      0.041700
     79 H203        0.5560   -3.7510    0.5030 hc        1 UQ7      0.041700
     80 H211        1.7240   -2.6650    2.3250 hc        1 UQ7      0.046200
     81 H212        1.8300   -0.8610    2.3590 hc        1 UQ7      0.046200
     82 H221       -0.6630   -0.6940    2.1030 hc        1 UQ7      0.050200
     83 H222       -0.7860   -2.4930    2.0340 hc        1 UQ7      0.050200
     84 H23         0.7080   -1.9260    4.4570 ha        1 UQ7      0.122000
     85 H251       -2.6410   -0.1690    3.5600 hc        1 UQ7      0.041367
     86 H252       -2.8610   -1.9210    3.1610 hc        1 UQ7      0.041367
     87 H253       -3.5110   -1.2580    4.7210 hc        1 UQ7      0.041367
     88 H261       -2.1880   -2.3020    6.4560 hc        1 UQ7      0.046200
     89 H262       -0.4060   -2.0090    6.5110 hc        1 UQ7      0.046200
     90 H271       -0.7870    0.4660    6.4850 hc        1 UQ7      0.050200
     91 H272       -2.5700    0.2070    6.3700 hc        1 UQ7      0.050200
     92 H28        -1.4330   -1.2980    8.6930 ha        1 UQ7      0.123000
     93 H301       -1.6750    2.3580    7.7120 hc        1 UQ7      0.041367
     94 H302       -3.4220    1.9760    7.9920 hc        1 UQ7      0.041367
     95 H303       -2.4610    2.8100    9.2850 hc        1 UQ7      0.041367
     96 H311       -3.0750    1.0290   10.8880 hc        1 UQ7      0.046200
     97 H312       -2.1490   -0.5220   10.8050 hc        1 UQ7      0.046200
     98 H321        0.0160    0.7580   10.8390 hc        1 UQ7      0.050200
     99 H322       -0.8970    2.3130   10.9130 hc        1 UQ7      0.050200
    100 H33        -1.9590    0.7080   13.0840 ha        1 UQ7      0.123000
    101 H351        1.8470    1.2290   12.4920 hc        1 UQ7      0.041367
    102 H352        1.0650    2.8430   12.2450 hc        1 UQ7      0.041367
    103 H353        1.8730    2.4610   13.8240 hc        1 UQ7      0.041367
    104 H361        0.0830    2.3650   15.4490 hc        1 UQ7      0.045700
    105 H362       -1.2200    1.1260   15.2610 hc        1 UQ7      0.045700
    106 H371        0.5060   -0.6900   15.0990 hc        1 UQ7      0.049700
    107 H372        1.8230    0.5340   15.2480 hc        1 UQ7      0.049700
    108 H38         0.0600    0.9950   17.5190 ha        1 UQ7      0.122000
    109 H401        2.2050   -0.6380   19.6910 hc        1 UQ7      0.040533
    110 H402        0.5250    0.0420   19.6210 hc        1 UQ7      0.040533
    111 H403        0.7830   -1.7520   19.5520 hc        1 UQ7      0.040533
    112 H411        1.4920   -2.4600   16.5210 hc        1 UQ7      0.040533
    113 H412        2.8920   -1.3160   16.4390 hc        1 UQ7      0.040533
    114 H413        2.6720   -2.3740   17.8970 hc        1 UQ7      0.040533
@<TRIPOS>BOND
     1    1    2 1   
     2    1    6 1   
     3    1   20 2   
     4    2    3 2   
     5    2   21 1   
     6    3    4 1   
     7    3   22 1   
     8    4    5 1   
     9    4   23 2   
    10    5    6 2   
    11    5    9 1   
    12    6   10 1   
    13    7   21 1   
    14    7   49 1   
    15    7   50 1   
    16    7   51 1   
    17    8   22 1   
    18    8   52 1   
    19    8   53 1   
    20    8   54 1   
    21    9   55 1   
    22    9   56 1   
    23    9   57 1   
    24   10   11 1   
    25   10   58 1   
    26   10   59 1   
    27   11   12 2   
    28   11   60 1   
    29   12   13 1   
    30   12   14 1   
    31   13   61 1   
    32   13   62 1   
    33   13   63 1   
    34   14   15 1   
    35   14   64 1   
    36   14   65 1   
    37   15   16 1   
    38   15   66 1   
    39   15   67 1   
    40   16   17 2   
    41   16   68 1   
    42   17   18 1   
    43   17   19 1   
    44   18   69 1   
    45   18   70 1   
    46   18   71 1   
    47   19   24 1   
    48   19   72 1   
    49   19   73 1   
    50   24   25 1   
    51   24   74 1   
    52   24   75 1   
    53   25   26 2   
    54   25   76 1   
    55   26   27 1   
    56   26   28 1   
    57   27   77 1   
    58   27   78 1   
    59   27   79 1   
    60   28   29 1   
    61   28   80 1   
    62   28   81 1   
    63   29   30 1   
    64   29   82 1   
    65   29   83 1   
    66   30   31 2   
    67   30   84 1   
    68   31   32 1   
    69   31   33 1   
    70   32   85 1   
    71   32   86 1   
    72   32   87 1   
    73   33   34 1   
    74   33   88 1   
    75   33   89 1   
    76   34   35 1   
    77   34   90 1   
    78   34   91 1   
    79   35   36 2   
    80   35   92 1   
    81   36   37 1   
    82   36   38 1   
    83   37   93 1   
    84   37   94 1   
    85   37   95 1   
    86   38   39 1   
    87   38   96 1   
    88   38   97 1   
    89   39   40 1   
    90   39   98 1   
    91   39   99 1   
    92   40   41 2   
    93   40  100 1   
    94   41   42 1   
    95   41   43 1   
    96   42  101 1   
    97   42  102 1   
    98   42  103 1   
    99   43   44 1   
   100   43  104 1   
   101   43  105 1   
   102   44   45 1   
   103   44  106 1   
   104   44  107 1   
   105   45   46 2   
   106   45  108 1   
   107   46   47 1   
   108   46   48 1   
   109   47  109 1   
   110   47  110 1   
   111   47  111 1   
   112   48  112 1   
   113   48  113 1   
   114   48  114 1   
@<TRIPOS>SUBSTRUCTURE
     1 UQ7         1 TEMP              0 ****  ****    0 ROOT
