@<TRIPOS>MOLECULE
UR2
   73    69     1     0     0
SMALL
bcc


@<TRIPOS>ATOM
      1 C1          1.0720   -6.1240   -5.6890 c1        1 UR2      0.320000
      2 C10         3.7470   -3.2500   -1.1850 c1        1 UR2      0.307000
      3 C13         0.4210   -2.8930   -0.3730 c1        1 UR2      0.388000
      4 C16         0.0630   -1.1880    1.4080 c3        1 UR2      0.010000
      5 C17         0.4230   -1.6080    2.7950 c3        1 UR2     -0.177000
      6 C18        -0.5580   -2.7190    3.2700 c3        1 UR2     -0.204000
      7 C19        -0.2020   -3.1360    4.7100 c2        1 UR2      0.314000
      8 C2          2.2910   -5.9300   -5.0490 c1        1 UR2     -0.333000
      9 C22         0.2080    0.3370    1.2770 c2        1 UR2      0.309000
     10 C25        -2.3070    0.6640    1.5080 c3        1 UR2     -0.115000
     11 C26        -0.8780    2.5250    0.5220 c3        1 UR2     -0.023000
     12 C27        -1.1970    3.6080    1.6000 c3        1 UR2     -0.234000
     13 C28        -1.1130    5.0650    0.9330 c3        1 UR2     -0.126000
     14 C29        -1.2300    6.1430    2.0290 c3        1 UR2     -0.095000
     15 C3          2.3220   -5.5480   -3.7090 c1        1 UR2     -0.056000
     16 C30        -0.0480    7.0970    1.9110 c3        1 UR2     -0.166500
     17 C31        -0.1750    8.3000    2.8370 c3        1 UR2     -0.146500
     18 C32        -1.5120    9.0090    2.6880 c3        1 UR2     -0.153000
     19 C33        -2.6960    8.0520    2.8060 c3        1 UR2     -0.146500
     20 C34        -2.5690    6.8530    1.8810 c3        1 UR2     -0.166500
     21 C4          1.1300   -5.3590   -3.0100 c1        1 UR2     -0.280000
     22 C5         -0.0860   -5.5530   -3.6490 c1        1 UR2     -0.192000
     23 C6         -0.1160   -5.9360   -4.9910 c1        1 UR2     -0.192000
     24 C7          1.1620   -5.0520   -1.4810 c3        1 UR2      0.060000
     25 C9          2.4230   -2.9230   -1.9140 c2        1 UR2     -0.096000
     26 N15         0.9300   -1.8280    0.4800 n2        1 UR2     -0.332000
     27 N24        -0.9930    1.1830    1.1220 n         1 UR2     -0.308000
     28 N8          1.3340   -3.6210   -1.2730 n3        1 UR2     -0.290000
     29 O11         4.7200   -2.4360   -1.2430 o         1 UR2     -0.596500
     30 O12         3.8370   -4.2960   -0.4730 o         1 UR2     -0.596500
     31 O14        -0.7440   -3.1950   -0.3260 o         1 UR2     -0.489000
     32 O1P        -0.0190   -8.6180   -7.9360 o         1 UR2     -0.866500
     33 O20        -0.9380   -2.7630    5.6780 o         1 UR2     -0.611500
     34 O21         0.8840   -3.7420    4.9410 o         1 UR2     -0.611500
     35 O23         1.3220    0.8520    1.3100 o         1 UR2     -0.386000
     36 O2P         2.2310   -7.9140   -8.6990 o         1 UR2     -0.866500
     37 O3P         1.9030   -8.6950   -6.3750 o         1 UR2     -0.866500
     38 O4P         0.9640   -6.4430   -7.0670 os        1 UR2     -0.611000
     39 P           1.2740   -7.9350   -7.5250 p5        1 UR2      1.573500
     40 H16        -0.8570   -1.4440    1.2200 h1        1 UR2      0.135000
     41 H171        1.3420   -1.9580    2.8040 hc        1 UR2      0.110000
     42 H172        0.3600   -0.8440    3.3920 hc        1 UR2      0.110000
     43 H181       -1.4800   -2.3760    3.2460 hc        1 UR2      0.068000
     44 H182       -0.4820   -3.5060    2.6690 hc        1 UR2      0.068000
     45 H2          3.1160   -6.0610   -5.5330 ha        1 UR2      0.105000
     46 H251       -2.3870    0.6740    2.4890 h1        1 UR2      0.087333
     47 H252       -2.4050   -0.2620    1.1780 h1        1 UR2      0.087333
     48 H253       -3.0130    1.2300    1.1140 h1        1 UR2      0.087333
     49 H261       -1.5130    2.6060   -0.2180 h1        1 UR2      0.068500
     50 H262        0.0380    2.6580    0.1850 h1        1 UR2      0.068500
     51 H271       -2.1080    3.4600    1.9570 hc        1 UR2      0.141500
     52 H272       -0.5360    3.5430    2.3410 hc        1 UR2      0.141500
     53 H281       -0.2570    5.1620    0.4710 hc        1 UR2      0.047500
     54 H282       -1.8520    5.1750    0.2830 hc        1 UR2      0.047500
     55 H29        -1.1980    5.7050    2.9090 hc        1 UR2      0.097000
     56 H3          3.1870   -5.4100   -3.2560 ha        1 UR2      0.086000
     57 H301        0.7680    6.6140    2.1310 hc        1 UR2      0.095750
     58 H302        0.0110    7.4130    0.9920 hc        1 UR2      0.095750
     59 H311        0.5580    8.9450    2.6300 hc        1 UR2      0.065750
     60 H312       -0.0800    8.0010    3.7540 hc        1 UR2      0.065750
     61 H321       -1.5880    9.7030    3.3950 hc        1 UR2      0.051000
     62 H322       -1.5410    9.4390    1.8220 hc        1 UR2      0.051000
     63 H331       -3.5330    8.5470    2.5810 hc        1 UR2      0.065750
     64 H332       -2.7530    7.7410    3.7100 hc        1 UR2      0.065750
     65 H341       -2.6660    7.1550    0.9590 hc        1 UR2      0.095750
     66 H342       -3.2880    6.2190    2.0850 hc        1 UR2      0.095750
     67 H5         -0.9170   -5.4210   -3.1620 ha        1 UR2      0.095000
     68 H6         -0.9820   -6.0730   -5.4460 ha        1 UR2      0.095000
     69 H71         0.3200   -5.3400   -1.0740 h1        1 UR2      0.071500
     70 H72         1.9070   -5.5340   -1.0650 h1        1 UR2      0.071500
     71 H91         2.2600   -1.9620   -1.8750 h4        1 UR2      0.086500
     72 H92         2.4870   -3.2070   -2.8540 h4        1 UR2      0.086500
     73 HN5         1.8040   -1.5780    0.4270 hn        1 UR2      0.247000
@<TRIPOS>BOND
     1    1    8 1   
     2    1   38 1   
     3    2   29 1   
     4    2   30 1   
     5    3   28 1   
     6    3   31 1   
     7    4    5 1   
     8    4    9 1   
     9    4   26 1   
    10    4   40 1   
    11    5    6 1   
    12    5   41 1   
    13    5   42 1   
    14    6    7 1   
    15    6   43 1   
    16    6   44 1   
    17    7   33 1   
    18    7   34 1   
    19    8   45 1   
    20    9   27 1   
    21    9   35 1   
    22   10   27 1   
    23   10   46 1   
    24   10   47 1   
    25   10   48 1   
    26   11   12 1   
    27   11   27 1   
    28   11   49 1   
    29   11   50 1   
    30   12   13 1   
    31   12   51 1   
    32   12   52 1   
    33   13   14 1   
    34   13   53 1   
    35   13   54 1   
    36   14   16 1   
    37   14   20 1   
    38   14   55 1   
    39   15   21 1   
    40   15   56 1   
    41   16   17 1   
    42   16   57 1   
    43   16   58 1   
    44   17   18 1   
    45   17   59 1   
    46   17   60 1   
    47   18   19 1   
    48   18   61 1   
    49   18   62 1   
    50   19   20 1   
    51   19   63 1   
    52   19   64 1   
    53   20   65 1   
    54   20   66 1   
    55   21   24 1   
    56   22   23 1   
    57   22   67 1   
    58   23   68 1   
    59   24   28 1   
    60   24   69 1   
    61   24   70 1   
    62   25   28 1   
    63   25   71 1   
    64   25   72 1   
    65   26   73 1   
    66   32   39 1   
    67   36   39 1   
    68   37   39 1   
    69   38   39 1   
@<TRIPOS>SUBSTRUCTURE
     1 UR2         1 TEMP              0 ****  ****    0 ROOT
