@<TRIPOS>MOLECULE
UR2
   73    73     1     0     0
SMALL
bcc


@<TRIPOS>ATOM
      1 C1          1.0140    0.1480    6.8600 ca        1 UR2      0.320000
      2 C10        -2.2270    2.9040    1.3390 c2        1 UR2      0.305000
      3 C13        -0.9910    0.0040    0.8330 c2        1 UR2      0.401000
      4 C16        -0.6970   -0.1320   -1.6110 c3        1 UR2      0.047000
      5 C17        -1.6110    0.2300   -2.8150 c3        1 UR2     -0.156000
      6 C18        -2.5240   -0.9030   -3.2390 c3        1 UR2     -0.211000
      7 C19        -2.5380   -1.1290   -4.7550 c2        1 UR2      0.325000
      8 C2         -0.0010    1.1380    6.6140 ca        1 UR2     -0.334000
      9 C22         0.7500    0.0680   -2.1540 c2        1 UR2      0.273000
     10 C25         0.6960   -2.2470   -2.9960 c3        1 UR2     -0.120000
     11 C26         2.2880   -0.6430   -3.9000 c3        1 UR2     -0.025000
     12 C27         1.5750   -0.1730   -5.1720 c3        1 UR2     -0.231000
     13 C28         2.4220   -0.4010   -6.4010 c3        1 UR2     -0.132000
     14 C29         1.6870    0.0040   -7.6710 c3        1 UR2     -0.098000
     15 C3         -0.7240    1.1570    5.4390 ca        1 UR2     -0.053000
     16 C30         2.6670    0.1040   -8.8330 c3        1 UR2     -0.164000
     17 C31         1.9650    0.4860  -10.1200 c3        1 UR2     -0.149500
     18 C32         0.8470   -0.4830  -10.4450 c3        1 UR2     -0.153000
     19 C33        -0.1280   -0.5960   -9.2910 c3        1 UR2     -0.149500
     20 C34         0.5700   -0.9750   -8.0020 c3        1 UR2     -0.164000
     21 C4         -0.5140    0.2090    4.4240 ca        1 UR2     -0.275000
     22 C5          0.5060   -0.7350    4.6190 ca        1 UR2     -0.053000
     23 C6          1.2470   -0.7760    5.7810 ca        1 UR2     -0.334000
     24 C7         -1.4320    0.1250    3.2460 c3        1 UR2      0.053000
     25 C9         -1.0000    2.2060    1.9810 c3        1 UR2     -0.101000
     26 N15        -0.9400    0.6310   -0.4250 n         1 UR2     -0.385000
     27 N24         1.4020   -1.0030   -2.8090 n         1 UR2     -0.309000
     28 N8         -0.9910    0.7640    2.0090 n         1 UR2     -0.285000
     29 O11        -3.2480    3.1330    2.0470 o         1 UR2     -0.592000
     30 O12        -2.1250    3.2810    0.1310 o         1 UR2     -0.592000
     31 O14        -0.9970   -1.2640    0.8790 o         1 UR2     -0.494000
     32 O1P         1.6480   -1.1380   10.5510 o         1 UR2     -1.187000
     33 O20        -1.4500   -1.4070   -5.3570 o         1 UR2     -0.613000
     34 O21        -3.6410   -1.0790   -5.3750 o         1 UR2     -0.613000
     35 O23         1.3500    1.1550   -2.0620 o         1 UR2     -0.376000
     36 O2P         3.9030   -0.3390    9.7070 o         1 UR2     -1.187000
     37 O3P         2.1820    1.3420   10.5080 o         1 UR2     -1.187000
     38 O4P         1.6700    0.0930    7.9570 o         1 UR2     -0.615000
     39 P           2.4900   -0.0300   10.0380 p3        1 UR2      2.534000
     40 H16        -0.8440   -1.2210   -1.3410 h1        1 UR2      0.136000
     41 H171       -2.2290    1.1310   -2.5630 hc        1 UR2      0.094500
     42 H172       -0.9650    0.5120   -3.6910 hc        1 UR2      0.094500
     43 H181       -2.2120   -1.8710   -2.7670 hc        1 UR2      0.073000
     44 H182       -3.5690   -0.6900   -2.8980 hc        1 UR2      0.073000
     45 H2         -0.1850    1.8810    7.3990 ha        1 UR2      0.103000
     46 H251       -0.2140   -2.1270   -3.6540 h1        1 UR2      0.088000
     47 H252        1.3870   -2.9920   -3.4730 h1        1 UR2      0.088000
     48 H253        0.3910   -2.6500   -1.9940 h1        1 UR2      0.088000
     49 H261        2.9690    0.1760   -3.5330 h1        1 UR2      0.072500
     50 H262        2.9250   -1.5420   -4.1380 h1        1 UR2      0.072500
     51 H271        0.5870   -0.7100   -5.2840 hc        1 UR2      0.129500
     52 H272        1.3350    0.9180   -5.0690 hc        1 UR2      0.129500
     53 H281        3.3730    0.1890   -6.3200 hc        1 UR2      0.055000
     54 H282        2.7090   -1.4840   -6.4710 hc        1 UR2      0.055000
     55 H29         1.2270    1.0200   -7.5070 hc        1 UR2      0.092000
     56 H3         -1.4990    1.9260    5.2910 ha        1 UR2      0.088000
     57 H301        3.4550    0.8670   -8.5980 hc        1 UR2      0.093000
     58 H302        3.1840   -0.8830   -8.9670 hc        1 UR2      0.093000
     59 H311        1.5420    1.5200  -10.0180 hc        1 UR2      0.068750
     60 H312        2.7050    0.5080  -10.9630 hc        1 UR2      0.068750
     61 H321        0.3100   -0.1410  -11.3680 hc        1 UR2      0.054000
     62 H322        1.2840   -1.4920  -10.6660 hc        1 UR2      0.054000
     63 H331       -0.6570    0.3840   -9.1510 hc        1 UR2      0.068750
     64 H332       -0.9080   -1.3650   -9.5300 hc        1 UR2      0.068750
     65 H341        0.9970   -2.0070   -8.0970 hc        1 UR2      0.093000
     66 H342       -0.1870   -0.9990   -7.1600 hc        1 UR2      0.093000
     67 H5          0.7050   -1.4650    3.8180 ha        1 UR2      0.088000
     68 H6          2.0360   -1.5260    5.9170 ha        1 UR2      0.103000
     69 H71        -2.4200    0.5980    3.5280 h1        1 UR2      0.076000
     70 H72        -1.6160   -0.9670    3.0250 h1        1 UR2      0.076000
     71 H91        -0.9250    2.5590    3.0490 h1        1 UR2      0.084000
     72 H92        -0.0800    2.5540    1.4290 h1        1 UR2      0.084000
     73 HN5        -1.0350    1.6250   -0.5050 hn        1 UR2      0.280000
@<TRIPOS>BOND
     1    1    8 1   
     2    1   23 1   
     3    1   38 1   
     4    2   25 1   
     5    2   29 1   
     6    2   30 1   
     7    3   26 1   
     8    3   28 1   
     9    3   31 1   
    10    4    5 1   
    11    4    9 1   
    12    4   26 1   
    13    4   40 1   
    14    5    6 1   
    15    5   41 1   
    16    5   42 1   
    17    6    7 1   
    18    6   43 1   
    19    6   44 1   
    20    7   33 1   
    21    7   34 1   
    22    8   15 1   
    23    8   45 1   
    24    9   27 1   
    25    9   35 1   
    26   10   27 1   
    27   10   46 1   
    28   10   47 1   
    29   10   48 1   
    30   11   12 1   
    31   11   27 1   
    32   11   49 1   
    33   11   50 1   
    34   12   13 1   
    35   12   51 1   
    36   12   52 1   
    37   13   14 1   
    38   13   53 1   
    39   13   54 1   
    40   14   16 1   
    41   14   20 1   
    42   14   55 1   
    43   15   21 1   
    44   15   56 1   
    45   16   17 1   
    46   16   57 1   
    47   16   58 1   
    48   17   18 1   
    49   17   59 1   
    50   17   60 1   
    51   18   19 1   
    52   18   61 1   
    53   18   62 1   
    54   19   20 1   
    55   19   63 1   
    56   19   64 1   
    57   20   65 1   
    58   20   66 1   
    59   21   22 1   
    60   21   24 1   
    61   22   23 1   
    62   22   67 1   
    63   23   68 1   
    64   24   28 1   
    65   24   69 1   
    66   24   70 1   
    67   25   28 1   
    68   25   71 1   
    69   25   72 1   
    70   26   73 1   
    71   32   39 1   
    72   36   39 1   
    73   37   39 1   
@<TRIPOS>SUBSTRUCTURE
     1 UR2         1 TEMP              0 ****  ****    0 ROOT
