@<TRIPOS>MOLECULE
UR2
   76    77     1     0     0
SMALL
bcc


@<TRIPOS>ATOM
      1 C1          0.0000    0.0000    0.0000 ca        1 UR2      0.252100
      2 C10         4.3970    2.4770    4.9140 c         1 UR2      0.932600
      3 C13         1.4840    2.0150    4.9010 c         1 UR2      0.092100
      4 C16         0.7320    3.9750    6.1360 c3        1 UR2     -0.093500
      5 C17         1.0730    3.7340    7.6080 c3        1 UR2     -0.022400
      6 C18         0.9030    2.2490    7.9350 c3        1 UR2     -0.155400
      7 C19         1.2380    2.0110    9.3840 c         1 UR2      0.986600
      8 C2          1.3880    0.0000    0.0000 ca        1 UR2     -0.136500
      9 C22         0.7730    5.4520    5.8470 c         1 UR2      0.272100
     10 C25        -1.3170    5.6960    7.0760 c3        1 UR2      0.033100
     11 C26        -0.2580    7.6600    5.8690 c3        1 UR2     -0.002200
     12 C27         0.4750    8.4870    6.9290 c3        1 UR2     -0.053400
     13 C28         0.4540    9.9630    6.5290 c3        1 UR2     -0.014400
     14 C29         1.1860   10.7880    7.5890 c3        1 UR2     -0.051700
     15 C3          2.0760    0.0000    1.1970 ca        1 UR2     -0.105500
     16 C30         1.1650   12.2650    7.1890 c3        1 UR2     -0.025900
     17 C31         1.8990   13.0900    8.2480 c3        1 UR2     -0.022400
     18 C32         1.2020   12.9180    9.6000 c3        1 UR2     -0.025400
     19 C33         1.2240   11.4420    9.9990 c3        1 UR2     -0.022400
     20 C34         0.4920   10.6170    8.9400 c3        1 UR2     -0.025900
     21 C4          1.3840   -0.0000    2.3940 ca        1 UR2     -0.203300
     22 C5          0.0020   -0.0060    2.3960 ca        1 UR2     -0.105500
     23 C6         -0.6910   -0.0010    1.2020 ca        1 UR2     -0.136500
     24 C7          2.1380   -0.0020    3.6990 c3        1 UR2      0.101100
     25 C9          3.6020    2.0710    3.6990 c3        1 UR2     -0.132200
     26 N15         1.7080    3.2850    5.2900 ny        1 UR2      0.056200
     27 N24        -0.2380    6.2470    6.2530 nx        1 UR2      0.028800
     28 N8          2.3820    1.3800    4.1220 nx        1 UR2      0.106800
     29 O11         5.5610    3.1280    4.7680 o         1 UR2     -0.801800
     30 O12         3.9850    2.2160    6.0190 o         1 UR2     -0.801800
     31 O14         0.4710    1.4410    5.2520 o         1 UR2     -0.521100
     32 O1P        -1.6950   -2.2150   -0.5220 o         1 UR2     -0.456500
     33 O20         1.1590    0.7740    9.8970 o         1 UR2     -0.880800
     34 O21         1.5780    2.9350   10.0850 o         1 UR2     -0.880800
     35 O23         1.7150    5.9280    5.2510 o         1 UR2     -0.565100
     36 O2P        -1.7160   -1.6150   -2.9740 o         1 UR2     -0.456500
     37 O3P         0.5120   -2.2730   -1.7440 o         1 UR2     -0.456500
     38 O4P        -0.6790    0.0000   -1.1780 os        1 UR2     -0.359500
     39 P          -0.9110   -1.5400   -1.5810 p5        1 UR2      0.821900
     40 H16        -0.2600    3.5940    5.9280 hx        1 UR2      0.086700
     41 H171        0.4090    4.3190    8.2330 hc        1 UR2      0.051700
     42 H172        2.0980    4.0290    7.7950 hc        1 UR2      0.051700
     43 H181       -0.1230    1.9530    7.7480 hc        1 UR2      0.023700
     44 H182        1.5670    1.6630    7.3100 hc        1 UR2      0.023700
     45 H2          2.0940    0.3100   -0.7610 ha        1 UR2      0.123500
     46 H251       -2.1900    6.3320    7.0000 hx        1 UR2      0.062367
     47 H252       -1.5640    4.7000    6.7290 hx        1 UR2      0.062367
     48 H253       -0.9940    5.6480    8.1090 hx        1 UR2      0.062367
     49 H261        0.2340    7.7820    4.9120 hx        1 UR2      0.064700
     50 H262       -1.2840    7.9990    5.7930 hx        1 UR2      0.064700
     51 H271        1.5010    8.1470    7.0050 hc        1 UR2      0.043200
     52 H272       -0.0180    8.3650    7.8860 hc        1 UR2      0.043200
     53 H281        0.9470   10.0850    5.5720 hc        1 UR2      0.020700
     54 H282       -0.5720   10.3020    6.4530 hc        1 UR2      0.020700
     55 H29         2.2130   10.4520    7.6680 hc        1 UR2      0.040700
     56 H3          3.0130   -0.3100    0.7520 ha        1 UR2      0.132500
     57 H301        0.1390   12.6040    7.1160 hc        1 UR2      0.015450
     58 H302        1.6600   12.3860    6.2330 hc        1 UR2      0.015450
     59 H311        1.8820   14.1360    7.9640 hc        1 UR2      0.016950
     60 H312        2.9230   12.7480    8.3250 hc        1 UR2      0.016950
     61 H321        0.1750   13.2550    9.5210 hc        1 UR2      0.013700
     62 H322        1.7220   13.5020   10.3490 hc        1 UR2      0.013700
     63 H331        2.2500   11.1040   10.0730 hc        1 UR2      0.016950
     64 H332        0.7290   11.3200   10.9550 hc        1 UR2      0.016950
     65 H341       -0.5340   10.9580    8.8630 hc        1 UR2      0.015450
     66 H342        0.5090    9.5710    9.2230 hc        1 UR2      0.015450
     67 H5         -0.5370   -0.0520    3.3340 ha        1 UR2      0.132500
     68 H6         -1.7720    0.0580    1.2040 ha        1 UR2      0.123500
     69 H71         3.0850   -0.5120    3.5690 hx        1 UR2      0.079700
     70 H72         1.5530   -0.5130    4.4540 hx        1 UR2      0.079700
     71 H91         3.3380    2.9540    3.1290 hx        1 UR2      0.075700
     72 H92         4.1970    1.4080    3.0830 hx        1 UR2      0.075700
     73 HN5         2.5770    3.2890    5.7860 hn        1 UR2      0.294800
     74 H152        1.8080    3.8310    4.4580 hn        1 UR2      0.294800
     75 H241        0.2780    6.4830    7.0770 hn        1 UR2      0.281800
     76 H81         1.9080    1.7120    3.3050 hn        1 UR2      0.258800
@<TRIPOS>BOND
     1    1    8 ar  
     2    1   23 ar  
     3    1   38 1   
     4    2   25 1   
     5    2   29 1   
     6    2   30 1   
     7    3   26 1   
     8    3   28 1   
     9    3   31 2   
    10    4    5 1   
    11    4    9 1   
    12    4   26 1   
    13    4   40 1   
    14    5    6 1   
    15    5   41 1   
    16    5   42 1   
    17    6    7 1   
    18    6   43 1   
    19    6   44 1   
    20    7   33 1   
    21    7   34 1   
    22    8   15 ar  
    23    8   45 1   
    24    9   27 1   
    25    9   35 2   
    26   10   27 1   
    27   10   46 1   
    28   10   47 1   
    29   10   48 1   
    30   11   12 1   
    31   11   27 1   
    32   11   49 1   
    33   11   50 1   
    34   12   13 1   
    35   12   51 1   
    36   12   52 1   
    37   13   14 1   
    38   13   53 1   
    39   13   54 1   
    40   14   16 1   
    41   14   20 1   
    42   14   55 1   
    43   15   21 ar  
    44   15   56 1   
    45   16   17 1   
    46   16   57 1   
    47   16   58 1   
    48   17   18 1   
    49   17   59 1   
    50   17   60 1   
    51   18   19 1   
    52   18   61 1   
    53   18   62 1   
    54   19   20 1   
    55   19   63 1   
    56   19   64 1   
    57   20   65 1   
    58   20   66 1   
    59   21   22 ar  
    60   21   24 1   
    61   22   23 ar  
    62   22   67 1   
    63   23   68 1   
    64   24   28 1   
    65   24   69 1   
    66   24   70 1   
    67   25   28 1   
    68   25   71 1   
    69   25   72 1   
    70   26   73 1   
    71   26   74 1   
    72   27   75 1   
    73   28   76 1   
    74   32   39 1   
    75   36   39 1   
    76   37   39 1   
    77   38   39 1   
@<TRIPOS>SUBSTRUCTURE
     1 UR2         1 TEMP              0 ****  ****    0 ROOT
