@<TRIPOS>MOLECULE
UR2
   73    73     1     0     0
SMALL
bcc


@<TRIPOS>ATOM
      1 C1          0.2020   -1.2210   -0.3830 ca        1 UR2      0.320000
      2 C10         4.4650    1.7750    4.2470 c2        1 UR2      0.305000
      3 C13         1.3610    2.3010    4.7760 c2        1 UR2      0.401000
      4 C16         1.2970    4.3620    6.1270 c3        1 UR2      0.047000
      5 C17         2.0960    4.8450    7.3700 c3        1 UR2     -0.156000
      6 C18         1.4830    4.4110    8.6860 c3        1 UR2     -0.211000
      7 C19         1.3980    5.5460    9.7130 c2        1 UR2      0.325000
      8 C2          1.5410   -1.4190    0.1070 ca        1 UR2     -0.334000
      9 C22         0.9150    5.6770    5.3830 c2        1 UR2      0.273000
     10 C25        -1.0960    5.8310    6.7970 c3        1 UR2     -0.120000
     11 C26        -0.2400    7.8000    5.6530 c3        1 UR2     -0.025000
     12 C27         0.5790    8.4770    6.7570 c3        1 UR2     -0.231000
     13 C28         0.1110    9.8910    7.0100 c3        1 UR2     -0.132000
     14 C29         0.8810   10.5390    8.1530 c3        1 UR2     -0.098000
     15 C3          1.9480   -0.9190    1.3260 ca        1 UR2     -0.053000
     16 C30         0.6490   12.0450    8.1500 c3        1 UR2     -0.164000
     17 C31         1.3840   12.7220    9.2880 c3        1 UR2     -0.149500
     18 C32         0.9980   12.1230   10.6250 c3        1 UR2     -0.153000
     19 C33         1.2160   10.6240   10.6340 c3        1 UR2     -0.149500
     20 C34         0.4840    9.9430    9.4960 c3        1 UR2     -0.164000
     21 C4          1.0780   -0.1940    2.1570 ca        1 UR2     -0.275000
     22 C5         -0.2170    0.0580    1.6790 ca        1 UR2     -0.053000
     23 C6         -0.6510   -0.4280    0.4630 ca        1 UR2     -0.334000
     24 C7          1.4730    0.1750    3.5520 c3        1 UR2      0.053000
     25 C9          3.2720    1.8470    3.2580 c3        1 UR2     -0.101000
     26 N15         2.0010    3.4460    5.2830 n         1 UR2     -0.385000
     27 N24        -0.2780    6.3530    5.7310 n         1 UR2     -0.309000
     28 N8          1.9600    1.5350    3.7700 n         1 UR2     -0.285000
     29 O11         5.0450    0.6690    4.4350 o         1 UR2     -0.592000
     30 O12         4.8540    2.8590    4.7800 o         1 UR2     -0.592000
     31 O14         0.2110    2.0020    5.2230 o         1 UR2     -0.494000
     32 O1P        -1.6530   -1.8610   -3.9660 o         1 UR2     -1.187000
     33 O20         0.7380    6.5980    9.4310 o         1 UR2     -0.613000
     34 O21         1.9500    5.3970   10.8440 o         1 UR2     -0.613000
     35 O23         1.6430    6.1790    4.5050 o         1 UR2     -0.376000
     36 O2P         0.5230   -3.1580   -3.8810 o         1 UR2     -1.187000
     37 O3P        -1.5080   -4.0060   -2.6190 o         1 UR2     -1.187000
     38 O4P        -0.2040   -1.7090   -1.4940 o         1 UR2     -0.615000
     39 P          -0.8130   -2.8860   -3.2990 p3        1 UR2      2.534000
     40 H16         0.3520    3.8410    6.4680 h1        1 UR2      0.136000
     41 H171        2.1480    5.9690    7.3550 hc        1 UR2      0.094500
     42 H172        3.1520    4.4710    7.3100 hc        1 UR2      0.094500
     43 H181        0.4410    4.0250    8.5380 hc        1 UR2      0.073000
     44 H182        2.0870    3.5760    9.1240 hc        1 UR2      0.073000
     45 H2          2.2320   -1.9910   -0.5250 ha        1 UR2      0.103000
     46 H251       -1.4090    4.7840    6.5420 h1        1 UR2      0.088000
     47 H252       -2.0230    6.4570    6.8880 h1        1 UR2      0.088000
     48 H253       -0.5580    5.8390    7.7910 h1        1 UR2      0.088000
     49 H261       -1.3020    8.1760    5.6910 h1        1 UR2      0.072500
     50 H262        0.1910    8.0800    4.6500 h1        1 UR2      0.072500
     51 H271        1.6590    8.4790    6.4550 hc        1 UR2      0.129500
     52 H272        0.5130    7.8770    7.7130 hc        1 UR2      0.129500
     53 H281        0.2430   10.5050    6.0800 hc        1 UR2      0.055000
     54 H282       -0.9840    9.8920    7.2550 hc        1 UR2      0.055000
     55 H29         1.9800   10.3490    7.9950 hc        1 UR2      0.092000
     56 H3          2.9790   -1.0980    1.6710 ha        1 UR2      0.088000
     57 H301        0.9930   12.4780    7.1750 hc        1 UR2      0.093000
     58 H302       -0.4500   12.2500    8.2400 hc        1 UR2      0.093000
     59 H311        1.1580   13.8200    9.2850 hc        1 UR2      0.068750
     60 H312        2.4900   12.6050    9.1360 hc        1 UR2      0.068750
     61 H321        1.6010   12.6020   11.4400 hc        1 UR2      0.054000
     62 H322       -0.0820   12.3450   10.8330 hc        1 UR2      0.054000
     63 H331        2.3130   10.4050   10.5520 hc        1 UR2      0.068750
     64 H332        0.8620   10.1970   11.6090 hc        1 UR2      0.068750
     65 H341        0.7150    8.8360    9.5120 hc        1 UR2      0.093000
     66 H342       -0.6220   10.0570    9.6410 hc        1 UR2      0.093000
     67 H5         -0.9020    0.6530    2.3040 ha        1 UR2      0.088000
     68 H6         -1.6700   -0.2270    0.1090 ha        1 UR2      0.103000
     69 H71         0.5770    0.0170    4.2210 h1        1 UR2      0.076000
     70 H72         2.2930   -0.5270    3.8890 h1        1 UR2      0.076000
     71 H91         3.4810    1.1260    2.4180 h1        1 UR2      0.084000
     72 H92         3.2450    2.8900    2.8290 h1        1 UR2      0.084000
     73 HN5         2.9470    3.6570    5.0300 hn        1 UR2      0.280000
@<TRIPOS>BOND
     1    1    8 1   
     2    1   23 1   
     3    1   38 1   
     4    2   25 1   
     5    2   29 1   
     6    2   30 1   
     7    3   26 1   
     8    3   28 1   
     9    3   31 1   
    10    4    5 1   
    11    4    9 1   
    12    4   26 1   
    13    4   40 1   
    14    5    6 1   
    15    5   41 1   
    16    5   42 1   
    17    6    7 1   
    18    6   43 1   
    19    6   44 1   
    20    7   33 1   
    21    7   34 1   
    22    8   15 1   
    23    8   45 1   
    24    9   27 1   
    25    9   35 1   
    26   10   27 1   
    27   10   46 1   
    28   10   47 1   
    29   10   48 1   
    30   11   12 1   
    31   11   27 1   
    32   11   49 1   
    33   11   50 1   
    34   12   13 1   
    35   12   51 1   
    36   12   52 1   
    37   13   14 1   
    38   13   53 1   
    39   13   54 1   
    40   14   16 1   
    41   14   20 1   
    42   14   55 1   
    43   15   21 1   
    44   15   56 1   
    45   16   17 1   
    46   16   57 1   
    47   16   58 1   
    48   17   18 1   
    49   17   59 1   
    50   17   60 1   
    51   18   19 1   
    52   18   61 1   
    53   18   62 1   
    54   19   20 1   
    55   19   63 1   
    56   19   64 1   
    57   20   65 1   
    58   20   66 1   
    59   21   22 1   
    60   21   24 1   
    61   22   23 1   
    62   22   67 1   
    63   23   68 1   
    64   24   28 1   
    65   24   69 1   
    66   24   70 1   
    67   25   28 1   
    68   25   71 1   
    69   25   72 1   
    70   26   73 1   
    71   32   39 1   
    72   36   39 1   
    73   37   39 1   
@<TRIPOS>SUBSTRUCTURE
     1 UR2         1 TEMP              0 ****  ****    0 ROOT
