@<TRIPOS>MOLECULE
UR3
   35    36     1     0     0
SMALL
bcc


@<TRIPOS>ATOM
      1 P          -3.7220    1.0150    0.2510 p5        1 UR3      1.313900
      2 OP1        -3.9480   -0.3190   -0.4180 o         1 UR3     -0.920833
      3 OP2        -4.1020    1.0620    1.7030 o         1 UR3     -0.920833
      4 O5'        -1.9550    0.8820    0.3870 os        1 UR3     -0.553200
      5 C5'        -1.5900   -0.2720    1.0130 c3        1 UR3      0.226400
      6 C4'        -1.2710   -1.4090    0.0120 c3        1 UR3      0.020100
      7 O4'        -0.3140   -1.0400   -1.0090 os        1 UR3     -0.390600
      8 C1'         1.0060   -1.3430   -0.5910 c3        1 UR3      0.269500
      9 N1          1.7620   -0.1110   -0.3090 n         1 UR3     -0.371000
     10 C6          1.1370    1.1080   -0.1070 cc        1 UR3      0.089600
     11 C2          3.1700   -0.1690   -0.4290 c         1 UR3      0.793500
     12 O2          3.7640   -1.2200   -0.7690 o         1 UR3     -0.675500
     13 N3          3.9300    0.9950   -0.1550 n         1 UR3     -0.502400
     14 C3U         5.3600    0.8790   -0.2300 c3        1 UR3      0.088300
     15 C4          3.3090    2.2410    0.1190 c         1 UR3      0.721700
     16 O4          4.0330    3.2360    0.3390 o         1 UR3     -0.682500
     17 C5          1.8560    2.2470    0.1130 cd        1 UR3     -0.380200
     18 C2'         0.8890   -2.3330    0.6220 c3        1 UR3      0.091100
     19 O2'         1.6510   -3.4940    0.3980 oh        1 UR3     -0.591800
     20 C3'        -0.6350   -2.6010    0.7380 c3        1 UR3      0.083100
     21 O3'        -0.9300   -3.8570    0.1440 oh        1 UR3     -0.632800
     22 OP3        -3.9040    2.2550   -0.5670 o         1 UR3     -0.920833
     23 H5'        -0.6570   -0.0990    1.6330 h1        1 UR3     -0.005800
     24 H5''       -2.4160   -0.6490    1.6840 h1        1 UR3     -0.005800
     25 H4'        -2.2250   -1.6200   -0.5660 h1        1 UR3      0.183700
     26 H1'         1.5210   -1.8510   -1.4600 h2        1 UR3      0.079700
     27 H6          0.0060    1.1120   -0.1410 h4        1 UR3      0.287000
     28 H3U1        5.6810    0.7360   -1.2970 h1        1 UR3      0.043367
     29 H3U2        5.8300    1.8110    0.1800 h1        1 UR3      0.043367
     30 H3U3        5.7000   -0.0130    0.3610 h1        1 UR3      0.043367
     31 H5          1.3560    3.2070    0.2910 ha        1 UR3      0.182000
     32 H2'         1.2900   -1.8910    1.5710 h1        1 UR3      0.086700
     33 HO2'        1.1590   -4.0480   -0.2240 ho        1 UR3      0.408000
     34 H3'        -0.9580   -2.6740    1.8080 h1        1 UR3      0.083700
     35 HO3'       -1.4290   -3.6810   -0.6640 ho        1 UR3      0.418000
@<TRIPOS>BOND
     1    1    2 1   
     2    1    3 1   
     3    1    4 1   
     4    1   22 1   
     5    4    5 1   
     6    5    6 1   
     7    5   23 1   
     8    5   24 1   
     9    6    7 1   
    10    6   20 1   
    11    6   25 1   
    12    7    8 1   
    13    8    9 1   
    14    8   18 1   
    15    8   26 1   
    16    9   10 1   
    17    9   11 1   
    18   10   17 2   
    19   10   27 1   
    20   11   12 2   
    21   11   13 1   
    22   13   14 1   
    23   13   15 1   
    24   14   28 1   
    25   14   29 1   
    26   14   30 1   
    27   15   16 2   
    28   15   17 1   
    29   17   31 1   
    30   18   19 1   
    31   18   20 1   
    32   18   32 1   
    33   19   33 1   
    34   20   21 1   
    35   20   34 1   
    36   21   35 1   
@<TRIPOS>SUBSTRUCTURE
     1 UR3         1 TEMP              0 ****  ****    0 ROOT
