@<TRIPOS>MOLECULE
URA
   12    12     1     0     0
SMALL
bcc


@<TRIPOS>ATOM
      1 N1          1.0370   -0.0000   -1.2020 n         1 URA     -0.475100
      2 C2         -0.3780    0.0000   -1.1830 c         1 URA      0.803500
      3 O2         -1.0140    0.0010   -2.2580 o         1 URA     -0.636500
      4 N3         -1.0240    0.0010    0.0600 n         1 URA     -0.585500
      5 C4         -0.3210    0.0000    1.2820 c         1 URA      0.714700
      6 O4         -0.9650    0.0010    2.3430 o         1 URA     -0.605500
      7 C5          1.1450   -0.0000    1.1890 cc        1 URA     -0.319200
      8 C6          1.7580   -0.0000   -0.0240 cd        1 URA      0.050600
      9 HN1         1.4840   -0.0000   -2.0890 hn        1 URA      0.354500
     10 HN3        -2.0210    0.0010    0.0580 hn        1 URA      0.353500
     11 H5          1.6990   -0.0000    2.1350 ha        1 URA      0.180000
     12 H6          2.8580   -0.0010   -0.1370 h4        1 URA      0.163000
@<TRIPOS>BOND
     1    1    2 1   
     2    1    8 1   
     3    1    9 1   
     4    2    3 2   
     5    2    4 1   
     6    4    5 1   
     7    4   10 1   
     8    5    6 2   
     9    5    7 1   
    10    7    8 2   
    11    7   11 1   
    12    8   12 1   
@<TRIPOS>SUBSTRUCTURE
     1 URA         1 TEMP              0 ****  ****    0 ROOT
