@<TRIPOS>MOLECULE
URA
   12    12     1     0     0
SMALL
bcc


@<TRIPOS>ATOM
      1 N1         -0.0430   -0.0000   -0.0190 n         1 URA     -0.475100
      2 C2          1.3720   -0.0020   -0.0510 c         1 URA      0.803500
      3 O2          1.9690   -0.0080   -1.1480 o         1 URA     -0.636500
      4 N3          2.0620    0.0020    1.1690 n         1 URA     -0.585500
      5 C4          1.4030    0.0090    2.4140 c         1 URA      0.714700
      6 O4          2.0850    0.0130    3.4510 o         1 URA     -0.605500
      7 C5         -0.0660    0.0100    2.3740 cc        1 URA     -0.319200
      8 C6         -0.7210    0.0060    1.1830 cd        1 URA      0.050600
      9 HN1        -0.5210   -0.0040   -0.8900 hn        1 URA      0.354500
     10 HN3         3.0580    0.0010    1.1310 hn        1 URA      0.353500
     11 H5         -0.5850    0.0150    3.3390 ha        1 URA      0.180000
     12 H6         -1.8250    0.0070    1.1100 h4        1 URA      0.163000
@<TRIPOS>BOND
     1    1    2 1   
     2    1    8 1   
     3    1    9 1   
     4    2    3 2   
     5    2    4 1   
     6    4    5 1   
     7    4   10 1   
     8    5    6 2   
     9    5    7 1   
    10    7    8 2   
    11    7   11 1   
    12    8   12 1   
@<TRIPOS>SUBSTRUCTURE
     1 URA         1 TEMP              0 ****  ****    0 ROOT
