@<TRIPOS>MOLECULE
URB
   12    12     1     0     0
SMALL
bcc


@<TRIPOS>ATOM
      1 O4          0.0010   -2.2180   -0.0010 o         1 URB     -0.581500
      2 C4         -0.5190   -1.0930   -0.0010 c         1 URB      0.729700
      3 C5          0.1960    0.1980    0.0000 cc        1 URB     -0.247500
      4 BR          2.0510    0.2280    0.0010 br        1 URB     -0.003700
      5 C6         -0.5150    1.3670    0.0010 cd        1 URB      0.081600
      6 N1         -1.8890    1.3890   -0.0000 n         1 URB     -0.466100
      7 C2         -2.6360    0.1840   -0.0010 c         1 URB      0.803500
      8 O2         -3.8830    0.2270   -0.0020 o         1 URB     -0.626500
      9 N3         -1.9270   -1.0210   -0.0010 n         1 URB     -0.583500
     10 H6         -0.0230    2.3610    0.0010 h4        1 URB      0.175000
     11 HN1        -2.3980    2.2440    0.0000 hn        1 URB      0.359500
     12 HN3        -2.4600   -1.8660   -0.0020 hn        1 URB      0.358500
@<TRIPOS>BOND
     1    1    2 2   
     2    2    3 1   
     3    2    9 1   
     4    3    4 1   
     5    3    5 2   
     6    5    6 1   
     7    5   10 1   
     8    6    7 1   
     9    6   11 1   
    10    7    8 2   
    11    7    9 1   
    12    9   12 1   
@<TRIPOS>SUBSTRUCTURE
     1 URB         1 TEMP              0 ****  ****    0 ROOT
