@<TRIPOS>MOLECULE
URB
   12    12     1     0     0
SMALL
bcc


@<TRIPOS>ATOM
      1 O4         -0.1070   -0.0020   -0.0640 o         1 URB     -0.581500
      2 C4          1.1290   -0.0010    0.0240 c         1 URB      0.729700
      3 C5          1.9150   -0.0010    1.2740 cc        1 URB     -0.247500
      4 BR          1.0450   -0.0020    2.9120 br        1 URB     -0.003700
      5 C6          3.2820    0.0000    1.2150 cd        1 URB      0.081600
      6 N1          3.9640    0.0010    0.0230 n         1 URB     -0.466100
      7 C2          3.2700    0.0010   -1.2130 c         1 URB      0.803500
      8 O2          3.9090    0.0010   -2.2840 o         1 URB     -0.626500
      9 N3          1.8720   -0.0010   -1.1750 n         1 URB     -0.583500
     10 H6          3.9140    0.0000    2.1260 h4        1 URB      0.175000
     11 HN1         4.9580    0.0020   -0.0100 hn        1 URB      0.359500
     12 HN3         1.3900   -0.0010   -2.0490 hn        1 URB      0.358500
@<TRIPOS>BOND
     1    1    2 2   
     2    2    3 1   
     3    2    9 1   
     4    3    4 1   
     5    3    5 2   
     6    5    6 1   
     7    5   10 1   
     8    6    7 1   
     9    6   11 1   
    10    7    8 2   
    11    7    9 1   
    12    9   12 1   
@<TRIPOS>SUBSTRUCTURE
     1 URB         1 TEMP              0 ****  ****    0 ROOT
