@<TRIPOS>MOLECULE
URC
   16    17     1     0     0
SMALL
bcc


@<TRIPOS>ATOM
      1 N1          0.6980    0.0080   -2.0380 n         1 URC     -0.582500
      2 C2         -0.7020    0.0140   -2.1260 c         1 URC      0.818500
      3 C6          1.4220   -0.0240   -0.8270 c         1 URC      0.757700
      4 N3         -1.4800    0.0370   -0.9390 n         1 URC     -0.456100
      5 O11        -1.2890    0.0180   -3.2260 o         1 URC     -0.622500
      6 C4         -0.8250   -0.0280    0.2750 cc        1 URC      0.159200
      7 C5          0.5850   -0.0540    0.3610 cd        1 URC     -0.244600
      8 N9         -1.3550   -0.0840    1.5760 n         1 URC     -0.459100
      9 O13         2.6620   -0.0100   -0.8490 o         1 URC     -0.597500
     10 N7          0.9670   -0.1710    1.7190 n         1 URC     -0.369100
     11 C8         -0.2330   -0.0500    2.4860 c         1 URC      0.768500
     12 O24        -0.3430   -0.0330    3.7200 o         1 URC     -0.598500
     13 HN1         1.2000    0.0110   -2.9020 hn        1 URC      0.362500
     14 HN3        -2.4680   -0.0350   -1.0220 hn        1 URC      0.361500
     15 HN9        -2.2730    0.1720    1.8370 hn        1 URC      0.354500
     16 HN7         1.8150    0.2350    2.0400 hn        1 URC      0.348500
@<TRIPOS>BOND
     1    1    2 1   
     2    1    3 1   
     3    1   13 1   
     4    2    4 1   
     5    2    5 2   
     6    3    7 1   
     7    3    9 2   
     8    4    6 1   
     9    4   14 1   
    10    6    7 2   
    11    6    8 1   
    12    7   10 1   
    13    8   11 1   
    14    8   15 1   
    15   10   11 1   
    16   10   16 1   
    17   11   12 2   
@<TRIPOS>SUBSTRUCTURE
     1 URC         1 TEMP              0 ****  ****    0 ROOT
