@<TRIPOS>MOLECULE
URC
   16    17     1     0     0
SMALL
bcc


@<TRIPOS>ATOM
      1 N1         -0.0310   -0.0080   -0.0100 n         1 URC     -0.582500
      2 C2          1.3710   -0.0150   -0.0470 c         1 URC      0.818500
      3 C6         -0.7970    0.0300    1.1740 c         1 URC      0.757700
      4 N3          2.1070   -0.0320    1.1670 n         1 URC     -0.456100
      5 O11         1.9980   -0.0240   -1.1260 o         1 URC     -0.622500
      6 C4          1.4090    0.0380    2.3570 cc        1 URC      0.159200
      7 C5         -0.0040    0.0650    2.3910 cd        1 URC     -0.244600
      8 N9          1.8920    0.1010    3.6750 n         1 URC     -0.459100
      9 O13        -2.0350    0.0170    1.1080 o         1 URC     -0.597500
     10 N7         -0.4340    0.1890    3.7340 n         1 URC     -0.369100
     11 C8          0.7380    0.0710    4.5440 c         1 URC      0.768500
     12 O24         0.8040    0.0610    5.7810 o         1 URC     -0.598500
     13 HN1        -0.5010   -0.0150   -0.8910 hn        1 URC      0.362500
     14 HN3         3.0980    0.0390    1.1190 hn        1 URC      0.361500
     15 HN9         2.7990   -0.1540    3.9700 hn        1 URC      0.354500
     16 HN7        -1.2930   -0.2150    4.0260 hn        1 URC      0.348500
@<TRIPOS>BOND
     1    1    2 1   
     2    1    3 1   
     3    1   13 1   
     4    2    4 1   
     5    2    5 2   
     6    3    7 1   
     7    3    9 2   
     8    4    6 1   
     9    4   14 1   
    10    6    7 2   
    11    6    8 1   
    12    7   10 1   
    13    8   11 1   
    14    8   15 1   
    15   10   11 1   
    16   10   16 1   
    17   11   12 2   
@<TRIPOS>SUBSTRUCTURE
     1 URC         1 TEMP              0 ****  ****    0 ROOT
