@<TRIPOS>MOLECULE
URC
   16    10     1     0     0
SMALL
bcc


@<TRIPOS>ATOM
      1 N1         -0.6810    0.0010   -2.0550 n2        1 URC     -0.331000
      2 C2          0.6850    0.0010   -2.0550 c1        1 URC      0.402500
      3 C6         -1.3540    0.0010   -0.8920 c1        1 URC      0.402500
      4 N3          1.3680    0.0010   -0.8740 n2        1 URC     -0.331000
      5 O11         1.2910    0.0010   -3.1080 o         1 URC     -0.334500
      6 C4          0.6880    0.0010    0.3080 c1        1 URC     -0.037000
      7 C5         -0.6610    0.0010    0.3090 c1        1 URC     -0.037000
      8 N9          1.1080    0.0010    1.6010 n1        1 URC     -0.258000
      9 O13        -2.5690   -0.0120   -0.8930 o         1 URC     -0.334500
     10 N7         -1.0800    0.0010    1.6030 n1        1 URC     -0.258000
     11 C8          0.0150    0.0010    2.3960 c2        1 URC      0.359000
     12 O24         0.0160    0.0010    3.6110 o         1 URC     -0.323000
     13 HN1        -1.1370    0.0010   -2.8450 hn        1 URC      0.275500
     14 HN3         2.2800    0.0010   -0.8760 hn        1 URC      0.275500
     15 HN9         1.9760    0.0010    1.8830 DU        1 URC      0.265000
     16 HN7        -1.9470    0.0010    1.8860 DU        1 URC      0.265000
@<TRIPOS>BOND
     1    1    3 1   
     2    1   13 1   
     3    2    4 1   
     4    2    5 1   
     5    3    9 1   
     6    4   14 1   
     7    6    7 1   
     8    8   11 1   
     9   10   11 1   
    10   11   12 1   
@<TRIPOS>SUBSTRUCTURE
     1 URC         1 TEMP              0 ****  ****    0 ROOT
