@<TRIPOS>MOLECULE
URD
   30    31     1     0     0
SMALL
bcc


@<TRIPOS>ATOM
      1 O5'         2.6980    2.6080    0.9110 oh        1 URD     -0.588800
      2 C5'         2.4870    1.7850   -0.2140 c3        1 URD      0.121400
      3 C4'         2.5120    0.3070    0.1760 c3        1 URD      0.048100
      4 O4'         1.3880    0.0230    1.0140 os        1 URD     -0.419600
      5 C1'         0.4850   -0.9110    0.3950 c3        1 URD      0.247500
      6 N1         -0.7930   -0.2780    0.1050 n         1 URD     -0.396000
      7 C6         -0.8970    0.6450   -0.9270 c2        1 URD      0.048600
      8 C2         -1.8800   -0.4820    0.9830 c         1 URD      0.714500
      9 O2         -1.7610   -1.2510    1.9500 o         1 URD     -0.598500
     10 C3         -3.1910    0.2140    0.7130 c3        1 URD     -0.261400
     11 C4         -3.2330    1.2030   -0.4190 c         1 URD      0.580300
     12 O4         -4.2640    1.8480   -0.6450 o         1 URD     -0.529100
     13 C5         -2.0190    1.3460   -1.2120 ce        1 URD     -0.332200
     14 C2'         1.2060   -1.5060   -0.8590 c3        1 URD      0.129100
     15 O2'         1.4740   -2.8680   -0.6580 oh        1 URD     -0.562800
     16 C3'         2.4700   -0.6360   -1.0380 c3        1 URD      0.080100
     17 O3'         3.5810   -1.5120   -1.0530 oh        1 URD     -0.585800
     18 HO5'        2.0250    2.3760    1.5650 ho        1 URD      0.418000
     19 H5'         1.5110    2.0430   -0.7050 h1        1 URD      0.048700
     20 H5''        3.3370    2.0170   -0.9090 h1        1 URD      0.048700
     21 H4'         3.4170    0.1020    0.8170 h1        1 URD      0.093700
     22 H1'         0.3110   -1.7160    1.1740 h2        1 URD      0.138700
     23 H6          0.0240    0.7670   -1.5320 h4        1 URD      0.147000
     24 H31        -3.4980    0.7330    1.6640 hc        1 URD      0.117200
     25 H32        -3.9590   -0.5880    0.5170 hc        1 URD      0.117200
     26 H5         -2.0480    2.0520   -2.0540 ha        1 URD      0.168000
     27 H2'         0.5610   -1.4810   -1.7800 h1        1 URD      0.099700
     28 HO2'        2.2320   -2.9480   -0.0620 ho        1 URD      0.427000
     29 H3'         2.4210   -0.0580   -2.0000 h1        1 URD      0.059700
     30 HO3'        4.3690   -0.9680   -1.1760 ho        1 URD      0.419000
@<TRIPOS>BOND
     1    1    2 1   
     2    1   18 1   
     3    2    3 1   
     4    2   19 1   
     5    2   20 1   
     6    3    4 1   
     7    3   16 1   
     8    3   21 1   
     9    4    5 1   
    10    5    6 1   
    11    5   14 1   
    12    5   22 1   
    13    6    7 1   
    14    6    8 1   
    15    7   13 2   
    16    7   23 1   
    17    8    9 2   
    18    8   10 1   
    19   10   11 1   
    20   10   24 1   
    21   10   25 1   
    22   11   12 2   
    23   11   13 1   
    24   13   26 1   
    25   14   15 1   
    26   14   16 1   
    27   14   27 1   
    28   15   28 1   
    29   16   17 1   
    30   16   29 1   
    31   17   30 1   
@<TRIPOS>SUBSTRUCTURE
     1 URD         1 TEMP              0 ****  ****    0 ROOT
