@<TRIPOS>MOLECULE
URD
   30    31     1     0     0
SMALL
bcc


@<TRIPOS>ATOM
      1 O5'        -3.6360   -0.3200   -0.0970 oh        1 URD     -0.612800
      2 C5'        -2.2160   -0.3200   -0.0970 c3        1 URD      0.107400
      3 C4'        -1.7080   -0.3200    1.3400 c3        1 URD      0.104100
      4 O4'        -0.3060   -1.0800    1.4260 os        1 URD     -0.421600
      5 C1'         0.5910   -0.2220    1.0620 c3        1 URD      0.259500
      6 N1          0.8360   -0.3220   -0.3740 n         1 URD     -0.390000
      7 C6          1.1870    0.8700   -1.1370 c2        1 URD      0.060600
      8 C2          1.0880   -1.5620   -0.9500 c         1 URD      0.713500
      9 O2          0.2020   -2.3880   -1.0270 o         1 URD     -0.629500
     10 C3          2.3620   -1.7410   -1.7510 c3        1 URD     -0.262400
     11 C4          2.5020   -0.7290   -2.7810 c         1 URD      0.580300
     12 O4          2.7320   -1.0590   -3.9310 o         1 URD     -0.530100
     13 C5          1.9890    0.6660   -2.4790 ce        1 URD     -0.336200
     14 C2'        -0.0040    1.1510    1.4070 c3        1 URD      0.138100
     15 O2'         0.6260    1.6800    2.4850 oh        1 URD     -0.579800
     16 C3'        -1.4910    0.8880    1.7310 c3        1 URD      0.095100
     17 O3'        -1.7290    1.0050    3.2050 oh        1 URD     -0.601800
     18 HO5'       -3.9320   -0.5070   -0.9120 ho        1 URD      0.411000
     19 H5'        -1.8900    0.4770   -0.5570 h1        1 URD      0.048700
     20 H5''       -1.8900   -1.1170   -0.5570 h1        1 URD      0.048700
     21 H4'        -2.3590   -0.7500    1.9260 h1        1 URD      0.085700
     22 H1'         1.4200   -0.3660    1.5580 h2        1 URD      0.096700
     23 H6          1.1680    1.7470   -0.7090 h4        1 URD      0.160000
     24 H31         3.1190   -1.8580   -1.1460 hc        1 URD      0.114700
     25 H32         2.3650   -2.6050   -2.2050 hc        1 URD      0.114700
     26 H5          2.3670    1.4360   -2.9440 ha        1 URD      0.170000
     27 H2'         0.0720    1.7540    0.6420 h1        1 URD      0.111700
     28 HO2'        0.9610    2.4740    2.2720 ho        1 URD      0.426000
     29 H3'        -2.0610    1.5120    1.2430 h1        1 URD      0.089700
     30 HO3'       -2.3660    1.6040    3.3550 ho        1 URD      0.428000
@<TRIPOS>BOND
     1    1    2 1   
     2    1   18 1   
     3    2    3 1   
     4    2   19 1   
     5    2   20 1   
     6    3    4 1   
     7    3   16 1   
     8    3   21 1   
     9    4    5 1   
    10    5    6 1   
    11    5   14 1   
    12    5   22 1   
    13    6    7 1   
    14    6    8 1   
    15    7   13 2   
    16    7   23 1   
    17    8    9 2   
    18    8   10 1   
    19   10   11 1   
    20   10   24 1   
    21   10   25 1   
    22   11   12 2   
    23   11   13 1   
    24   13   26 1   
    25   14   15 1   
    26   14   16 1   
    27   14   27 1   
    28   15   28 1   
    29   16   17 1   
    30   16   29 1   
    31   17   30 1   
@<TRIPOS>SUBSTRUCTURE
     1 URD         1 TEMP              0 ****  ****    0 ROOT
