@<TRIPOS>MOLECULE
URE
   10     9     1     0     0
SMALL
bcc


@<TRIPOS>ATOM
      1 C           0.0650    0.0000   -0.0000 c         1 URE      0.490100
      2 O           1.2820    0.0000   -0.0000 o         1 URE     -0.217100
      3 N1         -0.6940   -0.0350    1.2830 n4        1 URE     -0.726400
      4 N2         -0.6940    0.0350   -1.2830 n4        1 URE     -0.726400
      5 HN11       -1.2850    0.8070    1.4090 hn        1 URE      0.530133
      6 HN12        0.0060   -0.0560    2.0650 hn        1 URE      0.530133
      7 HN21       -1.2850    0.8830   -1.3630 hn        1 URE      0.530133
      8 HN22        0.0050    0.0560   -2.0650 hn        1 URE      0.530133
      9 H13        -1.2840   -0.8830    1.3630 hn        1 URE      0.530133
     10 H23        -1.2840   -0.8080   -1.4090 hn        1 URE      0.530133
@<TRIPOS>BOND
     1    1    2 2   
     2    1    3 1   
     3    1    4 1   
     4    3    5 1   
     5    3    6 1   
     6    3    9 1   
     7    4    7 1   
     8    4    8 1   
     9    4   10 1   
@<TRIPOS>SUBSTRUCTURE
     1 URE         1 TEMP              0 ****  ****    0 ROOT
