@<TRIPOS>MOLECULE
URE
    8     7     1     0     0
SMALL
bcc


@<TRIPOS>ATOM
      1 C           0.0370    0.0010   -0.0000 c         1 URE      0.726100
      2 O           1.2930    0.0010   -0.0000 o         1 URE     -0.639100
      3 N1         -0.6630   -0.1540    1.2060 n         1 URE     -0.642000
      4 N2         -0.6640    0.1550   -1.2060 n         1 URE     -0.642000
      5 HN11       -0.1020   -0.0350    2.0180 hn        1 URE      0.299000
      6 HN12       -1.5870    0.2000    1.2660 hn        1 URE      0.299000
      7 HN21       -0.1030    0.0350   -2.0180 hn        1 URE      0.299000
      8 HN22       -1.5870   -0.2000   -1.2660 hn        1 URE      0.299000
@<TRIPOS>BOND
     1    1    2 2   
     2    1    3 1   
     3    1    4 1   
     4    3    5 1   
     5    3    6 1   
     6    4    7 1   
     7    4    8 1   
@<TRIPOS>SUBSTRUCTURE
     1 URE         1 TEMP              0 ****  ****    0 ROOT
