@<TRIPOS>MOLECULE
URE
   10     9     1     0     0
SMALL
bcc


@<TRIPOS>ATOM
      1 C           0.0650   -0.0050    0.0000 c         1 URE      0.490100
      2 O           1.2820   -0.0140    0.0010 o         1 URE     -0.217100
      3 N1         -0.6950   -0.0280    1.2830 n4        1 URE     -0.726400
      4 N2         -0.6930    0.0310   -1.2840 n4        1 URE     -0.726400
      5 HN11        0.0040   -0.0530    2.0650 hn        1 URE      0.530133
      6 HN12       -1.2780    0.8210    1.4060 hn        1 URE      0.530133
      7 HN21       -1.2780    0.8820   -1.3670 hn        1 URE      0.530133
      8 HN22        0.0070    0.0450   -2.0650 hn        1 URE      0.530133
      9 H13        -1.2940   -0.8710    1.3660 hn        1 URE      0.530133
     10 H23        -1.2880   -0.8090   -1.4070 hn        1 URE      0.530133
@<TRIPOS>BOND
     1    1    2 2   
     2    1    3 1   
     3    1    4 1   
     4    3    5 1   
     5    3    6 1   
     6    3    9 1   
     7    4    7 1   
     8    4    8 1   
     9    4   10 1   
@<TRIPOS>SUBSTRUCTURE
     1 URE         1 TEMP              0 ****  ****    0 ROOT
