@<TRIPOS>MOLECULE
URE
   10     9     1     0     0
SMALL
bcc


@<TRIPOS>ATOM
      1 C           0.0650   -0.0010    0.0010 c         1 URE      0.490100
      2 O           1.2820   -0.0040    0.0040 o         1 URE     -0.217100
      3 N1         -0.6970   -0.0080    1.2830 nz        1 URE     -0.726400
      4 N2         -0.6910    0.0080   -1.2840 nz        1 URE     -0.726400
      5 HN11       -1.2850    0.8390    1.3910 hn        1 URE      0.530133
      6 HN12        0.0010   -0.0150    2.0670 hn        1 URE      0.530133
      7 HN21       -1.2800    0.8560   -1.3830 hn        1 URE      0.530133
      8 HN22        0.0100    0.0130   -2.0640 hn        1 URE      0.530133
      9 H13        -1.2910   -0.8520    1.3790 hn        1 URE      0.530133
     10 H23        -1.2820   -0.8360   -1.3940 hn        1 URE      0.530133
@<TRIPOS>BOND
     1    1    2 2   
     2    1    3 1   
     3    1    4 1   
     4    3    5 1   
     5    3    6 1   
     6    3    9 1   
     7    4    7 1   
     8    4    8 1   
     9    4   10 1   
@<TRIPOS>SUBSTRUCTURE
     1 URE         1 TEMP              0 ****  ****    0 ROOT
