@<TRIPOS>MOLECULE
URF
   12    12     1     0     0
SMALL
bcc


@<TRIPOS>ATOM
      1 N1         -0.0420   -0.0010   -0.0170 n         1 URF     -0.462100
      2 C2          1.3700   -0.0000   -0.0500 c         1 URF      0.803500
      3 N3          2.0620    0.0020    1.1700 n         1 URF     -0.581500
      4 C4          1.4210    0.0030    2.4190 c         1 URF      0.703700
      5 C5         -0.0650    0.0020    2.3770 cc        1 URF     -0.030700
      6 C6         -0.7300    0.0000    1.1770 cd        1 URF      0.000600
      7 O2          1.9700   -0.0010   -1.1440 o         1 URF     -0.626500
      8 O4          2.0980    0.0050    3.4570 o         1 URF     -0.576500
      9 F5         -0.7220    0.0030    3.5540 f         1 URF     -0.131500
     10 HN1        -0.5230   -0.0020   -0.8880 hn        1 URF      0.361500
     11 HN3         3.0590    0.0030    1.1300 hn        1 URF      0.360500
     12 H6         -1.8340   -0.0010    1.1150 h4        1 URF      0.179000
@<TRIPOS>BOND
     1    1    2 1   
     2    1    6 1   
     3    1   10 1   
     4    2    3 1   
     5    2    7 2   
     6    3    4 1   
     7    3   11 1   
     8    4    5 1   
     9    4    8 2   
    10    5    6 2   
    11    5    9 1   
    12    6   12 1   
@<TRIPOS>SUBSTRUCTURE
     1 URF         1 TEMP              0 ****  ****    0 ROOT
