@<TRIPOS>MOLECULE
URF
   12    12     1     0     0
SMALL
bcc


@<TRIPOS>ATOM
      1 N1          1.2890    0.0010    1.1260 n         1 URF     -0.462100
      2 C2         -0.0300   -0.0000    1.6290 c         1 URF      0.803500
      3 N3         -1.0910   -0.0010    0.7100 n         1 URF     -0.581500
      4 C4         -0.9050   -0.0010   -0.6810 c         1 URF      0.703700
      5 C5          0.5100    0.0000   -1.1380 cc        1 URF     -0.030700
      6 C6          1.5380    0.0010   -0.2290 cd        1 URF      0.000600
      7 O2         -0.2300   -0.0000    2.8610 o         1 URF     -0.626500
      8 O4         -1.8900   -0.0010   -1.4320 o         1 URF     -0.576500
      9 F5          0.7350    0.0000   -2.4670 f         1 URF     -0.131500
     10 HN1         2.0340    0.0010    1.7850 hn        1 URF      0.361500
     11 HN3        -2.0170   -0.0010    1.0820 hn        1 URF      0.360500
     12 H6          2.5990    0.0010   -0.5400 h4        1 URF      0.179000
@<TRIPOS>BOND
     1    1    2 1   
     2    1    6 1   
     3    1   10 1   
     4    2    3 1   
     5    2    7 2   
     6    3    4 1   
     7    3   11 1   
     8    4    5 1   
     9    4    8 2   
    10    5    6 2   
    11    5    9 1   
    12    6   12 1   
@<TRIPOS>SUBSTRUCTURE
     1 URF         1 TEMP              0 ****  ****    0 ROOT
