@<TRIPOS>MOLECULE
URG
   82    75     1     0     0
SMALL
bcc


@<TRIPOS>ATOM
      1 CAA         6.6420   -5.6800   -2.3700 c3        1 URG     -0.073000
      2 NAY         5.8360   -4.5850   -2.8570 n         1 URG     -0.349000
      3 CBI         5.4720   -3.5150   -1.9750 c2        1 URG      0.397000
      4 OAI         6.3200   -2.9600   -1.3250 o         1 URG     -0.473000
      5 NBA         4.0790   -3.2200   -1.7440 n         1 URG     -0.370000
      6 CBG         3.5430   -1.9030   -2.0800 c2        1 URG      0.223000
      7 NAE         3.3160   -1.5860   -3.3360 n1        1 URG     -0.406000
      8 NAZ         3.2660   -0.9530   -1.0380 n3        1 URG     -0.277000
      9 CAU         1.9340   -0.3550   -0.9250 c3        1 URG     -0.114000
     10 CAT         1.4200   -0.5250    0.5090 c3        1 URG     -0.138000
     11 CAV        -0.1190   -0.7040    0.4920 c3        1 URG     -0.195000
     12 CBP        -0.7260    0.0790    1.6170 c3        1 URG     -0.005000
     13 NBC        -0.7080   -0.7130    2.8200 n         1 URG     -0.345000
     14 C           0.3090   -0.4920    3.8100 c2        1 URG      0.284000
     15 O           1.1490    0.3590    3.6310 o         1 URG     -0.377000
     16 CA          0.2420   -1.2260    5.1510 c3        1 URG      0.005000
     17 CB         -0.3680   -2.5900    4.9510 c3        1 URG     -0.229000
     18 N           1.5510   -1.3690    5.6760 n         1 URG     -0.376000
     19 CBE         1.8100   -1.0520    7.0440 c2        1 URG      0.307000
     20 CAB         2.9800   -1.7110    7.7710 c3        1 URG     -0.244000
     21 OAF         1.0840   -0.2880    7.6360 o         1 URG     -0.389000
     22 CBL        -2.1710    0.4430    1.2660 c2        1 URG      0.285000
     23 OAL        -3.0820   -0.2560    1.6570 o         1 URG     -0.367000
     24 NBR        -2.4620    1.6980    0.5420 n         1 URG     -0.294000
     25 CAD        -1.9320    2.9360    1.0200 c3        1 URG     -0.101000
     26 CBQ        -3.4040    1.6960   -0.5370 c3        1 URG     -0.010000
     27 CBK        -2.6780    1.8550   -1.8410 c2        1 URG      0.274000
     28 OAK        -2.0230    2.8470   -2.0480 o         1 URG     -0.416000
     29 NBD        -2.7600    0.8010   -2.8630 n         1 URG     -0.285000
     30 CBO        -1.5370    0.2520   -3.4490 c3        1 URG     -0.051000
     31 CBH        -1.0470    1.1610   -4.5240 c2        1 URG      0.317000
     32 OAN        -0.9720    0.7430   -5.7200 o         1 URG     -0.587500
     33 OAH        -0.6180    2.3010   -4.2320 o         1 URG     -0.587500
     34 CAW        -1.8240   -1.1040   -4.0330 c2        1 URG     -0.187000
     35 CBF        -0.5270   -1.9400   -4.0580 c1        1 URG      0.337000
     36 OAM         0.5950   -1.3620   -4.0860 o         1 URG     -0.624500
     37 OAG        -0.5900   -3.2040   -4.1360 o         1 URG     -0.624500
     38 CAX        -4.4010    2.8610   -0.3560 c3        1 URG     -0.118000
     39 CBM        -4.0140    3.9410   -1.1650 c2        1 URG     -0.075000
     40 CAR        -3.1180    4.8880   -0.6710 c1        1 URG     -0.138000
     41 CAP        -2.8810    6.0590   -1.3840 c1        1 URG     -0.158000
     42 CAO        -3.5340    6.2840   -2.5850 c1        1 URG     -0.147000
     43 CAQ        -4.4270    5.3410   -3.0780 c1        1 URG     -0.123000
     44 CAS        -4.6670    4.1690   -2.3660 c1        1 URG     -0.099000
     45 HAA         6.1510   -6.5230   -2.4790 h1        1 URG      0.066667
     46 HAAA        6.8460   -5.5390   -1.4140 h1        1 URG      0.066667
     47 HAAB        7.4820   -5.7220   -2.8820 h1        1 URG      0.066667
     48 HNAY        5.6070   -4.5460   -3.7400 hn        1 URG      0.274000
     49 HNBA        3.5460   -3.8370   -1.3450 hn        1 URG      0.314000
     50 HNAE        3.4910   -2.1850   -3.9930 DU        1 URG      0.153000
     51 HNAZ        3.9460   -0.6660   -0.4850 hn        1 URG      0.175000
     52 HAU         1.3230   -0.7980   -1.5460 h1        1 URG      0.135000
     53 HAUA        1.9860    0.5980   -1.1410 h1        1 URG      0.135000
     54 HAT         1.6520    0.2740    1.0370 hc        1 URG      0.061500
     55 HATA        1.8340   -1.3130    0.9110 hc        1 URG      0.061500
     56 HAV        -0.3380   -1.6540    0.5990 hc        1 URG      0.147000
     57 HAVA       -0.4770   -0.3800   -0.3620 hc        1 URG      0.147000
     58 HBP        -0.2120    0.8950    1.7590 h1        1 URG      0.135000
     59 HNBC       -1.3660   -1.3360    2.9690 hn        1 URG      0.234000
     60 HA         -0.3070   -0.7110    5.7770 h1        1 URG      0.148000
     61 HB         -1.3360   -2.4980    4.8130 hc        1 URG      0.087000
     62 HBA        -0.1990   -3.1470    5.7500 hc        1 URG      0.087000
     63 HBB         0.0330   -3.0140    4.1680 hc        1 URG      0.087000
     64 HN          2.2440   -1.6120    5.1210 hn        1 URG      0.236000
     65 HAB         2.6970   -2.5860    8.1200 hc        1 URG      0.105667
     66 HABA        3.7280   -1.8340    7.1440 hc        1 URG      0.105667
     67 HABB        3.2670   -1.1400    8.5140 hc        1 URG      0.105667
     68 HAD        -1.4290    2.7800    1.8460 h1        1 URG      0.087333
     69 HADA       -2.6720    3.5610    1.2000 h1        1 URG      0.087333
     70 HADB       -1.3360    3.3210    0.3410 h1        1 URG      0.087333
     71 HBQ        -3.8890    0.8530   -0.5390 h1        1 URG      0.126000
     72 HNBD       -3.5810    0.4620   -3.1100 hn        1 URG      0.218000
     73 HBO        -0.8550    0.1700   -2.7580 h1        1 URG      0.121000
     74 HAW        -2.1620   -1.0010   -4.9450 ha        1 URG      0.086500
     75 HAWA       -2.4910   -1.5570   -3.4900 ha        1 URG      0.086500
     76 HAX        -5.2980    2.5660   -0.6150 hc        1 URG      0.095000
     77 HAXA       -4.4080    3.1440    0.5810 hc        1 URG      0.095000
     78 HAR        -2.6340    4.7160    0.1540 DU        1 URG      0.153000
     79 HAP        -2.2240    6.7080   -1.0560 ha        1 URG      0.105000
     80 HAO        -3.3670    7.1120   -3.0880 DU        1 URG      0.153000
     81 HAQ        -4.8870    5.5010   -3.9230 ha        1 URG      0.138000
     82 HAS        -5.3200    3.5150   -2.7040 DU        1 URG      0.153000
@<TRIPOS>BOND
     1    1    2 1   
     2    1   45 1   
     3    1   46 1   
     4    1   47 1   
     5    2    3 1   
     6    2   48 1   
     7    3    4 1   
     8    3    5 1   
     9    5    6 1   
    10    5   49 1   
    11    6    7 1   
    12    6    8 1   
    13    8    9 1   
    14    8   51 1   
    15    9   10 1   
    16    9   52 1   
    17    9   53 1   
    18   10   11 1   
    19   10   54 1   
    20   10   55 1   
    21   11   12 1   
    22   11   56 1   
    23   11   57 1   
    24   12   13 1   
    25   12   22 1   
    26   12   58 1   
    27   13   14 1   
    28   13   59 1   
    29   14   15 1   
    30   14   16 1   
    31   16   17 1   
    32   16   18 1   
    33   16   60 1   
    34   17   61 1   
    35   17   62 1   
    36   17   63 1   
    37   18   19 1   
    38   18   64 1   
    39   19   20 1   
    40   19   21 1   
    41   20   65 1   
    42   20   66 1   
    43   20   67 1   
    44   22   23 1   
    45   22   24 1   
    46   24   25 1   
    47   24   26 1   
    48   25   68 1   
    49   25   69 1   
    50   25   70 1   
    51   26   27 1   
    52   26   38 1   
    53   26   71 1   
    54   27   28 1   
    55   27   29 1   
    56   29   30 1   
    57   29   72 1   
    58   30   31 1   
    59   30   34 1   
    60   30   73 1   
    61   31   32 1   
    62   31   33 1   
    63   34   74 1   
    64   34   75 1   
    65   35   36 1   
    66   35   37 1   
    67   38   39 1   
    68   38   76 1   
    69   38   77 1   
    70   39   40 1   
    71   39   44 1   
    72   41   42 1   
    73   41   79 1   
    74   43   44 1   
    75   43   81 1   
@<TRIPOS>SUBSTRUCTURE
     1 URG         1 TEMP              0 ****  ****    0 ROOT
