@<TRIPOS>MOLECULE
URG
   82    82     1     0     0
SMALL
bcc


@<TRIPOS>ATOM
      1 CAA         9.7350    1.7150    0.4070 c3        1 URG      0.070300
      2 NAY         8.7920    2.7270    0.0350 n         1 URG     -0.548900
      3 CBI         7.4220    2.3740   -0.0190 c         1 URG      0.745100
      4 OAI         7.0910    1.1650   -0.0430 o         1 URG     -0.631100
      5 NBA         6.4760    3.4170   -0.0350 n         1 URG     -0.475400
      6 CBG         5.1070    3.1690   -0.4450 c2        1 URG      0.655800
      7 NAE         4.6220    4.0000   -1.3340 n2        1 URG     -0.896100
      8 NAZ         4.4220    2.1520    0.2690 nh        1 URG     -0.829200
      9 CAU         3.1490    1.7110   -0.2640 c3        1 URG      0.178800
     10 CAT         2.6330    0.4440    0.4200 c3        1 URG     -0.079400
     11 CAV         1.3060    0.0500   -0.1930 c3        1 URG     -0.092400
     12 CBP         0.6870   -1.1450    0.5400 c3        1 URG      0.021700
     13 NBC         1.2960   -2.4470    0.3280 n         1 URG     -0.504900
     14 C           2.0370   -2.8040   -0.7900 c         1 URG      0.633100
     15 O           2.7910   -2.0300   -1.4110 o         1 URG     -0.611100
     16 CA          1.9540   -4.3030   -1.2110 c3        1 URG      0.012700
     17 CB          0.7110   -4.4290   -2.0950 c3        1 URG     -0.111100
     18 N           3.1610   -4.7320   -1.8790 n         1 URG     -0.541900
     19 CBE         4.0080   -5.6800   -1.3360 c         1 URG      0.653100
     20 CAB         5.3600   -5.8440   -1.9910 c3        1 URG     -0.175100
     21 OAF         3.6620   -6.4130   -0.3850 o         1 URG     -0.622100
     22 CBL        -0.8210   -1.1650    0.1490 c         1 URG      0.626100
     23 OAL        -1.1920   -1.9180   -0.7840 o         1 URG     -0.665100
     24 NBR        -1.7090   -0.4070    0.8780 n         1 URG     -0.397800
     25 CAD        -1.2640    0.4040    1.9860 c3        1 URG      0.032300
     26 CBQ        -2.9620    0.0110    0.2450 c3        1 URG      0.012700
     27 CBK        -2.9010    1.5410   -0.1060 c         1 URG      0.658100
     28 OAK        -1.7760    2.0500   -0.3200 o         1 URG     -0.663100
     29 NBD        -4.0820    2.2150   -0.2750 n         1 URG     -0.491900
     30 CBO        -4.2500    3.5500    0.2820 c3        1 URG     -0.005300
     31 CBH        -3.7350    3.6720    1.7550 c         1 URG      0.902600
     32 OAN        -3.4980    4.8290    2.2000 o         1 URG     -0.863300
     33 OAH        -3.5790    2.6200    2.4530 o         1 URG     -0.863300
     34 CAW        -5.7190    3.9980    0.2690 c3        1 URG     -0.181400
     35 CBF        -6.5850    3.4600   -0.8740 c         1 URG      0.907600
     36 OAM        -6.8740    2.2210   -0.8950 o         1 URG     -0.873800
     37 OAG        -7.0370    4.2720   -1.7340 o         1 URG     -0.873800
     38 CAX        -4.1790   -0.2790    1.1380 c3        1 URG     -0.084100
     39 CBM        -4.2080   -1.6300    1.7560 ca        1 URG     -0.030300
     40 CAR        -4.7040   -1.7740    3.0600 ca        1 URG     -0.129000
     41 CAP        -4.7970   -3.0340    3.6470 ca        1 URG     -0.143500
     42 CAO        -4.3950   -4.1680    2.9420 ca        1 URG     -0.163000
     43 CAQ        -3.8950   -4.0340    1.6480 ca        1 URG     -0.143500
     44 CAS        -3.8010   -2.7750    1.0570 ca        1 URG     -0.129000
     45 HAA         9.4310    0.7300   -0.0380 h1        1 URG      0.042367
     46 HAAA       10.7410    2.0110    0.0050 h1        1 URG      0.042367
     47 HAAB        9.8120    1.5920    1.5220 h1        1 URG      0.042367
     48 HNAY        9.0110    3.6430    0.3590 hn        1 URG      0.288500
     49 HNBA        6.8040    4.3280   -0.2860 hn        1 URG      0.320500
     50 HNAE        3.6570    3.8900   -1.5560 hn        1 URG      0.418400
     51 HNAZ        4.9980    1.4090    0.6150 hn        1 URG      0.427800
     52 HAU         2.4010    2.5410   -0.1040 h1        1 URG      0.052200
     53 HAUA        3.2140    1.5120   -1.3740 h1        1 URG      0.052200
     54 HAT         3.3680   -0.3940    0.2890 hc        1 URG      0.052200
     55 HATA        2.5060    0.6290    1.5190 hc        1 URG      0.052200
     56 HAV         0.5830    0.9120   -0.1330 hc        1 URG      0.091200
     57 HAVA        1.4420   -0.1910   -1.2800 hc        1 URG      0.091200
     58 HBP         0.7840   -0.9720    1.6570 h1        1 URG      0.077700
     59 HNBC        0.6810   -3.1750    0.6400 hn        1 URG      0.294500
     60 HA          1.8170   -4.9530   -0.2940 h1        1 URG      0.094700
     61 HB          0.4970   -5.5030   -2.3070 hc        1 URG      0.058367
     62 HBA        -0.1680   -3.9760   -1.5690 hc        1 URG      0.058367
     63 HBB         0.8510   -3.8910   -3.0630 hc        1 URG      0.058367
     64 HN          3.5490   -4.0650   -2.5100 hn        1 URG      0.318500
     65 HAB         5.9600   -4.9100   -1.8720 hc        1 URG      0.061367
     66 HABA        5.8980   -6.6890   -1.4990 hc        1 URG      0.061367
     67 HABB        5.2470   -6.0670   -3.0790 hc        1 URG      0.061367
     68 HAD        -0.3890    1.0500    1.7060 h1        1 URG      0.066700
     69 HADA       -2.0990    1.0980    2.3140 h1        1 URG      0.066700
     70 HADB       -0.9750   -0.2660    2.8390 h1        1 URG      0.066700
     71 HBQ        -3.0740   -0.5530   -0.7280 h1        1 URG      0.081700
     72 HNBD       -4.9320    1.6780   -0.2510 hn        1 URG      0.330500
     73 HBO        -3.6360    4.2530   -0.3500 h1        1 URG      0.053700
     74 HAW        -6.2000    3.6730    1.2280 hc        1 URG      0.038200
     75 HAWA       -5.7200    5.1170    0.2410 hc        1 URG      0.038200
     76 HAX        -4.2350    0.5250    1.9340 hc        1 URG      0.110700
     77 HAXA       -5.1060   -0.1870    0.5020 hc        1 URG      0.110700
     78 HAR        -5.0190   -0.8780    3.6180 ha        1 URG      0.150500
     79 HAP        -5.1890   -3.1330    4.6690 ha        1 URG      0.110500
     80 HAO        -4.4710   -5.1610    3.4050 ha        1 URG      0.105000
     81 HAQ        -3.5730   -4.9230    1.0890 ha        1 URG      0.110500
     82 HAS        -3.3850   -2.6720    0.0410 ha        1 URG      0.150500
@<TRIPOS>BOND
     1    1    2 1   
     2    1   45 1   
     3    1   46 1   
     4    1   47 1   
     5    2    3 1   
     6    2   48 1   
     7    3    4 2   
     8    3    5 1   
     9    5    6 1   
    10    5   49 1   
    11    6    7 2   
    12    6    8 1   
    13    7   50 1   
    14    8    9 1   
    15    8   51 1   
    16    9   10 1   
    17    9   52 1   
    18    9   53 1   
    19   10   11 1   
    20   10   54 1   
    21   10   55 1   
    22   11   12 1   
    23   11   56 1   
    24   11   57 1   
    25   12   13 1   
    26   12   22 1   
    27   12   58 1   
    28   13   14 1   
    29   13   59 1   
    30   14   15 2   
    31   14   16 1   
    32   16   17 1   
    33   16   18 1   
    34   16   60 1   
    35   17   61 1   
    36   17   62 1   
    37   17   63 1   
    38   18   19 1   
    39   18   64 1   
    40   19   20 1   
    41   19   21 2   
    42   20   65 1   
    43   20   66 1   
    44   20   67 1   
    45   22   23 2   
    46   22   24 1   
    47   24   25 1   
    48   24   26 1   
    49   25   68 1   
    50   25   69 1   
    51   25   70 1   
    52   26   27 1   
    53   26   38 1   
    54   26   71 1   
    55   27   28 2   
    56   27   29 1   
    57   29   30 1   
    58   29   72 1   
    59   30   31 1   
    60   30   34 1   
    61   30   73 1   
    62   31   32 1   
    63   31   33 1   
    64   34   35 1   
    65   34   74 1   
    66   34   75 1   
    67   35   36 1   
    68   35   37 1   
    69   38   39 1   
    70   38   76 1   
    71   38   77 1   
    72   39   40 ar  
    73   39   44 ar  
    74   40   41 ar  
    75   40   78 1   
    76   41   42 ar  
    77   41   79 1   
    78   42   43 ar  
    79   42   80 1   
    80   43   44 ar  
    81   43   81 1   
    82   44   82 1   
@<TRIPOS>SUBSTRUCTURE
     1 URG         1 TEMP              0 ****  ****    0 ROOT
