@<TRIPOS>MOLECULE
URI
   29    30     1     0     0
SMALL
bcc


@<TRIPOS>ATOM
      1 N1         -0.0190    0.2440   -0.2130 n         1 URI     -0.383000
      2 C2          1.3940    0.1500   -0.3780 c         1 URI      0.809500
      3 N3          2.1860   -0.1560    0.7360 n         1 URI     -0.585500
      4 C4          1.6500   -0.4560    2.0030 c         1 URI      0.712700
      5 C5          0.1850   -0.4230    2.0990 cc        1 URI     -0.306200
      6 C6         -0.5710   -0.1150    1.0170 cd        1 URI      0.045600
      7 O2          1.9430    0.3760   -1.4800 o         1 URI     -0.655500
      8 O4          2.4220   -0.7260    2.9360 o         1 URI     -0.598500
      9 C1'        -0.9110    0.3470   -1.3630 c3        1 URI      0.280500
     10 C2'        -0.5390    1.4430   -2.4100 c3        1 URI      0.078100
     11 C3'        -0.5980    0.7250   -3.7780 c3        1 URI      0.136100
     12 C4'        -0.7090   -0.7730   -3.4470 c3        1 URI      0.098100
     13 O2'        -1.5210    2.4580   -2.3950 oh        1 URI     -0.592800
     14 O3'        -1.7290    1.0680   -4.5510 oh        1 URI     -0.586800
     15 O4'        -1.0010   -0.9090   -2.0460 os        1 URI     -0.429600
     16 C5'         0.5790   -1.5310   -3.7640 c3        1 URI      0.109400
     17 O5'         0.4260   -2.9130   -3.5190 oh        1 URI     -0.592800
     18 H3          3.1740   -0.1900    0.5940 hn        1 URI      0.354500
     19 H5         -0.2500   -0.6620    3.0770 ha        1 URI      0.183000
     20 H6         -1.6770   -0.1110    1.0630 h4        1 URI      0.168000
     21 H1'        -1.9520    0.5560   -0.9620 h2        1 URI      0.094700
     22 H2'         0.4850    1.8690   -2.2390 h1        1 URI      0.095700
     23 H3'         0.3350    0.9490   -4.3640 h1        1 URI      0.068700
     24 H4'        -1.5860   -1.2420   -3.9760 h1        1 URI      0.107700
     25 HO2'       -1.2640    3.0920   -1.7140 ho        1 URI      0.418000
     26 HO3'       -1.8530    2.0250   -4.4850 ho        1 URI      0.426000
     27 H5'1        0.8080   -1.4530   -4.8600 h1        1 URI      0.066700
     28 H5'2        1.4320   -1.1170   -3.1600 h1        1 URI      0.066700
     29 HO5'        0.1620   -3.0090   -2.5950 ho        1 URI      0.409000
@<TRIPOS>BOND
     1    1    2 1   
     2    1    6 1   
     3    1    9 1   
     4    2    3 1   
     5    2    7 2   
     6    3    4 1   
     7    3   18 1   
     8    4    5 1   
     9    4    8 2   
    10    5    6 2   
    11    5   19 1   
    12    6   20 1   
    13    9   10 1   
    14    9   15 1   
    15    9   21 1   
    16   10   11 1   
    17   10   13 1   
    18   10   22 1   
    19   11   12 1   
    20   11   14 1   
    21   11   23 1   
    22   12   15 1   
    23   12   16 1   
    24   12   24 1   
    25   13   25 1   
    26   14   26 1   
    27   16   17 1   
    28   16   27 1   
    29   16   28 1   
    30   17   29 1   
@<TRIPOS>SUBSTRUCTURE
     1 URI         1 TEMP              0 ****  ****    0 ROOT
