@<TRIPOS>MOLECULE
URI
   29    30     1     0     0
SMALL
bcc


@<TRIPOS>ATOM
      1 N1         -0.3980    0.3600   -0.8370 n         1 URI     -0.382000
      2 C2          0.3170   -0.8500   -1.0550 c         1 URI      0.812500
      3 N3          0.9380   -1.0540   -2.2940 n         1 URI     -0.584500
      4 C4          0.9410   -0.0890   -3.3210 c         1 URI      0.713700
      5 C5          0.2430    1.1650   -3.0190 cc        1 URI     -0.311200
      6 C6         -0.3650    1.3460   -1.8200 cd        1 URI      0.053600
      7 O2          0.3840   -1.7410   -0.1770 o         1 URI     -0.663500
      8 O4          1.5200   -0.3490   -4.3870 o         1 URI     -0.600500
      9 C1'        -0.9760    0.6850    0.4620 c3        1 URI      0.270500
     10 C2'        -1.7160   -0.4910    1.1780 c3        1 URI      0.139100
     11 C3'        -0.8440   -0.8010    2.4140 c3        1 URI      0.089100
     12 C4'         0.2340    0.2960    2.4630 c3        1 URI      0.061100
     13 O2'        -3.0320   -0.0960    1.4730 oh        1 URI     -0.575800
     14 O3'        -1.6800   -0.7400    3.5550 oh        1 URI     -0.597800
     15 O4'         0.0250    1.1860    1.3570 os        1 URI     -0.429600
     16 C5'         1.6510   -0.2700    2.3880 c3        1 URI      0.114400
     17 O5'         2.6130    0.7530    2.5280 oh        1 URI     -0.593800
     18 H3          1.4070   -1.9240   -2.4280 hn        1 URI      0.354500
     19 H5          0.2420    1.9310   -3.8040 ha        1 URI      0.182000
     20 H6         -0.8860    2.2910   -1.5670 h4        1 URI      0.168000
     21 H1'        -1.6940    1.5480    0.3040 h2        1 URI      0.099700
     22 H2'        -1.8220   -1.3970    0.5210 h1        1 URI      0.119700
     23 H3'        -0.3790   -1.8180    2.3040 h1        1 URI      0.087700
     24 H4'         0.1210    0.9400    3.3800 h1        1 URI      0.089700
     25 HO2'       -3.0270    0.4140    2.2950 ho        1 URI      0.426000
     26 HO3'       -1.1900   -1.1380    4.2840 ho        1 URI      0.420000
     27 H5'1        1.7960   -0.8210    1.4190 h1        1 URI      0.062700
     28 H5'2        1.8340   -0.9620    3.2520 h1        1 URI      0.062700
     29 HO5'        2.4460    1.3970    1.8270 ho        1 URI      0.411000
@<TRIPOS>BOND
     1    1    2 1   
     2    1    6 1   
     3    1    9 1   
     4    2    3 1   
     5    2    7 2   
     6    3    4 1   
     7    3   18 1   
     8    4    5 1   
     9    4    8 2   
    10    5    6 2   
    11    5   19 1   
    12    6   20 1   
    13    9   10 1   
    14    9   15 1   
    15    9   21 1   
    16   10   11 1   
    17   10   13 1   
    18   10   22 1   
    19   11   12 1   
    20   11   14 1   
    21   11   23 1   
    22   12   15 1   
    23   12   16 1   
    24   12   24 1   
    25   13   25 1   
    26   14   26 1   
    27   16   17 1   
    28   16   27 1   
    29   16   28 1   
    30   17   29 1   
@<TRIPOS>SUBSTRUCTURE
     1 URI         1 TEMP              0 ****  ****    0 ROOT
