@<TRIPOS>MOLECULE
URI
   29    30     1     0     0
SMALL
bcc


@<TRIPOS>ATOM
      1 N1         -0.0430    0.1840   -0.1920 n         1 URI     -0.384000
      2 C2          1.3660    0.2100   -0.3910 c         1 URI      0.811500
      3 N3          2.2050   -0.1010    0.6870 n         1 URI     -0.584500
      4 C4          1.7220   -0.4990    1.9480 c         1 URI      0.713700
      5 C5          0.2620   -0.5680    2.0790 cc        1 URI     -0.310200
      6 C6         -0.5410   -0.2540    1.0330 cd        1 URI      0.052600
      7 O2          1.8670    0.5300   -1.4930 o         1 URI     -0.659500
      8 O4          2.5350   -0.7630    2.8480 o         1 URI     -0.599500
      9 C1'        -0.9770    0.3690   -1.2970 c3        1 URI      0.310500
     10 C2'        -0.6240    1.5280   -2.2730 c3        1 URI      0.087100
     11 C3'        -0.3640    0.8510   -3.6390 c3        1 URI      0.096100
     12 C4'        -0.6410   -0.6450   -3.4210 c3        1 URI      0.067100
     13 O2'        -1.7780    2.3490   -2.3240 oh        1 URI     -0.603800
     14 O3'        -1.1760    1.4150   -4.6440 oh        1 URI     -0.586800
     15 O4'        -1.0980   -0.8300   -2.0720 os        1 URI     -0.431600
     16 C5'         0.5990   -1.5080   -3.6530 c3        1 URI      0.115400
     17 O5'         0.2970   -2.8780   -3.5000 oh        1 URI     -0.592800
     18 H3          3.1890   -0.0510    0.5250 hn        1 URI      0.354500
     19 H5         -0.1320   -0.8830    3.0540 ha        1 URI      0.183000
     20 H6         -1.6450   -0.3150    1.1060 h4        1 URI      0.169000
     21 H1'        -2.0040    0.5420   -0.8490 h2        1 URI      0.108700
     22 H2'         0.2640    2.1280   -1.9430 h1        1 URI      0.094700
     23 H3'         0.6920    1.0300   -3.9800 h1        1 URI      0.116700
     24 H4'        -1.4880   -1.0080   -4.0680 h1        1 URI      0.088700
     25 HO2'       -1.5960    3.0400   -2.9770 ho        1 URI      0.428000
     26 HO3'       -2.0990    1.2540   -4.4010 ho        1 URI      0.414000
     27 H5'1        1.4200   -1.2020   -2.9500 h1        1 URI      0.066700
     28 H5'2        0.9420   -1.4010   -4.7170 h1        1 URI      0.066700
     29 HO5'       -0.0570   -2.9930   -2.6080 ho        1 URI      0.409000
@<TRIPOS>BOND
     1    1    2 1   
     2    1    6 1   
     3    1    9 1   
     4    2    3 1   
     5    2    7 2   
     6    3    4 1   
     7    3   18 1   
     8    4    5 1   
     9    4    8 2   
    10    5    6 2   
    11    5   19 1   
    12    6   20 1   
    13    9   10 1   
    14    9   15 1   
    15    9   21 1   
    16   10   11 1   
    17   10   13 1   
    18   10   22 1   
    19   11   12 1   
    20   11   14 1   
    21   11   23 1   
    22   12   15 1   
    23   12   16 1   
    24   12   24 1   
    25   13   25 1   
    26   14   26 1   
    27   16   17 1   
    28   16   27 1   
    29   16   28 1   
    30   17   29 1   
@<TRIPOS>SUBSTRUCTURE
     1 URI         1 TEMP              0 ****  ****    0 ROOT
