@<TRIPOS>MOLECULE
URI
   29    30     1     0     0
SMALL
bcc


@<TRIPOS>ATOM
      1 N1         -0.0020    0.2570   -0.2160 n         1 URI     -0.383000
      2 C2          1.4080    0.1470   -0.3980 c         1 URI      0.809500
      3 N3          2.2110   -0.1550    0.7100 ns        1 URI     -0.585500
      4 C4          1.6880   -0.4380    1.9860 c         1 URI      0.712700
      5 C5          0.2250   -0.3900    2.0990 cc        1 URI     -0.306200
      6 C6         -0.5420   -0.0860    1.0240 cd        1 URI      0.045600
      7 O2          1.9460    0.3580   -1.5080 o         1 URI     -0.655500
      8 O4          2.4690   -0.7070    2.9110 o         1 URI     -0.598500
      9 C1'        -0.9070    0.3570   -1.3570 c3        1 URI      0.280500
     10 C2'        -0.5380    1.4390   -2.4180 c3        1 URI      0.078100
     11 C3'        -0.6200    0.7100   -3.7780 c3        1 URI      0.136100
     12 C4'        -0.7420   -0.7840   -3.4320 c3        1 URI      0.098100
     13 O2'        -1.5100    2.4640   -2.4000 oh        1 URI     -0.592800
     14 O3'        -1.7580    1.0560   -4.5400 oh        1 URI     -0.586800
     15 O4'        -1.0170   -0.9040   -2.0260 os        1 URI     -0.429600
     16 C5'         0.5360   -1.5570   -3.7570 c3        1 URI      0.109400
     17 O5'         0.3730   -2.9350   -3.4970 oh        1 URI     -0.592800
     18 H3          3.1960   -0.2000    0.5560 hn        1 URI      0.354500
     19 H5         -0.2010   -0.6160    3.0850 ha        1 URI      0.183000
     20 H6         -1.6470   -0.0700    1.0840 h4        1 URI      0.168000
     21 H1'        -1.9410    0.5790   -0.9450 h2        1 URI      0.094700
     22 H2'         0.4930    1.8570   -2.2640 h1        1 URI      0.095700
     23 H3'         0.3060    0.9190   -4.3780 h1        1 URI      0.068700
     24 H4'        -1.6290   -1.2500   -3.9450 h1        1 URI      0.107700
     25 HO2'       -1.2380    3.1020   -1.7290 ho        1 URI      0.418000
     26 HO3'       -1.8730    2.0140   -4.4820 ho        1 URI      0.426000
     27 H5'1        1.4000   -1.1450   -3.1680 h1        1 URI      0.066700
     28 H5'2        0.7510   -1.4920   -4.8570 h1        1 URI      0.066700
     29 HO5'        0.1200   -3.0200   -2.5690 ho        1 URI      0.409000
@<TRIPOS>BOND
     1    1    2 1   
     2    1    6 1   
     3    1    9 1   
     4    2    3 1   
     5    2    7 2   
     6    3    4 1   
     7    3   18 1   
     8    4    5 1   
     9    4    8 2   
    10    5    6 2   
    11    5   19 1   
    12    6   20 1   
    13    9   10 1   
    14    9   15 1   
    15    9   21 1   
    16   10   11 1   
    17   10   13 1   
    18   10   22 1   
    19   11   12 1   
    20   11   14 1   
    21   11   23 1   
    22   12   15 1   
    23   12   16 1   
    24   12   24 1   
    25   13   25 1   
    26   14   26 1   
    27   16   17 1   
    28   16   27 1   
    29   16   28 1   
    30   17   29 1   
@<TRIPOS>SUBSTRUCTURE
     1 URI         1 TEMP              0 ****  ****    0 ROOT
