@<TRIPOS>MOLECULE
URN
   18    18     1     0     0
SMALL
bcc


@<TRIPOS>ATOM
      1 O4         -0.0970    0.0020   -0.0230 o         1 URN     -0.515500
      2 C4          1.1380    0.0010    0.0300 c         1 URN      0.741700
      3 N3          1.8430   -0.0000    1.2210 n         1 URN     -0.533500
      4 C5          1.9440    0.0000   -1.2540 cc        1 URN     -0.258200
      5 N5          1.1350    0.0010   -2.4550 n4        1 URN     -0.698400
      6 C6          3.3330   -0.0010   -1.1790 cd        1 URN      0.273600
      7 N6          4.1710   -0.0020   -2.4140 n4        1 URN     -0.769400
      8 N1          3.9680   -0.0020    0.0280 n         1 URN     -0.447100
      9 C2          3.2360   -0.0010    1.2910 c         1 URN      0.821500
     10 O2          3.9130   -0.0020    2.3150 o         1 URN     -0.432500
     11 HN3         1.3330    0.0000    2.0970 hn        1 URN      0.430500
     12 HN51        1.2880    0.8470   -3.0180 hn        1 URN      0.492800
     13 HN52        1.2870   -0.8450   -3.0190 hn        1 URN      0.492800
     14 HN61        3.9770    0.8450   -2.9710 hn        1 URN      0.501800
     15 HN62        3.9750   -0.8480   -2.9720 hn        1 URN      0.501800
     16 HN1         4.9720   -0.0030    0.1300 hn        1 URN      0.402500
     17 H53         0.1250    0.0020   -2.1550 hn        1 URN      0.492800
     18 H63         5.1860   -0.0020   -2.1960 hn        1 URN      0.501800
@<TRIPOS>BOND
     1    1    2 2   
     2    2    3 1   
     3    2    4 1   
     4    3    9 1   
     5    3   11 1   
     6    4    5 1   
     7    4    6 2   
     8    5   12 1   
     9    5   13 1   
    10    5   17 1   
    11    6    7 1   
    12    6    8 1   
    13    7   14 1   
    14    7   15 1   
    15    7   18 1   
    16    8    9 1   
    17    8   16 1   
    18    9   10 2   
@<TRIPOS>SUBSTRUCTURE
     1 URN         1 TEMP              0 ****  ****    0 ROOT
