@<TRIPOS>MOLECULE
URN
   16    16     1     0     0
SMALL
bcc


@<TRIPOS>ATOM
      1 O4         -0.0760    0.0330   -0.0690 o         1 URN     -0.633500
      2 C4          1.1690    0.0300   -0.0890 c         1 URN      0.706700
      3 N3          1.8580    0.0650    1.1350 ns        1 URN     -0.578500
      4 C5          1.9700   -0.0170   -1.3250 cc        1 URN     -0.219200
      5 N5          1.3120   -0.0860   -2.5770 nv        1 URN     -0.760600
      6 C6          3.3690   -0.0090   -1.2500 cd        1 URN      0.334600
      7 N6          4.1750    0.0720   -2.3850 nv        1 URN     -0.832600
      8 N1          3.9910   -0.0180    0.0080 ns        1 URN     -0.489100
      9 C2          3.2510    0.0580    1.2080 c         1 URN      0.816500
     10 O2          3.8640    0.1020    2.2960 o         1 URN     -0.639500
     11 HN3         1.3500    0.1020    1.9920 hn        1 URN      0.356500
     12 HN51        0.8650    0.7930   -2.7700 hn        1 URN      0.364800
     13 HN52        0.6060   -0.8000   -2.5420 hn        1 URN      0.364800
     14 HN61        5.0910   -0.3110   -2.3280 hn        1 URN      0.429800
     15 HN62        3.7040   -0.0880   -3.2490 hn        1 URN      0.429800
     16 HN1         4.9800    0.0650    0.0960 hn        1 URN      0.350500
@<TRIPOS>BOND
     1    1    2 2   
     2    2    3 1   
     3    2    4 1   
     4    3    9 1   
     5    3   11 1   
     6    4    5 1   
     7    4    6 2   
     8    5   12 1   
     9    5   13 1   
    10    6    7 1   
    11    6    8 1   
    12    7   14 1   
    13    7   15 1   
    14    8    9 1   
    15    8   16 1   
    16    9   10 2   
@<TRIPOS>SUBSTRUCTURE
     1 URN         1 TEMP              0 ****  ****    0 ROOT
