@<TRIPOS>MOLECULE
URN
   16    16     1     0     0
SMALL
bcc


@<TRIPOS>ATOM
      1 O4          0.8380   -2.4050    0.1120 o         1 URN     -0.633500
      2 C4          0.3540   -1.2580    0.0710 c         1 URN      0.706700
      3 N3         -1.0440   -1.1230    0.0820 n         1 URN     -0.578500
      4 C5          1.1610   -0.0280    0.0050 cc        1 URN     -0.219200
      5 N5          2.5730   -0.1250   -0.0410 nh        1 URN     -0.760600
      6 C6          0.5270    1.2220   -0.0310 cd        1 URN      0.334600
      7 N6          1.2380    2.4190    0.0300 nh        1 URN     -0.832600
      8 N1         -0.8750    1.2810   -0.0620 n         1 URN     -0.489100
      9 C2         -1.6740    0.1210    0.0320 c         1 URN      0.816500
     10 O2         -2.9170    0.2430    0.0540 o         1 URN     -0.639500
     11 HN3        -1.6250   -1.9330    0.1310 hn        1 URN      0.356500
     12 HN51        2.9170   -0.4340    0.8520 hn        1 URN      0.364800
     13 HN52        2.8370   -0.8030   -0.7340 hn        1 URN      0.364800
     14 HN61        2.2210    2.3330   -0.1130 hn        1 URN      0.429800
     15 HN62        0.8220    3.2240   -0.3800 hn        1 URN      0.429800
     16 HN1        -1.3560    2.1520   -0.0100 hn        1 URN      0.350500
@<TRIPOS>BOND
     1    1    2 2   
     2    2    3 1   
     3    2    4 1   
     4    3    9 1   
     5    3   11 1   
     6    4    5 1   
     7    4    6 2   
     8    5   12 1   
     9    5   13 1   
    10    6    7 1   
    11    6    8 1   
    12    7   14 1   
    13    7   15 1   
    14    8    9 1   
    15    8   16 1   
    16    9   10 2   
@<TRIPOS>SUBSTRUCTURE
     1 URN         1 TEMP              0 ****  ****    0 ROOT
