@<TRIPOS>MOLECULE
URO
   15    15     1     0     0
SMALL
bcc


@<TRIPOS>ATOM
      1 OAA         1.2640   -0.0010    2.9700 o         1 URO     -0.838300
      2 CAI         0.0280   -0.0000    2.7010 c         1 URO      0.886800
      3 OAB        -0.8820    0.0010    3.5810 o         1 URO     -0.838300
      4 CAC        -0.4120    0.0000    1.2520 ce        1 URO     -0.147200
      5 CAD         0.4650   -0.0000    0.2410 cf        1 URO     -0.278800
      6 CAJ         0.1440   -0.0000   -1.1650 cd        1 URO      0.412100
      7 CAF         1.1050   -0.0000   -2.2070 cc        1 URO     -0.297600
      8 NAH         0.3930    0.0000   -3.4070 na        1 URO     -0.337900
      9 CAE        -0.9650    0.0000   -3.0670 cc        1 URO      0.360400
     10 NAG        -1.1440    0.0000   -1.7300 nd        1 URO     -0.664000
     11 HAC        -1.5010    0.0010    1.0950 ha        1 URO      0.115000
     12 HAD         1.5470   -0.0010    0.4670 ha        1 URO      0.139000
     13 HAF         2.1890   -0.0010   -2.1650 h4        1 URO      0.169000
     14 HAH         0.7750    0.0000   -4.3110 hn        1 URO      0.281700
     15 HAE        -1.7610    0.0010   -3.8150 h5        1 URO      0.040100
@<TRIPOS>BOND
     1    1    2 1   
     2    2    3 1   
     3    2    4 1   
     4    4    5 2   
     5    4   11 1   
     6    5    6 1   
     7    5   12 1   
     8    6    7 2   
     9    6   10 1   
    10    7    8 1   
    11    7   13 1   
    12    8    9 1   
    13    8   14 1   
    14    9   10 2   
    15    9   15 1   
@<TRIPOS>SUBSTRUCTURE
     1 URO         1 TEMP              0 ****  ****    0 ROOT
