@<TRIPOS>MOLECULE
URO
   15    15     1     0     0
SMALL
bcc


@<TRIPOS>ATOM
      1 OAA        -0.1240    0.4310    0.0090 o         1 URO     -0.838300
      2 CAI         1.0670    0.0130    0.0910 c         1 URO      0.886800
      3 OAB         1.6340   -0.2830    1.1830 o         1 URO     -0.838300
      4 CAC         1.8810   -0.1500   -1.1760 ce        1 URO     -0.147200
      5 CAD         1.3810    0.1340   -2.3850 cf        1 URO     -0.278800
      6 CAJ         2.0760    0.0110   -3.6440 cd        1 URO      0.412100
      7 CAF         1.5100    0.3230   -4.9040 cc        1 URO     -0.297600
      8 NAH         2.4970    0.0710   -5.8590 na        1 URO     -0.337900
      9 CAE         3.6220   -0.3810   -5.1600 cc        1 URO      0.360400
     10 NAG         3.3990   -0.4270   -3.8310 nd        1 URO     -0.664000
     11 HAC         2.9070   -0.5170   -1.0270 ha        1 URO      0.115000
     12 HAD         0.3410    0.4990   -2.4660 ha        1 URO      0.139000
     13 HAF         0.5200    0.6870   -5.1620 h4        1 URO      0.169000
     14 HAH         2.4120    0.1900   -6.8290 hn        1 URO      0.281700
     15 HAE         4.5540   -0.6560   -5.6580 h5        1 URO      0.040100
@<TRIPOS>BOND
     1    1    2 1   
     2    2    3 1   
     3    2    4 1   
     4    4    5 2   
     5    4   11 1   
     6    5    6 1   
     7    5   12 1   
     8    6    7 2   
     9    6   10 1   
    10    7    8 1   
    11    7   13 1   
    12    8    9 1   
    13    8   14 1   
    14    9   10 2   
    15    9   15 1   
@<TRIPOS>SUBSTRUCTURE
     1 URO         1 TEMP              0 ****  ****    0 ROOT
