@<TRIPOS>MOLECULE
URP
   18    15     1     0     0
SMALL
bcc


@<TRIPOS>ATOM
      1 O2          1.2340   -0.3730    1.0700 o         1 URP     -0.481100
      2 C2          0.7340   -0.1770   -0.0420 c         1 URP      0.648100
      3 N3          1.5690   -0.7250   -1.2000 n4        1 URP     -0.749400
      4 N1         -0.4290    0.4540   -0.3410 n         1 URP     -0.615000
      5 C6          4.3890   -0.1580   -1.8240 c2        1 URP     -0.249000
      6 C5          3.9820    0.8990   -2.5190 c2        1 URP     -0.249000
      7 C4         -0.7610   -0.0850   -4.3930 c1        1 URP      0.924000
      8 O42        -1.3040   -0.0040   -5.4360 o         1 URP     -0.460000
      9 O41        -0.2060   -0.1650   -3.3290 o         1 URP     -0.460000
     10 HN31        1.9160    0.0400   -1.7990 hn        1 URP      0.476467
     11 HN32        2.3820   -1.2160   -0.7990 hn        1 URP      0.476467
     12 HN1        -0.9660    0.8060    0.4250 hn        1 URP      0.372000
     13 H61         4.5710   -1.1390   -2.2890 ha        1 URP      0.129500
     14 H62         4.6570   -0.1000   -0.7580 ha        1 URP      0.129500
     15 H51         3.7860    0.8600   -3.6010 ha        1 URP      0.129500
     16 H52         3.8720    1.8980   -2.0710 ha        1 URP      0.129500
     17 H33         1.0190   -1.3700   -1.7760 hn        1 URP      0.476467
     18 H12        -0.7720    0.5560   -1.2680 hn        1 URP      0.372000
@<TRIPOS>BOND
     1    1    2 2   
     2    2    3 1   
     3    2    4 1   
     4    3   10 1   
     5    3   11 1   
     6    3   17 1   
     7    4   12 1   
     8    4   18 1   
     9    5    6 2   
    10    5   13 1   
    11    5   14 1   
    12    6   15 1   
    13    6   16 1   
    14    7    8 2   
    15    7    9 2   
@<TRIPOS>SUBSTRUCTURE
     1 URP         1 TEMP              0 ****  ****    0 ROOT
