@<TRIPOS>MOLECULE
URP
   18    15     1     0     0
SMALL
bcc


@<TRIPOS>ATOM
      1 O2          1.7300   -0.9240    0.5070 o         1 URP     -0.481100
      2 C2          1.4290   -0.0640   -0.3260 c         1 URP      0.650100
      3 N3          0.6900    1.1380    0.2850 nz        1 URP     -0.747400
      4 N1          1.6610   -0.0490   -1.6590 nt        1 URP     -0.618000
      5 C6          2.6890   -2.4210   -3.6580 c2        1 URP     -0.236000
      6 C5          3.6610   -2.4650   -2.7530 c2        1 URP     -0.236000
      7 C4         -0.0090    3.5270   -2.8240 c1        1 URP      0.925000
      8 O42        -0.3040    4.3550   -3.6080 o         1 URP     -0.460500
      9 O41         0.2920    2.6800   -2.0250 o         1 URP     -0.460500
     10 HN31       -0.2390    1.2430   -0.1340 hn        1 URP      0.473467
     11 HN32        0.5990    0.9660    1.2950 hn        1 URP      0.473467
     12 HN1         2.1460   -0.8410   -2.0560 hn        1 URP      0.376000
     13 H61         2.7560   -1.8130   -4.5710 ha        1 URP      0.123000
     14 H62         1.7780   -3.0320   -3.5810 ha        1 URP      0.123000
     15 H51         4.5930   -1.8910   -2.8540 ha        1 URP      0.123000
     16 H52         3.6160   -3.1100   -1.8640 ha        1 URP      0.123000
     17 H33         1.2130    2.0040    0.1260 hn        1 URP      0.473467
     18 H12         1.3740    0.6960   -2.2510 hn        1 URP      0.376000
@<TRIPOS>BOND
     1    1    2 2   
     2    2    3 1   
     3    2    4 1   
     4    3   10 1   
     5    3   11 1   
     6    3   17 1   
     7    4   12 1   
     8    4   18 1   
     9    5    6 2   
    10    5   13 1   
    11    5   14 1   
    12    6   15 1   
    13    6   16 1   
    14    7    8 2   
    15    7    9 2   
@<TRIPOS>SUBSTRUCTURE
     1 URP         1 TEMP              0 ****  ****    0 ROOT
