@<TRIPOS>MOLECULE
URP
   16    15     1     0     0
SMALL
bcc


@<TRIPOS>ATOM
      1 O2          2.4450    0.7590   -1.1810 o         1 URP     -0.652100
      2 C2          2.3680   -0.1180   -0.2840 c         1 URP      0.713100
      3 N3          3.4640   -1.0080   -0.1440 n         1 URP     -0.651000
      4 N1          1.2890   -0.2130    0.6040 n         1 URP     -0.516900
      5 C6          0.0010    0.3510    0.2400 c3        1 URP      0.066000
      6 C5         -1.0240   -0.6450   -0.2800 c3        1 URP     -0.229400
      7 C4         -2.4590   -0.1670    0.0270 c         1 URP      0.913600
      8 O42        -3.3490   -0.4170   -0.8320 o         1 URP     -0.844300
      9 O41        -2.6750    0.4190    1.1260 o         1 URP     -0.844300
     10 HN31        4.2850   -0.6950   -0.6080 hn        1 URP      0.276000
     11 HN32        3.6230   -1.4040    0.7510 hn        1 URP      0.276000
     12 HN1         1.2080   -1.0810    1.0910 hn        1 URP      0.277500
     13 H61        -0.4080    0.8220    1.1840 h1        1 URP      0.079700
     14 H62         0.1600    1.1640   -0.5230 h1        1 URP      0.079700
     15 H51        -0.9090   -0.7910   -1.3810 hc        1 URP      0.028200
     16 H52        -0.9080   -1.6440    0.2140 hc        1 URP      0.028200
@<TRIPOS>BOND
     1    1    2 2   
     2    2    3 1   
     3    2    4 1   
     4    3   10 1   
     5    3   11 1   
     6    4    5 1   
     7    4   12 1   
     8    5    6 1   
     9    5   13 1   
    10    5   14 1   
    11    6    7 1   
    12    6   15 1   
    13    6   16 1   
    14    7    8 1   
    15    7    9 1   
@<TRIPOS>SUBSTRUCTURE
     1 URP         1 TEMP              0 ****  ****    0 ROOT
