@<TRIPOS>MOLECULE
URQ
   19    17     1     0     0
SMALL
bcc


@<TRIPOS>ATOM
      1 O41        -2.5860    1.1400    1.1540 o         1 URQ     -0.585000
      2 C4         -1.3580    1.1490    1.4240 c1        1 URQ      0.329000
      3 O42        -0.9730    1.0770    2.6330 o         1 URQ     -0.585000
      4 C5         -0.3410    1.2660    0.3130 c2        1 URQ     -0.208000
      5 C7          0.5260    2.4580    0.5530 c3        1 URQ     -0.180000
      6 C6          0.5290   -0.0010    0.2780 c3        1 URQ     -0.043000
      7 N1          0.0510   -0.8840   -0.7560 n         1 URQ     -0.297000
      8 C2          0.4600   -2.2630   -0.7700 c2        1 URQ      0.347000
      9 O2          1.1150   -2.7190    0.1650 o         1 URQ     -0.427000
     10 N3          0.0360   -3.1230   -1.8320 n         1 URQ     -0.402000
     11 H2          1.0370    2.6550   -0.2530 hc        1 URQ      0.060667
     12 H3          1.1420    2.2710    1.2940 hc        1 URQ      0.060667
     13 H4          0.4780   -0.4570    1.1470 h1        1 URQ      0.079000
     14 H5         -0.5610   -2.8240   -2.4480 hn        1 URQ      0.215000
     15 H6          0.3420   -4.0030   -1.8700 hn        1 URQ      0.215000
     16 H7         -0.7990    1.3660   -0.5350 ha        1 URQ      0.076000
     17 H8         -0.0340    3.2280    0.7800 hc        1 URQ      0.060667
     18 H9          1.4650    0.2480    0.0920 h1        1 URQ      0.079000
     19 H10        -0.5290   -0.5830   -1.3680 hn        1 URQ      0.204000
@<TRIPOS>BOND
     1    1    2 1   
     2    2    3 1   
     3    4    5 1   
     4    4    6 1   
     5    4   16 1   
     6    5   11 1   
     7    5   12 1   
     8    5   17 1   
     9    6    7 1   
    10    6   13 1   
    11    6   18 1   
    12    7    8 1   
    13    7   19 1   
    14    8    9 1   
    15    8   10 1   
    16   10   14 1   
    17   10   15 1   
@<TRIPOS>SUBSTRUCTURE
     1 URQ         1 TEMP              0 ****  ****    0 ROOT
