@<TRIPOS>MOLECULE
URQ
   19    18     1     0     0
SMALL
bcc


@<TRIPOS>ATOM
      1 O41         2.4750   -1.2810    0.7890 o         1 URQ     -0.839800
      2 C4          2.4050   -0.1320    0.2670 c         1 URQ      0.918600
      3 O42         3.4010    0.5140   -0.1610 o         1 URQ     -0.839800
      4 C5          1.0120    0.5580    0.1980 c3        1 URQ     -0.217700
      5 C7          0.9280    1.4970   -0.9780 c3        1 URQ     -0.069100
      6 C6         -0.0940   -0.4960    0.1590 c3        1 URQ      0.068000
      7 N1         -1.3770   -0.0580    0.6810 n         1 URQ     -0.515900
      8 C2         -2.4460    0.1760   -0.1930 c         1 URQ      0.714100
      9 O2         -2.5240   -0.3370   -1.3370 o         1 URQ     -0.652100
     10 N3         -3.5320    0.9800    0.2390 n         1 URQ     -0.651000
     11 H2         -0.0110    2.1020   -0.9430 hc        1 URQ      0.022033
     12 H3          1.8090    2.1840   -0.9690 hc        1 URQ      0.022033
     13 H4         -0.2270   -0.8680   -0.8950 h1        1 URQ      0.082700
     14 H5         -3.6980    1.0420    1.2150 hn        1 URQ      0.275000
     15 H6         -4.3520    0.8570   -0.3100 hn        1 URQ      0.275000
     16 H7          0.9410    1.1550    1.1490 hc        1 URQ      0.025700
     17 H8          0.9450    0.9260   -1.9370 hc        1 URQ      0.022033
     18 H9          0.2260   -1.3680    0.8050 h1        1 URQ      0.082700
     19 H10        -1.2900    0.5870    1.4390 hn        1 URQ      0.276500
@<TRIPOS>BOND
     1    1    2 1   
     2    2    3 1   
     3    2    4 1   
     4    4    5 1   
     5    4    6 1   
     6    4   16 1   
     7    5   11 1   
     8    5   12 1   
     9    5   17 1   
    10    6    7 1   
    11    6   13 1   
    12    6   18 1   
    13    7    8 1   
    14    7   19 1   
    15    8    9 2   
    16    8   10 1   
    17   10   14 1   
    18   10   15 1   
@<TRIPOS>SUBSTRUCTURE
     1 URQ         1 TEMP              0 ****  ****    0 ROOT
