@<TRIPOS>MOLECULE
URQ
   21    18     1     0     0
SMALL
bcc


@<TRIPOS>ATOM
      1 O41        -0.3390   -0.1850   -1.2280 o         1 URQ     -0.458500
      2 C4         -0.7110   -0.3660   -0.0990 c1        1 URQ      0.923000
      3 O42        -1.0750   -0.5420    1.0080 o         1 URQ     -0.458500
      4 C5          3.7750   -0.3760   -2.4950 c2        1 URQ     -0.120200
      5 C7          4.7940   -0.8050   -3.4710 c3        1 URQ     -0.096900
      6 C6          2.8630   -1.1890   -1.9550 c2        1 URQ     -0.321000
      7 N1         -0.2150    1.8000   -3.5490 nt        1 URQ     -0.616000
      8 C2          0.2110    0.8770   -4.4470 c         1 URQ      0.647100
      9 O2          0.3440    1.0100   -5.6690 o         1 URQ     -0.485100
     10 N3          0.5990   -0.5040   -3.9280 nz        1 URQ     -0.757400
     11 H2          4.7880   -0.1380   -4.3700 hc        1 URQ      0.065700
     12 H3          5.8100   -0.7320   -3.0000 hc        1 URQ      0.065700
     13 H4          2.8290   -2.2660   -2.1720 ha        1 URQ      0.120500
     14 H5          1.4730   -0.4510   -3.3700 hn        1 URQ      0.477800
     15 H6          0.7560   -1.1070   -4.7450 hn        1 URQ      0.477800
     16 H7          3.8290    0.6890   -2.2030 ha        1 URQ      0.131000
     17 H8          4.6440   -1.8610   -3.8050 hc        1 URQ      0.065700
     18 H9          2.1650   -0.8500   -1.1760 ha        1 URQ      0.120500
     19 H10        -0.4690    2.6990   -3.9040 hn        1 URQ      0.371000
     20 H12        -0.3220    1.6090   -2.5790 hn        1 URQ      0.371000
     21 H33        -0.1390   -0.9040   -3.3400 hn        1 URQ      0.477800
@<TRIPOS>BOND
     1    1    2 2   
     2    2    3 2   
     3    4    5 1   
     4    4    6 2   
     5    4   16 1   
     6    5   11 1   
     7    5   12 1   
     8    5   17 1   
     9    6   13 1   
    10    6   18 1   
    11    7    8 1   
    12    7   19 1   
    13    7   20 1   
    14    8    9 2   
    15    8   10 1   
    16   10   14 1   
    17   10   15 1   
    18   10   21 1   
@<TRIPOS>SUBSTRUCTURE
     1 URQ         1 TEMP              0 ****  ****    0 ROOT
