@<TRIPOS>MOLECULE
URQ
   21    18     1     0     0
SMALL
bcc


@<TRIPOS>ATOM
      1 O41        -0.5850    1.7960   -2.5860 o         1 URQ     -0.460500
      2 C4         -1.2320    2.1070   -1.6210 c1        1 URQ      0.925000
      3 O42        -1.8650    2.4120   -0.6750 o         1 URQ     -0.460500
      4 C5          3.4690   -1.4620   -1.3610 c2        1 URQ     -0.154200
      5 C7          3.7370   -2.6210   -2.2360 c3        1 URQ     -0.093900
      6 C6          2.2590   -1.1250   -0.9130 c2        1 URQ     -0.276000
      7 N1          1.7230    0.0120   -3.5780 n         1 URQ     -0.612000
      8 C2          1.6070    0.4570   -4.8500 c         1 URQ      0.649100
      9 O2          2.2600    0.1390   -5.8480 o         1 URQ     -0.483100
     10 N3          0.5180    1.5000   -5.1460 n4        1 URQ     -0.746400
     11 H2          4.3320   -3.3850   -1.6710 hc        1 URQ      0.057033
     12 H3          4.3400   -2.3120   -3.1260 hc        1 URQ      0.057033
     13 H4          2.1060   -0.2800   -0.2280 ha        1 URQ      0.115500
     14 H5          0.5660    1.7230   -6.1480 hn        1 URQ      0.473467
     15 H6          0.6710    2.3490   -4.5930 hn        1 URQ      0.473467
     16 H7          4.3630   -0.8840   -1.0670 ha        1 URQ      0.137000
     17 H8          2.7960   -3.1100   -2.5900 hc        1 URQ      0.057033
     18 H9          1.3570   -1.7070   -1.1440 ha        1 URQ      0.115500
     19 H10         1.1570    0.3320   -2.8240 hn        1 URQ      0.377000
     20 H12         2.4410   -0.6640   -3.3790 hn        1 URQ      0.377000
     21 H33        -0.4090    1.1310   -4.9150 hn        1 URQ      0.473467
@<TRIPOS>BOND
     1    1    2 2   
     2    2    3 2   
     3    4    5 1   
     4    4    6 2   
     5    4   16 1   
     6    5   11 1   
     7    5   12 1   
     8    5   17 1   
     9    6   13 1   
    10    6   18 1   
    11    7    8 1   
    12    7   19 1   
    13    7   20 1   
    14    8    9 2   
    15    8   10 1   
    16   10   14 1   
    17   10   15 1   
    18   10   21 1   
@<TRIPOS>SUBSTRUCTURE
     1 URQ         1 TEMP              0 ****  ****    0 ROOT
