@<TRIPOS>MOLECULE
URS
   19    19     1     0     0
SMALL
bcc


@<TRIPOS>ATOM
      1 N1          0.0130    0.1180   -0.1500 n         1 URS     -0.351100
      2 N2         -2.3560    0.6700   -0.0720 n4        1 URS     -0.739400
      3 C1          3.6970   -0.1630    0.0580 ca        1 URS     -0.100000
      4 C2          2.3580   -0.0950    0.4210 ca        1 URS     -0.127500
      5 C3          1.3690    0.0890   -0.5770 ca        1 URS     -0.014400
      6 C4          1.7540    0.1990   -1.9250 ca        1 URS     -0.127500
      7 C5          3.1060    0.1280   -2.2630 ca        1 URS     -0.100000
      8 C6          4.0770   -0.0510   -1.2820 ca        1 URS     -0.093000
      9 C7         -1.0070    0.7030   -0.8330 c         1 URS      0.297400
     10 S1         -1.1270    1.3810   -2.2270 s         1 URS     -0.155400
     11 H1N        -0.1300   -0.2480    0.7730 hn        1 URS      0.337500
     12 H2N2       -3.0430    1.1300   -0.6960 hn        1 URS      0.459133
     13 H1N2       -2.6640   -0.2870    0.1200 hn        1 URS      0.459133
     14 H1          4.4630   -0.3050    0.8380 ha        1 URS      0.162500
     15 H2          2.0850   -0.1880    1.4840 ha        1 URS      0.154000
     16 H4          1.0100    0.3420   -2.7270 ha        1 URS      0.154000
     17 H5          3.3980    0.2150   -3.3230 ha        1 URS      0.162500
     18 H6          5.1430   -0.1040   -1.5590 ha        1 URS      0.164000
     19 H23        -2.3080    1.1830    0.8130 hn        1 URS      0.459133
@<TRIPOS>BOND
     1    1    5 1   
     2    1    9 1   
     3    1   11 1   
     4    2    9 1   
     5    2   12 1   
     6    2   13 1   
     7    2   19 1   
     8    3    4 ar  
     9    3    8 ar  
    10    3   14 1   
    11    4    5 ar  
    12    4   15 1   
    13    5    6 ar  
    14    6    7 ar  
    15    6   16 1   
    16    7    8 ar  
    17    7   17 1   
    18    8   18 1   
    19    9   10 2   
@<TRIPOS>SUBSTRUCTURE
     1 URS         1 TEMP              0 ****  ****    0 ROOT
