@<TRIPOS>MOLECULE
URS
   18    18     1     0     0
SMALL
bcc


@<TRIPOS>ATOM
      1 N1         -0.9920    0.3480    0.8160 n         1 URS     -0.424100
      2 N2         -1.0190    0.1150    3.1640 n         1 URS     -0.637000
      3 C1         -0.8670   -0.4410   -2.8000 ca        1 URS     -0.113500
      4 C2         -1.3160   -0.3340   -1.4890 ca        1 URS     -0.146000
      5 C3         -0.4690    0.2000   -0.4880 ca        1 URS      0.046600
      6 C4          0.8290    0.6170   -0.8450 ca        1 URS     -0.146000
      7 C5          1.2590    0.4930   -2.1650 ca        1 URS     -0.113500
      8 C6          0.4200   -0.0310   -3.1450 ca        1 URS     -0.140000
      9 C7         -0.2780    0.1860    1.9980 c         1 URS      0.584400
     10 S1          1.3390    0.0990    2.1150 s         1 URS     -0.574400
     11 H1N        -1.9900    0.2890    0.8530 hn        1 URS      0.305500
     12 H2N2       -0.5050    0.1120    4.0150 hn        1 URS      0.321500
     13 H1N2       -1.9970    0.2610    3.1990 hn        1 URS      0.321500
     14 H1         -1.5360   -0.8570   -3.5690 ha        1 URS      0.135500
     15 H2         -2.3350   -0.6680   -1.2430 ha        1 URS      0.155500
     16 H4          1.5170    1.0200   -0.0790 ha        1 URS      0.155500
     17 H5          2.2780    0.8170   -2.4270 ha        1 URS      0.135500
     18 H6          0.7700   -0.1230   -4.1830 ha        1 URS      0.134000
@<TRIPOS>BOND
     1    1    5 1   
     2    1    9 1   
     3    1   11 1   
     4    2    9 1   
     5    2   12 1   
     6    2   13 1   
     7    3    4 ar  
     8    3    8 ar  
     9    3   14 1   
    10    4    5 ar  
    11    4   15 1   
    12    5    6 ar  
    13    6    7 ar  
    14    6   16 1   
    15    7    8 ar  
    16    7   17 1   
    17    8   18 1   
    18    9   10 2   
@<TRIPOS>SUBSTRUCTURE
     1 URS         1 TEMP              0 ****  ****    0 ROOT
