@<TRIPOS>MOLECULE
URS
   19    19     1     0     0
SMALL
bcc


@<TRIPOS>ATOM
      1 N1          0.0160    0.1260   -0.1430 ns        1 URS     -0.351100
      2 N2         -2.3520    0.6840   -0.0570 nz        1 URS     -0.739400
      3 C1          3.7000   -0.1620    0.0470 ca        1 URS     -0.100000
      4 C2          2.3630   -0.0880    0.4170 ca        1 URS     -0.127500
      5 C3          1.3700    0.0900   -0.5770 ca        1 URS     -0.014400
      6 C4          1.7470    0.1880   -1.9290 ca        1 URS     -0.127500
      7 C5          3.0970    0.1100   -2.2740 ca        1 URS     -0.100000
      8 C6          4.0730   -0.0630   -1.2960 ca        1 URS     -0.093000
      9 C7         -1.0070    0.7060   -0.8260 c         1 URS      0.297400
     10 S1         -1.1340    1.3710   -2.2260 s         1 URS     -0.155400
     11 H1N        -0.1220   -0.2310    0.7840 hn        1 URS      0.337500
     12 H2N2       -3.0410    1.1390   -0.6810 hn        1 URS      0.459133
     13 H1N2       -2.2980    1.2050    0.8230 hn        1 URS      0.459133
     14 H1          4.4700   -0.3000    0.8230 ha        1 URS      0.162500
     15 H2          2.0960   -0.1710    1.4820 ha        1 URS      0.154000
     16 H4          0.9990    0.3250   -2.7280 ha        1 URS      0.154000
     17 H5          3.3830    0.1870   -3.3350 ha        1 URS      0.162500
     18 H6          5.1370   -0.1210   -1.5780 ha        1 URS      0.164000
     19 H23        -2.6600   -0.2710    0.1470 hn        1 URS      0.459133
@<TRIPOS>BOND
     1    1    5 1   
     2    1    9 1   
     3    1   11 1   
     4    2    9 1   
     5    2   12 1   
     6    2   13 1   
     7    2   19 1   
     8    3    4 ar  
     9    3    8 ar  
    10    3   14 1   
    11    4    5 ar  
    12    4   15 1   
    13    5    6 ar  
    14    6    7 ar  
    15    6   16 1   
    16    7    8 ar  
    17    7   17 1   
    18    8   18 1   
    19    9   10 2   
@<TRIPOS>SUBSTRUCTURE
     1 URS         1 TEMP              0 ****  ****    0 ROOT
