@<TRIPOS>MOLECULE
URS
   20    20     1     0     0
SMALL
bcc


@<TRIPOS>ATOM
      1 N1         -0.0540   -0.2150   -0.1630 n4        1 URS     -0.461200
      2 N2         -2.2790    0.8960    0.0610 n4        1 URS     -0.710400
      3 C1          3.6540    0.3600   -0.0340 ca        1 URS     -0.090000
      4 C2          2.3180    0.3250    0.3540 ca        1 URS     -0.091000
      5 C3          1.3480   -0.0800   -0.5850 ca        1 URS     -0.112400
      6 C4          1.7110   -0.4350   -1.9010 ca        1 URS     -0.091000
      7 C5          3.0550   -0.3900   -2.2600 ca        1 URS     -0.090000
      8 C6          4.0260    0.0060   -1.3350 ca        1 URS     -0.027000
      9 C7         -0.8400    1.0530   -0.3790 c         1 URS     -0.072600
     10 S1         -0.3260    2.3400   -0.9500 s         1 URS      0.413600
     11 H1N        -0.0570   -0.4700    0.8390 hn        1 URS      0.476800
     12 H2N2       -2.3580    0.6800    1.0660 hn        1 URS      0.488800
     13 H1N2       -2.7710    0.1630   -0.4690 hn        1 URS      0.488800
     14 H1          4.4250    0.6650    0.6990 ha        1 URS      0.197000
     15 H2          2.0510    0.5940    1.3900 ha        1 URS      0.161000
     16 H4          0.9660   -0.7650   -2.6430 ha        1 URS      0.161000
     17 H5          3.3530   -0.6780   -3.2860 ha        1 URS      0.197000
     18 H6          5.0930    0.0350   -1.6310 ha        1 URS      0.199000
     19 H12        -0.4720   -0.9900   -0.7040 hn        1 URS      0.476800
     20 H23        -2.7610    1.7990   -0.1130 hn        1 URS      0.488800
@<TRIPOS>BOND
     1    1    5 1   
     2    1    9 1   
     3    1   11 1   
     4    1   19 1   
     5    2    9 1   
     6    2   12 1   
     7    2   13 1   
     8    2   20 1   
     9    3    4 ar  
    10    3    8 ar  
    11    3   14 1   
    12    4    5 ar  
    13    4   15 1   
    14    5    6 ar  
    15    6    7 ar  
    16    6   16 1   
    17    7    8 ar  
    18    7   17 1   
    19    8   18 1   
    20    9   10 2   
@<TRIPOS>SUBSTRUCTURE
     1 URS         1 TEMP              0 ****  ****    0 ROOT
