@<TRIPOS>MOLECULE
URT
   31    27     1     0     0
SMALL
bcc


@<TRIPOS>ATOM
      1 C1         -1.2460   -1.3860   -1.7670 c3        1 URT      0.200000
      2 F1         -0.6230   -1.7710    1.6700 f         1 URT     -0.116000
      3 N1          1.4410   -0.3130    0.3350 n2        1 URT     -0.173000
      4 O1          0.4320   -1.2210   -1.6740 os        1 URT     -0.322000
      5 P1         -4.3230    0.5880   -3.1980 p3        1 URT      2.578000
      6 C2         -1.5120   -1.7470   -0.5680 c2        1 URT     -0.096000
      7 N2          2.1610    1.7610    0.4360 n2        1 URT     -0.173000
      8 O2         -2.0290   -0.2520   -2.1710 os        1 URT     -0.279000
      9 C3         -0.4580   -1.4650    0.3900 c2        1 URT     -0.131000
     10 N3          1.9040   -0.8720    2.7200 n1        1 URT     -0.187000
     11 O3         -3.8830    2.0040   -2.9010 o         1 URT     -1.265667
     12 C4          0.7780   -1.4140   -0.1370 c2        1 URT      0.189000
     13 N4          2.8790    0.8950    3.9650 n1        1 URT     -0.277000
     14 C5          1.8280   -0.0670    1.6250 c1        1 URT     -0.082000
     15 N5          3.4470    2.9100    3.1900 n3        1 URT     -0.326000
     16 C6          2.2710    1.2070    1.6930 c1        1 URT     -0.082000
     17 C7          1.6490    0.8190   -0.3920 c1        1 URT      0.023000
     18 C8          2.4300   -0.3930    3.8920 c1        1 URT     -0.024000
     19 O4         -5.2440    0.1100   -2.1040 o         1 URT     -1.265667
     20 C9          2.8060    1.6950    2.8850 c1        1 URT      0.170000
     21 C10        -2.8640   -0.4990   -3.2810 c2        1 URT     -0.593000
     22 H1         -1.4770   -2.0440   -2.4530 h2        1 URT      0.137000
     23 H2         -2.4490   -1.8010   -0.2670 ha        1 URT      0.274000
     24 H4          1.4050   -2.1320    0.1020 h4        1 URT      0.125000
     25 HN5         3.7630    3.0620    4.0390 hn        1 URT      0.201000
     26 HN5A        3.5020    3.5740    2.5530 hn        1 URT      0.201000
     27 H7          1.4970    0.9210   -1.3530 DU        1 URT      0.278000
     28 H8          2.4840   -0.9820    4.6870 ha        1 URT      0.163000
     29 H10        -3.1520   -1.4280   -3.2710 h4        1 URT      0.058500
     30 H10A       -2.3630   -0.3160   -4.1200 h4        1 URT      0.058500
     31 O8         -5.0540    0.5550   -4.5260 o         1 URT     -1.265667
@<TRIPOS>BOND
     1    1    4 1   
     2    1    6 1   
     3    1    8 1   
     4    1   22 1   
     5    2    9 1   
     6    3   14 1   
     7    3   17 1   
     8    4   12 1   
     9    5   11 1   
    10    5   19 1   
    11    5   31 1   
    12    6    9 1   
    13    6   23 1   
    14    7   16 1   
    15    7   17 1   
    16    8   21 1   
    17    9   12 1   
    18   10   18 1   
    19   12   24 1   
    20   13   20 1   
    21   14   16 1   
    22   15   20 1   
    23   15   25 1   
    24   15   26 1   
    25   18   28 1   
    26   21   29 1   
    27   21   30 1   
@<TRIPOS>SUBSTRUCTURE
     1 URT         1 TEMP              0 ****  ****    0 ROOT
