@<TRIPOS>MOLECULE
URT
   31    33     1     0     0
SMALL
bcc


@<TRIPOS>ATOM
      1 C1         -1.4450    0.8330    0.0540 c2        1 URT     -0.098000
      2 F1          1.2920    3.0170   -0.5770 f         1 URT     -0.144000
      3 N1          1.7350   -0.0100    0.0840 na        1 URT     -0.154000
      4 O1         -0.5000    0.2510    0.9330 os        1 URT     -0.221000
      5 P1         -4.9940   -0.3730    0.5950 p5        1 URT      1.981000
      6 C2         -0.9500    1.9550   -0.5660 c2        1 URT     -0.099000
      7 N2          2.5770   -1.4930   -1.4940 n2        1 URT     -0.204000
      8 O2         -2.6010    0.1290   -0.0050 os        1 URT     -0.164000
      9 C3          0.4030    2.1000   -0.1450 c2        1 URT     -0.389000
     10 N3          3.8470    0.2340    1.4530 n2        1 URT     -0.173000
     11 O3         -6.1220    0.5090    0.9840 o         1 URT     -0.872000
     12 C4          0.7460    0.9470    0.7180 c3        1 URT      0.235000
     13 N4          5.7240   -1.0730    0.5370 n2        1 URT     -0.282000
     14 C5          3.0650   -0.2470    0.4340 c2        1 URT      0.026000
     15 C6          3.5870   -1.1860   -0.5790 c2        1 URT     -0.212000
     16 C7          1.5080   -0.7800   -1.0660 c2        1 URT     -0.020000
     17 C8          5.1130   -0.2220    1.4150 c2        1 URT     -0.042000
     18 O4         -4.9250   -0.3830   -1.0460 oh        1 URT     -0.814000
     19 C9          4.9510   -1.5850   -0.4670 c2        1 URT      0.145000
     20 C10        -3.5320    0.4130    1.0440 c3        1 URT     -0.678000
     21 H1         -4.2080   -0.9140   -1.3690 ho        1 URT      0.219000
     22 H2         -1.4800    2.6060   -1.2530 ha        1 URT      0.129000
     23 H4          1.1980    1.1560    1.7240 h2        1 URT      0.109000
     24 HN5         6.4580   -2.4970   -1.4890 hn        1 URT      0.184000
     25 HN5A        4.9570   -2.6050   -2.2020 hn        1 URT      0.184000
     26 H7          0.5150   -0.7790   -1.5400 h5        1 URT      0.213000
     27 H8          5.7760    0.1520    2.2220 h5        1 URT      0.155000
     28 H10        -3.6710    1.5160    1.1480 h1        1 URT      0.086500
     29 H10A       -3.1210    0.0290    2.0070 h1        1 URT      0.086500
     30 O8         -4.9550   -1.8040    0.9820 o         1 URT     -0.872000
     31 N5          5.4730   -2.5460   -1.3510 nh        1 URT     -0.317000
@<TRIPOS>BOND
     1    1    4 1   
     2    1    6 1   
     3    1    8 1   
     4    2    9 1   
     5    3   12 1   
     6    3   14 1   
     7    3   16 1   
     8    4   12 1   
     9    5   11 1   
    10    5   18 1   
    11    5   20 1   
    12    5   30 1   
    13    6    9 1   
    14    6   22 1   
    15    7   15 1   
    16    7   16 1   
    17    8   20 1   
    18    9   12 1   
    19   10   14 1   
    20   10   17 1   
    21   12   23 1   
    22   13   17 1   
    23   13   19 1   
    24   14   15 1   
    25   15   19 1   
    26   16   26 1   
    27   17   27 1   
    28   18   21 1   
    29   19   31 1   
    30   20   28 1   
    31   20   29 1   
    32   24   31 1   
    33   25   31 1   
@<TRIPOS>SUBSTRUCTURE
     1 URT         1 TEMP              0 ****  ****    0 ROOT
