@<TRIPOS>MOLECULE
URX
   38    40     1     0     0
SMALL
bcc


@<TRIPOS>ATOM
      1 P           4.1120   -0.2620   -0.9170 p5        1 URX      1.325900
      2 N1         -2.5740    0.2230    0.2580 n         1 URX     -0.362000
      3 C2         -3.9160   -0.1750    0.4470 c         1 URX      0.801500
      4 O2         -4.2350   -1.2950    0.9100 o         1 URX     -0.669500
      5 N3         -4.9400    0.7320    0.1070 n         1 URX     -0.596500
      6 C4         -4.6840    2.0250   -0.3830 c         1 URX      0.721700
      7 O4         -5.6590    2.7590   -0.6490 o         1 URX     -0.677500
      8 C5         -3.2800    2.3870   -0.5250 cc        1 URX     -0.385200
      9 C6         -2.2980    1.4920   -0.2040 cd        1 URX      0.100600
     10 C1'        -1.4920   -0.7200    0.6250 c3        1 URX      0.296500
     11 C2'        -1.0080   -1.6290   -0.5470 c3        1 URX     -0.143700
     12 C3'         0.0420   -0.6590   -1.2080 c3        1 URX      0.167100
     13 O3'         0.7620   -1.2480   -2.2310 oh        1 URX     -0.669800
     14 C4'         0.7770   -0.4100    0.1570 c3        1 URX      0.078800
     15 O4'        -0.3360    0.0290    1.0210 os        1 URX     -0.440600
     16 C5'         1.9020    0.6300    0.1770 c3        1 URX      0.233400
     17 O5'         3.1180    0.0790    0.4710 os        1 URX     -0.555200
     18 C6'        -0.0640   -2.6890    0.0640 c3        1 URX     -0.072700
     19 C7'        -0.6970   -3.5820    1.0940 c3        1 URX     -0.079100
     20 C8'         1.1160   -1.8470    0.5990 c3        1 URX     -0.112400
     21 OP1         3.3460   -1.4690   -1.4330 o         1 URX     -0.909833
     22 OP2         3.9140    0.9770   -1.7400 o         1 URX     -0.909833
     23 OP3         5.4580   -0.5280   -0.3280 o         1 URX     -0.909833
     24 H5         -3.0540    3.3900   -0.8990 ha        1 URX      0.167000
     25 H6         -1.2150    1.7370   -0.2840 h4        1 URX      0.211000
     26 H1'        -1.8690   -1.2970    1.5160 h2        1 URX      0.083700
     27 H2'        -1.8040   -2.0280   -1.1960 hc        1 URX      0.064700
     28 H3'        -0.4500    0.2660   -1.6070 h1        1 URX      0.011700
     29 HO3'        1.7460   -1.2770   -1.9790 ho        1 URX      0.527000
     30 H5'         1.9230    1.1310   -0.8370 h1        1 URX      0.017700
     31 H5'A        1.6350    1.3940    0.9660 h1        1 URX      0.017700
     32 H6'         0.3080   -3.3180   -0.7920 hc        1 URX      0.075700
     33 H7'        -1.6820   -3.9650    0.7340 hc        1 URX      0.018367
     34 H7'A       -0.0290   -4.4550    1.2990 hc        1 URX      0.018367
     35 H7'B       -0.8590   -3.0440    2.0600 hc        1 URX      0.018367
     36 H8'         2.0970   -2.1230    0.1070 hc        1 URX      0.103200
     37 H8'A        1.2160   -1.9120    1.7050 hc        1 URX      0.103200
     38 HN3        -5.8760    0.4230    0.2300 hn        1 URX      0.330500
@<TRIPOS>BOND
     1    1   17 1   
     2    1   21 1   
     3    1   22 1   
     4    1   23 1   
     5    2    3 1   
     6    2    9 1   
     7    2   10 1   
     8    3    4 2   
     9    3    5 1   
    10    5    6 1   
    11    5   38 1   
    12    6    7 2   
    13    6    8 1   
    14    8    9 2   
    15    8   24 1   
    16    9   25 1   
    17   10   11 1   
    18   10   15 1   
    19   10   26 1   
    20   11   12 1   
    21   11   18 1   
    22   11   27 1   
    23   12   13 1   
    24   12   14 1   
    25   12   28 1   
    26   13   29 1   
    27   14   15 1   
    28   14   16 1   
    29   14   20 1   
    30   16   17 1   
    31   16   30 1   
    32   16   31 1   
    33   18   19 1   
    34   18   20 1   
    35   18   32 1   
    36   19   33 1   
    37   19   34 1   
    38   19   35 1   
    39   20   36 1   
    40   20   37 1   
@<TRIPOS>SUBSTRUCTURE
     1 URX         1 TEMP              0 ****  ****    0 ROOT
