@<TRIPOS>MOLECULE
US1
   31    32     1     0     0
SMALL
bcc


@<TRIPOS>ATOM
      1 O3P         3.6040   -1.5870   -0.2500 oh        1 US1     -0.785400
      2 P           2.4230   -1.2100   -1.3230 p5        1 US1      1.440800
      3 O1P         3.0810   -1.4420   -2.6260 o         1 US1     -0.849000
      4 O2P         1.1500   -1.8060   -0.8570 o         1 US1     -0.849000
      5 O5'         2.3730    0.4060   -1.0380 os        1 US1     -0.578200
      6 C5'         1.6460    0.8390    0.0740 c3        1 US1      0.177400
      7 C4'         0.6300    1.9200   -0.3060 c3        1 US1      0.113100
      8 O4'        -0.4230    1.3330   -1.1170 os        1 US1     -0.423600
      9 C3'        -0.0120    2.5700    0.9300 c3        1 US1      0.070600
     10 C2'        -1.5160    2.4980    0.6770 c3        1 US1     -0.107400
     11 C1'        -1.7020    1.5940   -0.5590 c3        1 US1      0.307500
     12 N1         -2.4130    0.3210   -0.2840 n         1 US1     -0.372000
     13 C2         -3.8190    0.3810   -0.1720 c         1 US1      0.794500
     14 O2         -4.4750    1.4370   -0.3520 o         1 US1     -0.687500
     15 N3         -4.5220   -0.7970    0.1440 n         1 US1     -0.598500
     16 C4         -3.8870   -2.0430    0.3110 c         1 US1      0.717700
     17 O4         -4.6050   -3.0270    0.5940 o         1 US1     -0.696500
     18 C5         -2.4460   -2.0470    0.1280 cc        1 US1     -0.383200
     19 C6         -1.7680   -0.8940   -0.1610 cd        1 US1      0.097600
     20 S           0.5060    4.2100    1.2180 s         1 US1     -0.961300
     21 H5'1        1.1290   -0.0310    0.5640 h1        1 US1      0.035200
     22 H5'2        2.3650    1.3160    0.8020 h1        1 US1      0.035200
     23 H4'         1.1120    2.6880   -0.9690 h1        1 US1      0.095700
     24 H3'         0.2380    1.9550    1.8330 h1        1 US1      0.026700
     25 H2'1       -1.9080    3.5190    0.4370 hc        1 US1      0.061200
     26 H2'2       -2.0640    2.1190    1.5710 hc        1 US1      0.061200
     27 H1'        -2.3090    2.1050   -1.3660 h2        1 US1      0.069700
     28 HN3        -5.5090   -0.7230    0.2350 hn        1 US1      0.322500
     29 H5         -1.9190   -3.0040    0.2140 ha        1 US1      0.179000
     30 H6         -0.6580   -0.8960   -0.3330 h4        1 US1      0.270000
     31 HS          4.4630   -1.5330   -0.6490 ho        1 US1      0.418000
@<TRIPOS>BOND
     1    1    2 1   
     2    1   31 1   
     3    2    3 1   
     4    2    4 1   
     5    2    5 1   
     6    5    6 1   
     7    6    7 1   
     8    6   21 1   
     9    6   22 1   
    10    7    8 1   
    11    7    9 1   
    12    7   23 1   
    13    8   11 1   
    14    9   10 1   
    15    9   20 1   
    16    9   24 1   
    17   10   11 1   
    18   10   25 1   
    19   10   26 1   
    20   11   12 1   
    21   11   27 1   
    22   12   13 1   
    23   12   19 1   
    24   13   14 2   
    25   13   15 1   
    26   15   16 1   
    27   15   28 1   
    28   16   17 2   
    29   16   18 1   
    30   18   19 2   
    31   18   29 1   
    32   19   30 1   
@<TRIPOS>SUBSTRUCTURE
     1 US1         1 TEMP              0 ****  ****    0 ROOT
