@<TRIPOS>MOLECULE
US1
   31    32     1     0     0
SMALL
bcc


@<TRIPOS>ATOM
      1 O3P         0.8160    4.3750    2.0290 o         1 US1     -0.733167
      2 P           0.5540    3.1000    2.7700 p5        1 US1      1.357900
      3 O1P        -0.9050    2.9950    3.0730 o         1 US1     -0.733167
      4 O2P         1.3400    3.0940    4.0640 o         1 US1     -0.733167
      5 O5'         1.0020    1.8580    1.8700 os        1 US1     -0.572200
      6 C5'         0.1910    1.5150    0.7150 c3        1 US1      0.177400
      7 C4'         1.0220    1.2660   -0.3750 c3        1 US1      0.114100
      8 O4'         1.7530    0.0100   -0.1810 os        1 US1     -0.421600
      9 C3'         0.1540    1.0630   -1.7050 c3        1 US1      0.168400
     10 C2'         0.5940    0.0480   -2.2130 c3        1 US1     -0.107400
     11 C1'         1.2010   -0.8310   -1.0060 c3        1 US1      0.306500
     12 N1          0.1650   -1.5520   -0.3500 n         1 US1     -0.372000
     13 C2          0.3780   -2.0480    1.0600 c         1 US1      0.794500
     14 O2          1.4590   -1.8860    1.6080 o         1 US1     -0.687500
     15 N3         -0.6880   -2.7910    1.7470 n         1 US1     -0.598500
     16 C4         -1.8510   -3.2220    1.0130 c         1 US1      0.717700
     17 O4         -2.6980   -3.9290    1.5580 o         1 US1     -0.696500
     18 C5         -2.0150   -2.8260   -0.4170 cc        1 US1     -0.384200
     19 C6         -0.9720   -1.9680   -1.0800 cd        1 US1      0.096600
     20 S           0.4020    2.5470   -2.8780 sh        1 US1     -1.228900
     21 H5'1       -0.4140    2.2650    0.5040 h1        1 US1      0.030700
     22 H5'2       -0.3350    0.7190    0.9120 h1        1 US1      0.030700
     23 H4'         1.6470    2.0020   -0.4940 h1        1 US1      0.095700
     24 H3'        -0.7900    0.9530   -1.4850 h1        1 US1      0.024700
     25 H2'1       -0.1420   -0.4560   -2.6710 hc        1 US1      0.061700
     26 H2'2        1.3060    0.2730   -2.8580 hc        1 US1      0.061700
     27 H1'         1.8900   -1.4660   -1.3590 h2        1 US1      0.069700
     28 HN3        -0.6080   -2.9890    2.6480 hn        1 US1      0.322500
     29 H5         -2.7880   -3.1100   -0.9110 ha        1 US1      0.178000
     30 H6         -1.0770   -1.7030   -2.0310 h4        1 US1      0.271000
     31 HS         -0.5920    2.6940   -3.5570 hs        1 US1      0.388800
@<TRIPOS>BOND
     1    1    2 1   
     2    2    3 1   
     3    2    4 1   
     4    2    5 1   
     5    5    6 1   
     6    6    7 1   
     7    6   21 1   
     8    6   22 1   
     9    7    8 1   
    10    7    9 1   
    11    7   23 1   
    12    8   11 1   
    13    9   10 1   
    14    9   20 1   
    15    9   24 1   
    16   10   11 1   
    17   10   25 1   
    18   10   26 1   
    19   11   12 1   
    20   11   27 1   
    21   12   13 1   
    22   12   19 1   
    23   13   14 2   
    24   13   15 1   
    25   15   16 1   
    26   15   28 1   
    27   16   17 2   
    28   16   18 1   
    29   18   19 2   
    30   18   29 1   
    31   19   30 1   
    32   20   31 1   
@<TRIPOS>SUBSTRUCTURE
     1 US1         1 TEMP              0 ****  ****    0 ROOT
