@<TRIPOS>MOLECULE
US2
   35    36     1     0     0
SMALL
bcc


@<TRIPOS>ATOM
      1 P           2.3130   -1.0170   -1.5300 p5        1 US2      1.342900
      2 N1         -1.7480    1.5630    0.8570 n         1 US2     -0.365000
      3 C6         -1.7030    0.2580    0.3950 cc        1 US2      0.099600
      4 C2         -2.9960    2.1690    1.1340 c         1 US2      0.797500
      5 O2         -3.1080    3.3460    1.5630 o         1 US2     -0.702500
      6 N3         -4.1620    1.4130    0.9610 n         1 US2     -0.597500
      7 C4         -4.1550    0.0760    0.5140 c         1 US2      0.730700
      8 O4         -5.2740   -0.4660    0.4040 o         1 US2     -0.662500
      9 C5         -2.8390   -0.5080    0.2450 cd        1 US2     -0.223600
     10 S5         -2.8350   -2.1570   -0.1440 ss        1 US2     -0.232700
     11 C5A        -1.8750   -2.3210   -1.6000 c3        1 US2     -0.093000
     12 C1'        -0.5490    2.4110    1.0250 c3        1 US2      0.300500
     13 O4'        -0.0260    2.8230   -0.2310 os        1 US2     -0.436600
     14 C4'         1.2320    2.1600   -0.5090 c3        1 US2      0.063100
     15 C3'         1.6060    1.3360    0.7420 c3        1 US2      0.104100
     16 O3'         2.9140    1.6280    1.1800 oh        1 US2     -0.657800
     17 C2'         0.5870    1.7270    1.8110 c3        1 US2     -0.118400
     18 C5'         1.0530    1.3130   -1.7920 c3        1 US2      0.225400
     19 O5'         2.1720    0.6040   -2.1270 os        1 US2     -0.567200
     20 O1P         0.9240   -1.2080   -0.9420 o         1 US2     -0.925833
     21 O2P         2.6740   -1.8440   -2.7180 o         1 US2     -0.925833
     22 H6         -0.6780   -0.1560    0.1230 h4        1 US2      0.289000
     23 HN3        -5.0280    1.8680    1.1410 hn        1 US2      0.324500
     24 H15A       -2.3930   -1.9010   -2.4870 h1        1 US2      0.092700
     25 H25A       -0.8520   -1.8510   -1.5050 h1        1 US2      0.092700
     26 H35A       -1.7370   -3.4190   -1.7290 h1        1 US2      0.092700
     27 H1'        -0.8950    3.3610    1.5320 h2        1 US2      0.087700
     28 H4'         1.9740    2.9830   -0.6780 h1        1 US2      0.051700
     29 H3'         1.5300    0.2260    0.4860 h1        1 US2      0.156700
     30 HO3'        3.4790    0.9520    0.7460 ho        1 US2      0.482000
     31 H12'        1.0250    2.4630    2.5280 hc        1 US2      0.053700
     32 H22'        0.2480    0.8330    2.3830 hc        1 US2      0.053700
     33 H15'        0.1600    0.6400   -1.6540 h1        1 US2     -0.003300
     34 H25'        0.8230    2.0450   -2.6240 h1        1 US2     -0.003300
     35 O3P         3.3280   -0.7530   -0.4450 o         1 US2     -0.925833
@<TRIPOS>BOND
     1    1   19 1   
     2    1   20 1   
     3    1   21 1   
     4    1   35 1   
     5    2    3 1   
     6    2    4 1   
     7    2   12 1   
     8    3    9 2   
     9    3   22 1   
    10    4    5 2   
    11    4    6 1   
    12    6    7 1   
    13    6   23 1   
    14    7    8 2   
    15    7    9 1   
    16    9   10 1   
    17   10   11 1   
    18   11   24 1   
    19   11   25 1   
    20   11   26 1   
    21   12   13 1   
    22   12   17 1   
    23   12   27 1   
    24   13   14 1   
    25   14   15 1   
    26   14   18 1   
    27   14   28 1   
    28   15   16 1   
    29   15   17 1   
    30   15   29 1   
    31   16   30 1   
    32   17   31 1   
    33   17   32 1   
    34   18   19 1   
    35   18   33 1   
    36   18   34 1   
@<TRIPOS>SUBSTRUCTURE
     1 US2         1 TEMP              0 ****  ****    0 ROOT
