@<TRIPOS>MOLECULE
US3
   34    35     1     0     0
SMALL
bcc


@<TRIPOS>ATOM
      1 P          -4.1470   -0.9230    1.1290 p5        1 US3      1.329900
      2 N1          2.0180    0.0070   -1.0230 na        1 US3     -0.618400
      3 C2          1.9120    1.1450   -0.2030 cc        1 US3      0.653100
      4 SE2         0.3320    1.6270    0.2880 sh        1 US3     -0.035000
      5 N3          2.9620    1.8470    0.2200 nd        1 US3     -0.752100
      6 C4          4.2650    1.4540   -0.1220 c         1 US3      0.703700
      7 O4          5.2580    2.1260    0.2380 o         1 US3     -0.632100
      8 C5          4.4190    0.2210   -0.9280 cc        1 US3     -0.299400
      9 C6          3.2920   -0.4320   -1.3430 cd        1 US3      0.090000
     10 C1'         0.8950   -0.7480   -1.6250 c3        1 US3      0.429300
     11 OP3        -5.5940   -0.7710    0.7850 o         1 US3     -0.925833
     12 C2'         0.6110   -2.1070   -0.9500 c3        1 US3     -0.132400
     13 OP2        -3.4420   -2.1660    0.6270 o         1 US3     -0.925833
     14 C3'        -0.8620   -2.0590   -0.5220 c3        1 US3      0.164100
     15 O3'        -1.5470   -3.1210   -1.1490 oh        1 US3     -0.673800
     16 C4'        -1.3910   -0.6950   -1.0030 c3        1 US3      0.062100
     17 O4'        -0.2970    0.0130   -1.6450 os        1 US3     -0.422600
     18 C5'        -1.9880    0.1560    0.1450 c3        1 US3      0.265400
     19 O5'        -3.3420    0.2220    0.0540 os        1 US3     -0.541200
     20 C5A         5.7740   -0.2610   -1.2460 c3        1 US3     -0.017900
     21 H6          3.3450   -1.3510   -1.9560 h4        1 US3      0.139000
     22 H1'         1.1910   -0.8900   -2.7110 h2        1 US3      0.042700
     23 H2'         0.7760   -2.9280   -1.6900 hc        1 US3      0.052700
     24 H2'A        1.2670   -2.2900   -0.0670 hc        1 US3      0.052700
     25 H3'        -0.9730   -2.1570    0.5940 h1        1 US3      0.099700
     26 HO3'       -2.4430   -3.1250   -0.7380 ho        1 US3      0.502000
     27 H4'        -2.1620   -0.8280   -1.8100 h1        1 US3      0.092700
     28 H5'        -1.6640   -0.2490    1.1450 h1        1 US3      0.001200
     29 H5'A       -1.5520    1.2270    0.0310 h1        1 US3      0.001200
     30 H5A         6.1950   -0.8270   -0.3770 hc        1 US3      0.030367
     31 H5AA        5.7720   -0.9350   -2.1380 hc        1 US3      0.030367
     32 H5AB        6.4480    0.6090   -1.4470 hc        1 US3      0.030367
     33 HSE2        0.6140    2.5990    1.1290 hs        1 US3      0.127800
     34 OP1        -3.6680   -0.4380    2.4640 o         1 US3     -0.925833
@<TRIPOS>BOND
     1    1   11 1   
     2    1   13 1   
     3    1   19 1   
     4    1   34 1   
     5    2    3 1   
     6    2    9 1   
     7    2   10 1   
     8    3    4 1   
     9    3    5 2   
    10    4   33 1   
    11    5    6 1   
    12    6    7 2   
    13    6    8 1   
    14    8    9 2   
    15    8   20 1   
    16    9   21 1   
    17   10   12 1   
    18   10   17 1   
    19   10   22 1   
    20   12   14 1   
    21   12   23 1   
    22   12   24 1   
    23   14   15 1   
    24   14   16 1   
    25   14   25 1   
    26   15   26 1   
    27   16   17 1   
    28   16   18 1   
    29   16   27 1   
    30   18   19 1   
    31   18   28 1   
    32   18   29 1   
    33   20   30 1   
    34   20   31 1   
    35   20   32 1   
@<TRIPOS>SUBSTRUCTURE
     1 US3         1 TEMP              0 ****  ****    0 ROOT
