@<TRIPOS>MOLECULE
US4
   66    70     1     0     0
SMALL
bcc


@<TRIPOS>ATOM
      1 P           1.3900    2.9080   -0.0330 p5        1 US4      1.340900
      2 O1P         2.1170    4.2090   -0.0350 o         1 US4     -0.921833
      3 O2P         0.6760    2.4150   -1.2680 o         1 US4     -0.921833
      4 O5*         2.6650    1.7150    0.0050 os        1 US4     -0.557200
      5 C5*         2.1830    0.4380   -0.0550 c3        1 US4      0.213400
      6 C4*         2.2370   -0.1700   -1.4740 c3        1 US4      0.065100
      7 C3*         1.5610   -1.5570   -1.4750 c3        1 US4      0.110100
      8 C2*         2.7010   -2.5690   -1.6500 c3        1 US4     -0.125400
      9 C1*         3.9820   -1.7150   -1.8040 c3        1 US4      0.314500
     10 O4*         3.5850   -0.3660   -1.9560 os        1 US4     -0.395600
     11 N1          4.9460   -1.8390   -0.6880 n         1 US4     -0.379000
     12 C2          5.6300   -3.0620   -0.5410 c         1 US4      0.796500
     13 N3          6.5940   -3.1730    0.4750 n         1 US4     -0.594500
     14 C4          6.9230   -2.1100    1.3390 c         1 US4      0.720700
     15 O4          7.8010   -2.3200    2.2010 o         1 US4     -0.670500
     16 C5          6.1970   -0.8580    1.1250 cc        1 US4     -0.307400
     17 C5M         6.5080    0.2840    2.0080 c3        1 US4     -0.020900
     18 C6          5.2520   -0.7700    0.1360 cd        1 US4      0.085600
     19 O2          5.4140   -4.0480   -1.2900 o         1 US4     -0.691500
     20 O3*         0.6830   -1.6180   -2.6000 os        1 US4     -0.450600
     21 C7*        -0.6390   -2.0320   -2.3450 c3        1 US4      0.338200
     22 O8*        -1.1870   -1.3450   -1.2520 os        1 US4     -0.488600
     23 C9*        -1.2690    0.0820   -1.4050 c3        1 US4      0.094400
     24 CU*        -1.6070    0.7310   -0.0650 c3        1 US4      0.055100
     25 CY*        -1.5450   -0.1640    1.1890 c3        1 US4      0.163100
     26 OZ*        -0.4460    0.0460    2.0270 oh        1 US4     -0.652800
     27 CX*        -2.8640    0.1280    1.9330 c3        1 US4     -0.154400
     28 CW*        -3.7920    0.7230    0.8580 c3        1 US4      0.247800
     29 OV*        -2.9590    1.2490   -0.1630 os        1 US4     -0.408600
     30 N19        -4.7230   -0.2590    0.2910 na        1 US4     -0.257000
     31 C14        -6.1110   -0.2950    0.4530 ca        1 US4      0.438800
     32 N13        -6.9630    0.4920    1.1810 nb        1 US4     -0.708000
     33 C12        -8.2550    0.1230    1.0570 ca        1 US4      0.648900
     34 N11        -8.8180   -0.8910    0.3370 nb        1 US4     -0.801000
     35 C16        -7.9720   -1.7000   -0.3720 ca        1 US4      0.701200
     36 N16        -8.4540   -2.8190   -1.0510 nh        1 US4     -0.931500
     37 C15        -6.5690   -1.4270   -0.3590 ca        1 US4     -0.209200
     38 N17        -5.4740   -2.0300   -0.9920 nc        1 US4     -0.596100
     39 C18        -4.4070   -1.3140   -0.5910 cd        1 US4      0.439700
     40 H15*        2.7780   -0.2320    0.6350 h1        1 US4      0.001700
     41 H25*        1.0960    0.4010    0.2620 h1        1 US4      0.001700
     42 H4*         1.7810    0.5490   -2.2150 h1        1 US4      0.156700
     43 H3*         0.9940   -1.7330   -0.5220 h1        1 US4      0.088700
     44 H12*        2.7590   -3.2680   -0.7830 hc        1 US4      0.061200
     45 H22*        2.5590   -3.1730   -2.5800 hc        1 US4      0.061200
     46 H1*         4.5540   -1.9950   -2.7380 h2        1 US4      0.070700
     47 HN3         7.0490   -4.0510    0.5740 hn        1 US4      0.329500
     48 H15M        6.5130   -0.0480    3.0760 hc        1 US4      0.046367
     49 H25M        7.5220    0.6920    1.7680 hc        1 US4      0.046367
     50 H35M        5.7530    1.1000    1.8840 hc        1 US4      0.046367
     51 H6          4.6780    0.1750   -0.0550 h4        1 US4      0.256000
     52 H17*       -1.1870   -1.8210   -3.3040 h2        1 US4      0.035700
     53 H27*       -0.6840   -3.1180   -2.0540 h2        1 US4      0.035700
     54 H19*       -0.2820    0.5040   -1.7610 h1        1 US4      0.088200
     55 H29*       -2.0710    0.3040   -2.1590 h1        1 US4      0.088200
     56 HU*        -0.9170    1.6550    0.0440 h1        1 US4      0.224700
     57 HY*        -1.5020   -1.2550    0.9140 h1        1 US4      0.052700
     58 HOZ*       -0.1390    0.9830    1.9470 ho        1 US4      0.508000
     59 H1X*       -3.2730   -0.7860    2.4180 hc        1 US4      0.064200
     60 H2X*       -2.6850    0.9020    2.7210 hc        1 US4      0.064200
     61 HW*        -4.4170    1.5820    1.2360 h2        1 US4      0.095700
     62 H12        -8.9810    0.7420    1.6230 h5        1 US4      0.034100
     63 H116       -9.4190   -2.8120   -1.2890 hn        1 US4      0.409800
     64 H216       -7.8450   -3.1670   -1.7560 hn        1 US4      0.409800
     65 H18        -3.3560   -1.4850   -0.8940 h5        1 US4      0.113800
     66 O3P         0.5760    2.5290    1.1860 o         1 US4     -0.921833
@<TRIPOS>BOND
     1    1    2 1   
     2    1    3 1   
     3    1    4 1   
     4    1   66 1   
     5    4    5 1   
     6    5    6 1   
     7    5   40 1   
     8    5   41 1   
     9    6    7 1   
    10    6   10 1   
    11    6   42 1   
    12    7    8 1   
    13    7   20 1   
    14    7   43 1   
    15    8    9 1   
    16    8   44 1   
    17    8   45 1   
    18    9   10 1   
    19    9   11 1   
    20    9   46 1   
    21   11   12 1   
    22   11   18 1   
    23   12   13 1   
    24   12   19 2   
    25   13   14 1   
    26   13   47 1   
    27   14   15 2   
    28   14   16 1   
    29   16   17 1   
    30   16   18 2   
    31   17   48 1   
    32   17   49 1   
    33   17   50 1   
    34   18   51 1   
    35   20   21 1   
    36   21   22 1   
    37   21   52 1   
    38   21   53 1   
    39   22   23 1   
    40   23   24 1   
    41   23   54 1   
    42   23   55 1   
    43   24   25 1   
    44   24   29 1   
    45   24   56 1   
    46   25   26 1   
    47   25   27 1   
    48   25   57 1   
    49   26   58 1   
    50   27   28 1   
    51   27   59 1   
    52   27   60 1   
    53   28   29 1   
    54   28   30 1   
    55   28   61 1   
    56   30   31 1   
    57   30   39 1   
    58   31   32 ar  
    59   31   37 ar  
    60   32   33 ar  
    61   33   34 ar  
    62   33   62 1   
    63   34   35 ar  
    64   35   36 1   
    65   35   37 ar  
    66   36   63 1   
    67   36   64 1   
    68   37   38 1   
    69   38   39 2   
    70   39   65 1   
@<TRIPOS>SUBSTRUCTURE
     1 US4         1 TEMP              0 ****  ****    0 ROOT
