@<TRIPOS>MOLECULE
US5
   32    33     1     0     0
SMALL
bcc


@<TRIPOS>ATOM
      1 P          -3.4420    1.1930   -0.3480 p5        1 US5      1.341900
      2 N1          1.0680   -1.3290    0.2320 n         1 US5     -0.358000
      3 C2          2.4600   -1.6560    0.3960 c         1 US5      0.808900
      4 O2          2.8100   -2.8630    0.3870 o         1 US5     -0.686500
      5 N3          3.4060   -0.6330    0.5910 nc        1 US5     -0.732100
      6 C4          2.9690    0.6230    0.6380 cd        1 US5      0.568500
      7 SE4         4.0610    1.9290    0.8700 sh        1 US5     -0.288000
      8 C5          1.6050    0.9910    0.5090 cd        1 US5     -0.420600
      9 C6          0.6730   -0.0190    0.2920 cc        1 US5      0.086600
     10 C1'         0.1180   -2.4140   -0.0590 c3        1 US5      0.252500
     11 OP3        -1.9800    1.3430    0.0350 o         1 US5     -0.923500
     12 C2'        -1.0190   -2.5380    1.0070 c3        1 US5      0.099100
     13 O2'        -1.2620   -3.9060    1.2700 oh        1 US5     -0.566800
     14 O2P        -4.1260    2.3810   -0.9390 o         1 US5     -0.923500
     15 C3'        -2.2270   -1.8740    0.3200 c3        1 US5      0.121100
     16 O3'        -3.4330   -2.5330    0.6010 oh        1 US5     -0.624800
     17 C4'        -1.8990   -1.8830   -1.1870 c3        1 US5      0.064100
     18 O4'        -0.5000   -2.2370   -1.3290 os        1 US5     -0.430600
     19 C5'        -2.1160   -0.5240   -1.8990 c3        1 US5      0.224400
     20 O5'        -3.3320    0.0370   -1.6360 os        1 US5     -0.568200
     21 H5          1.2660    2.0330    0.5620 ha        1 US5      0.183000
     22 H6         -0.4350    0.2560    0.1750 h4        1 US5      0.316000
     23 H1'         0.7130   -3.3720   -0.1420 h2        1 US5      0.095700
     24 H2'        -0.7700   -2.0070    1.9630 h1        1 US5      0.047700
     25 HO2'       -0.4770   -4.2300    1.7290 ho        1 US5      0.372000
     26 H3'        -2.2970   -0.7870    0.6690 h1        1 US5      0.150700
     27 HO3'       -4.0980   -1.8120    0.6650 ho        1 US5      0.475000
     28 H4'        -2.4690   -2.6980   -1.7040 h1        1 US5      0.050700
     29 H5'        -1.2720    0.1680   -1.6240 h1        1 US5     -0.002800
     30 H5'A       -2.0470   -0.7410   -3.0070 h1        1 US5     -0.002800
     31 HSE4        5.2170    1.2930    0.9470 hs        1 US5      0.190800
     32 OP1        -4.1670    0.3060    0.6350 o         1 US5     -0.923500
@<TRIPOS>BOND
     1    1   11 1   
     2    1   14 1   
     3    1   20 1   
     4    1   32 1   
     5    2    3 1   
     6    2    9 1   
     7    2   10 1   
     8    3    4 2   
     9    3    5 1   
    10    5    6 2   
    11    6    7 1   
    12    6    8 1   
    13    7   31 1   
    14    8    9 2   
    15    8   21 1   
    16    9   22 1   
    17   10   12 1   
    18   10   18 1   
    19   10   23 1   
    20   12   13 1   
    21   12   15 1   
    22   12   24 1   
    23   13   25 1   
    24   15   16 1   
    25   15   17 1   
    26   15   26 1   
    27   16   27 1   
    28   17   18 1   
    29   17   19 1   
    30   17   28 1   
    31   19   20 1   
    32   19   29 1   
    33   19   30 1   
@<TRIPOS>SUBSTRUCTURE
     1 US5         1 TEMP              0 ****  ****    0 ROOT
