@<TRIPOS>MOLECULE
US5
   32    31     1     0     0
SMALL
bcc


@<TRIPOS>ATOM
      1 P           0.7200    4.1730   -0.1310 p3        1 US5      2.516000
      2 N1          0.2230   -1.5010    0.5080 n         1 US5     -0.250000
      3 C2         -1.0060   -2.2560    0.7630 c2        1 US5      0.329000
      4 O2         -1.5270   -2.8850   -0.1330 o         1 US5     -0.405000
      5 N3         -1.5750   -2.2960    2.1100 n2        1 US5     -0.297000
      6 C4         -0.8660   -1.7260    3.1970 c1        1 US5     -0.030000
      7 SE4        -1.5230   -1.9330    4.9860 s         1 US5      0.121000
      8 C5          0.3700   -0.9680    2.9480 c2        1 US5     -0.335000
      9 C6          0.9040   -0.8690    1.5820 c2        1 US5      0.098000
     10 C1'         0.7500   -1.4380   -0.7910 c3        1 US5      0.107000
     11 OP3         2.2320    4.2030   -0.0980 o         1 US5     -1.241000
     12 C2'        -0.4560   -1.1080   -1.8790 c3        1 US5     -0.010000
     13 O2'        -0.0380   -1.5060   -3.2310 oh        1 US5     -0.296000
     14 O2P         0.1860    4.1580    1.2810 o         1 US5     -1.241000
     15 C3'        -0.6390    0.1270   -1.8340 c3        1 US5      0.018000
     16 O3'        -1.0030    0.6460   -3.1870 oh        1 US5     -0.358000
     17 C4'         0.7600    0.7370   -1.3660 c3        1 US5     -0.048000
     18 O4'         1.5910   -0.4740   -0.8790 os        1 US5     -0.287000
     19 C5'         0.5770    1.6210   -0.3570 c3        1 US5      0.059000
     20 O5'         0.2360    2.8760   -0.8900 o         1 US5     -0.741000
     21 H5          0.8720   -0.5890    3.7000 ha        1 US5      0.180000
     22 H6          1.7260   -0.3660    1.4130 h4        1 US5      0.284000
     23 H1'         1.1860   -2.2850   -1.0190 h2        1 US5      0.129000
     24 H2'        -1.2760   -1.5790   -1.6270 h1        1 US5      0.086000
     25 HO2'       -0.2980   -2.3410   -3.3880 ho        1 US5      0.174000
     26 H3'        -1.3390    0.3440   -1.1860 h1        1 US5      0.195000
     27 HO3'       -1.8600    0.8820   -3.1940 ho        1 US5      0.277000
     28 H4'         1.2080    1.1720   -2.1200 h1        1 US5      0.082000
     29 H5'        -0.1460    1.3060    0.2260 h1        1 US5      0.053500
     30 H5'A        1.4040    1.7000    0.1620 h1        1 US5      0.053500
     31 HSE4       -1.6000   -3.2210    5.2820 hs        1 US5      0.020000
     32 OP1         0.2090    5.3960   -0.8480 o         1 US5     -1.241000
@<TRIPOS>BOND
     1    1   11 1   
     2    1   14 1   
     3    1   32 1   
     4    2    3 1   
     5    2    9 1   
     6    2   10 1   
     7    3    4 1   
     8    3    5 1   
     9    5    6 1   
    10    6    8 1   
    11    7   31 1   
    12    8    9 1   
    13    8   21 1   
    14    9   22 1   
    15   10   12 1   
    16   10   18 1   
    17   10   23 1   
    18   12   13 1   
    19   12   15 1   
    20   12   24 1   
    21   13   25 1   
    22   15   16 1   
    23   15   17 1   
    24   15   26 1   
    25   16   27 1   
    26   17   18 1   
    27   17   19 1   
    28   17   28 1   
    29   19   20 1   
    30   19   29 1   
    31   19   30 1   
@<TRIPOS>SUBSTRUCTURE
     1 US5         1 TEMP              0 ****  ****    0 ROOT
