@<TRIPOS>MOLECULE
USC
   24    24     1     0     0
SMALL
bcc


@<TRIPOS>ATOM
      1 CAG         0.0070    0.3240   -0.0390 c3        1 USC     -0.357300
      2 OAI        -1.4910    3.9590   -2.4630 o         1 USC     -0.850800
      3 OAJ         4.2560    0.7800   -5.4240 o         1 USC     -0.850800
      4 OAO         1.9780    0.3560    1.5580 o         1 USC     -0.697800
      5 OAP         1.9810   -1.2320   -0.1850 o         1 USC     -0.697800
      6 CBG         0.8680    2.5070   -2.1350 ca        1 USC     -0.119500
      7 CBH         2.6860    1.2470   -3.1440 ca        1 USC     -0.119500
      8 CBI         1.1790    2.5370   -4.5300 ca        1 USC     -0.057000
      9 O2         -0.9910    4.4570   -4.5710 o         1 USC     -0.850800
     10 O1          2.6020    1.4040   -6.7720 o         1 USC     -0.850800
     11 NBU         2.3860    1.2160   -0.7050 nh        1 USC     -0.794500
     12 CBX        -0.7520    3.8460   -3.4900 c         1 USC      0.907200
     13 CBY         3.1000    1.2680   -5.6180 c         1 USC      0.907200
     14 CCF         1.9720    1.6410   -1.9960 ca        1 USC      0.015600
     15 CCG         0.4630    2.9420   -3.3970 ca        1 USC     -0.149100
     16 CCH         2.2920    1.6980   -4.4070 ca        1 USC     -0.149100
     17 SCT         1.6780    0.1000    0.1830 s6        1 USC      1.462900
     18 HAG        -0.3920    1.1900    0.5430 h1        1 USC      0.118367
     19 HAGA       -0.5590   -0.5820    0.2840 h1        1 USC      0.118367
     20 HAGB       -0.2880    0.5190   -1.1050 h1        1 USC      0.118367
     21 HBG         0.2920    2.8550   -1.2620 ha        1 USC      0.140000
     22 HBH         3.5690    0.5920   -3.0780 ha        1 USC      0.140000
     23 HBI         0.8650    2.8850   -5.5280 ha        1 USC      0.167000
     24 HNBU        3.1550    1.7400   -0.3590 hn        1 USC      0.448800
@<TRIPOS>BOND
     1    1   17 1   
     2    1   18 1   
     3    1   19 1   
     4    1   20 1   
     5    2   12 1   
     6    3   13 1   
     7    4   17 2   
     8    5   17 2   
     9    6   14 ar  
    10    6   15 ar  
    11    6   21 1   
    12    7   14 ar  
    13    7   16 ar  
    14    7   22 1   
    15    8   15 ar  
    16    8   16 ar  
    17    8   23 1   
    18    9   12 1   
    19   10   13 1   
    20   11   14 1   
    21   11   17 1   
    22   11   24 1   
    23   12   15 1   
    24   13   16 1   
@<TRIPOS>SUBSTRUCTURE
     1 USC         1 TEMP              0 ****  ****    0 ROOT
