@<TRIPOS>MOLECULE
USC
   24    24     1     0     0
SMALL
bcc


@<TRIPOS>ATOM
      1 CAG        -2.5800   -1.5020    1.1910 c3        1 USC     -0.357300
      2 OAI         1.5150   -3.4620    0.3430 o         1 USC     -0.850800
      3 OAJ         1.5630    3.6770   -0.6150 o         1 USC     -0.850800
      4 OAO        -4.2590   -0.8200   -0.5860 o         1 USC     -0.697800
      5 OAP        -3.5370    0.8150    0.9540 o         1 USC     -0.697800
      6 CBG         0.1390   -1.1370   -0.3490 ca        1 USC     -0.119500
      7 CBH         0.0930    1.2910   -0.4590 ca        1 USC     -0.119500
      8 CBI         2.1570    0.1320    0.0390 ca        1 USC     -0.057000
      9 O2          3.4830   -2.4380    0.2070 o         1 USC     -0.850800
     10 O1          3.2950    2.7560    0.4310 o         1 USC     -0.850800
     11 NBU        -1.9660    0.0120   -0.8660 nh        1 USC     -0.794500
     12 CBX         2.2200   -2.4170    0.1840 c         1 USC      0.907200
     13 CBY         2.1560    2.6740   -0.1140 c         1 USC      0.907200
     14 CCF        -0.5830    0.0590   -0.5420 ca        1 USC      0.015600
     15 CCG         1.5000   -1.1010   -0.0450 ca        1 USC     -0.149100
     16 CCH         1.4600    1.3260   -0.1730 ca        1 USC     -0.149100
     17 SCT        -3.1550   -0.2850    0.1510 s6        1 USC      1.462900
     18 HAG        -2.5930   -2.5140    0.7170 h1        1 USC      0.118367
     19 HAGA       -1.5220   -1.3460    1.5330 h1        1 USC      0.118367
     20 HAGB       -3.2060   -1.5590    2.1130 h1        1 USC      0.118367
     21 HBG        -0.3460   -2.1240   -0.4230 ha        1 USC      0.140000
     22 HBH        -0.4280    2.2480   -0.6270 ha        1 USC      0.140000
     23 HBI         3.2340    0.1620    0.2730 ha        1 USC      0.167000
     24 HNBU       -2.1340    0.1250   -1.8380 hn        1 USC      0.448800
@<TRIPOS>BOND
     1    1   17 1   
     2    1   18 1   
     3    1   19 1   
     4    1   20 1   
     5    2   12 1   
     6    3   13 1   
     7    4   17 2   
     8    5   17 2   
     9    6   14 ar  
    10    6   15 ar  
    11    6   21 1   
    12    7   14 ar  
    13    7   16 ar  
    14    7   22 1   
    15    8   15 ar  
    16    8   16 ar  
    17    8   23 1   
    18    9   12 1   
    19   10   13 1   
    20   11   14 1   
    21   11   17 1   
    22   11   24 1   
    23   12   15 1   
    24   13   16 1   
@<TRIPOS>SUBSTRUCTURE
     1 USC         1 TEMP              0 ****  ****    0 ROOT
