@<TRIPOS>MOLECULE
USC
   24    24     1     0     0
SMALL
bcc


@<TRIPOS>ATOM
      1 CAG        -0.0050    0.3550   -0.0290 c3        1 USC     -0.357300
      2 OAI        -1.4770    3.9750   -2.4920 o         1 USC     -0.850800
      3 OAJ         4.2560    0.7320   -5.4100 o         1 USC     -0.850800
      4 OAO         1.9640    0.3930    1.5720 o         1 USC     -0.697800
      5 OAP         1.9610   -1.2130   -0.1550 o         1 USC     -0.697800
      6 CBG         0.8730    2.5130   -2.1450 ca        1 USC     -0.119500
      7 CBH         2.6850    1.2320   -3.1380 ca        1 USC     -0.119500
      8 CBI         1.1880    2.5160   -4.5390 ca        1 USC     -0.057000
      9 O2         -0.9700    4.4490   -4.6040 o         1 USC     -0.850800
     10 O1          2.6070    1.3520   -6.7670 o         1 USC     -0.850800
     11 NBU         2.3810    1.2270   -0.7000 nh        1 USC     -0.794500
     12 CBX        -0.7370    3.8480   -3.5170 c         1 USC      0.907200
     13 CBY         3.1030    1.2240   -5.6110 c         1 USC      0.907200
     14 CCF         1.9720    1.6420   -1.9960 ca        1 USC      0.015600
     15 CCG         0.4720    2.9370   -3.4120 ca        1 USC     -0.149100
     16 CCH         2.2960    1.6720   -4.4060 ca        1 USC     -0.149100
     17 SCT         1.6650    0.1240    0.1990 s6        1 USC      1.462900
     18 HAG        -0.4000    1.2290    0.5440 h1        1 USC      0.118367
     19 HAGA       -0.5760   -0.5450    0.3020 h1        1 USC      0.118367
     20 HAGB       -0.2970    0.5420   -1.0970 h1        1 USC      0.118367
     21 HBG         0.2970    2.8720   -1.2760 ha        1 USC      0.140000
     22 HBH         3.5640    0.5720   -3.0640 ha        1 USC      0.140000
     23 HBI         0.8780    2.8560   -5.5420 ha        1 USC      0.167000
     24 HNBU        3.1520    1.7500   -0.3570 hn        1 USC      0.448800
@<TRIPOS>BOND
     1    1   17 1   
     2    1   18 1   
     3    1   19 1   
     4    1   20 1   
     5    2   12 1   
     6    3   13 1   
     7    4   17 2   
     8    5   17 2   
     9    6   14 ar  
    10    6   15 ar  
    11    6   21 1   
    12    7   14 ar  
    13    7   16 ar  
    14    7   22 1   
    15    8   15 ar  
    16    8   16 ar  
    17    8   23 1   
    18    9   12 1   
    19   10   13 1   
    20   11   14 1   
    21   11   17 1   
    22   11   24 1   
    23   12   15 1   
    24   13   16 1   
@<TRIPOS>SUBSTRUCTURE
     1 USC         1 TEMP              0 ****  ****    0 ROOT
