@<TRIPOS>MOLECULE
USC
   24    24     1     0     0
SMALL
bcc


@<TRIPOS>ATOM
      1 CAG         0.0030    0.3560   -0.0240 c3        1 USC     -0.357300
      2 OAI        -1.4730    3.9800   -2.4790 o         1 USC     -0.850800
      3 OAJ         4.2420    0.7290   -5.4220 o         1 USC     -0.850800
      4 OAO         1.9770    0.3890    1.5680 o         1 USC     -0.697800
      5 OAP         1.9650   -1.2160   -0.1600 o         1 USC     -0.697800
      6 CBG         0.8750    2.5130   -2.1430 ca        1 USC     -0.119500
      7 CBH         2.6810    1.2300   -3.1440 ca        1 USC     -0.119500
      8 CBI         1.1810    2.5180   -4.5380 ca        1 USC     -0.057000
      9 O2         -0.9740    4.4540   -4.5930 o         1 USC     -0.850800
     10 O1          2.5900    1.3530   -6.7730 o         1 USC     -0.850800
     11 NBU         2.3870    1.2240   -0.7040 nu        1 USC     -0.794500
     12 CBX        -0.7380    3.8520   -3.5070 c         1 USC      0.907200
     13 CBY         3.0900    1.2230   -5.6190 c         1 USC      0.907200
     14 CCF         1.9740    1.6400   -1.9980 ca        1 USC      0.015600
     15 CCG         0.4710    2.9390   -3.4080 ca        1 USC     -0.149100
     16 CCH         2.2880    1.6710   -4.4100 ca        1 USC     -0.149100
     17 SCT         1.6720    0.1210    0.1960 s6        1 USC      1.462900
     18 HAG        -0.3880    1.2310    0.5510 h1        1 USC      0.118367
     19 HAGA       -0.5690   -0.5430    0.3080 h1        1 USC      0.118367
     20 HAGB       -0.2940    0.5440   -1.0910 h1        1 USC      0.118367
     21 HBG         0.3040    2.8730   -1.2720 ha        1 USC      0.140000
     22 HBH         3.5590    0.5680   -3.0740 ha        1 USC      0.140000
     23 HBI         0.8670    2.8590   -5.5390 ha        1 USC      0.167000
     24 HNBU        3.1610    1.7450   -0.3650 hn        1 USC      0.448800
@<TRIPOS>BOND
     1    1   17 1   
     2    1   18 1   
     3    1   19 1   
     4    1   20 1   
     5    2   12 1   
     6    3   13 1   
     7    4   17 2   
     8    5   17 2   
     9    6   14 ar  
    10    6   15 ar  
    11    6   21 1   
    12    7   14 ar  
    13    7   16 ar  
    14    7   22 1   
    15    8   15 ar  
    16    8   16 ar  
    17    8   23 1   
    18    9   12 1   
    19   10   13 1   
    20   11   14 1   
    21   11   17 1   
    22   11   24 1   
    23   12   15 1   
    24   13   16 1   
@<TRIPOS>SUBSTRUCTURE
     1 USC         1 TEMP              0 ****  ****    0 ROOT
