@<TRIPOS>MOLECULE
USC
   24    21     1     0     0
SMALL
bcc


@<TRIPOS>ATOM
      1 CAG        -0.1170   -0.7520    4.1800 c3        1 USC     -0.357300
      2 OAI        -2.8710    1.9660   -2.8420 o         1 USC     -0.850800
      3 OAJ         2.9480   -1.0080   -2.9660 o         1 USC     -0.850800
      4 OAO         0.8320   -2.0880    2.0890 o         1 USC     -0.697800
      5 OAP        -1.3490   -1.6780    2.0170 o         1 USC     -0.697800
      6 CBG        -0.7570    1.2280   -0.4470 c1        1 USC     -0.039000
      7 CBH         0.8860   -0.5190   -0.5560 c1        1 USC     -0.045500
      8 CBI        -0.0040    0.4200   -2.5780 c1        1 USC     -0.039000
      9 O2         -1.2600    3.4340   -2.7770 o         1 USC     -0.850800
     10 O1          1.3170   -2.4250   -3.2630 o         1 USC     -0.850800
     11 NBU         0.1710    0.3210    1.6070 n3        1 USC     -0.768700
     12 CBX        -1.6930    2.2780   -2.5270 c         1 USC      0.855800
     13 CBY         1.7530   -1.3520   -2.7690 c         1 USC      0.855800
     14 CCF         0.0880    0.3320    0.1910 c1        1 USC     -0.010200
     15 CCG        -0.8030    1.2710   -1.8310 cg        1 USC     -0.097700
     16 CCH         0.8400   -0.4760   -1.9410 cg        1 USC     -0.097700
     17 SCT        -0.1180   -1.0670    2.4350 s6        1 USC      1.462900
     18 HAG        -0.3270   -1.5790    4.6610 h1        1 USC      0.118367
     19 HAGA        0.7680   -0.4310    4.4530 h1        1 USC      0.118367
     20 HAGB       -0.7900   -0.0720    4.3890 h1        1 USC      0.118367
     21 HBG        -1.3370    1.8100    0.0790 ha        1 USC      0.093500
     22 HBH         1.4810   -1.1500   -0.1070 ha        1 USC      0.087500
     23 HBI        -0.0370    0.4500   -3.5530 ha        1 USC      0.093500
     24 HNBU        0.3780    1.0860    2.0570 hn        1 USC      0.448800
@<TRIPOS>BOND
     1    1   17 1   
     2    1   18 1   
     3    1   19 1   
     4    1   20 1   
     5    2   12 1   
     6    3   13 1   
     7    4   17 2   
     8    5   17 2   
     9    6   15 3   
    10    6   21 1   
    11    7   14 3   
    12    7   22 1   
    13    8   16 3   
    14    8   23 1   
    15    9   12 1   
    16   10   13 1   
    17   11   14 1   
    18   11   17 1   
    19   11   24 1   
    20   12   15 1   
    21   13   16 1   
@<TRIPOS>SUBSTRUCTURE
     1 USC         1 TEMP              0 ****  ****    0 ROOT
