@<TRIPOS>MOLECULE
USM
   35    36     1     0     0
SMALL
bcc


@<TRIPOS>ATOM
      1 OP2        -4.1590    1.0220    1.7780 o         1 USM     -0.922833
      2 P          -2.9490    0.2110    1.4610 p5        1 USM      1.342900
      3 OP1        -1.5890    0.7880    1.8070 o         1 USM     -0.922833
      4 OP3        -2.9590   -1.2850    1.6750 o         1 USM     -0.922833
      5 O5'        -2.8550    0.1760   -0.2710 os        1 USM     -0.569200
      6 N1          2.0950    0.4740    0.0280 n         1 USM     -0.372000
      7 C6          1.3300    1.1390    0.9770 cc        1 USM      0.073600
      8 C2          3.3820    0.9610   -0.2990 c         1 USM      0.797500
      9 O2          4.1130    0.4340   -1.1760 o         1 USM     -0.700500
     10 N3          3.8870    2.0660    0.4090 n         1 USM     -0.598500
     11 C4          3.1480    2.7390    1.4030 c         1 USM      0.716700
     12 O4          3.6960    3.7120    1.9670 o         1 USM     -0.692500
     13 C5          1.8180    2.2160    1.6630 cd        1 USM     -0.371200
     14 C2'         1.0100   -1.7990    0.1050 c3        1 USM     -0.007600
     15 S2'         1.7600   -3.2770   -0.5680 ss        1 USM     -0.345200
     16 C2A         1.1090   -4.5820    0.4070 c3        1 USM     -0.029000
     17 C5'        -1.6750    0.5240   -0.8630 c3        1 USM      0.224400
     18 C4'        -0.7690   -0.6950   -1.1710 c3        1 USM      0.065100
     19 O4'         0.5140   -0.2050   -1.6270 os        1 USM     -0.429600
     20 C1'         1.5620   -0.6450   -0.7700 c3        1 USM      0.318500
     21 C3'        -0.5070   -1.5960    0.0530 c3        1 USM      0.111100
     22 O3'        -1.2380   -2.7940   -0.0180 oh        1 USM     -0.656800
     23 H6          0.2710    0.7650    1.1800 h4        1 USM      0.307000
     24 H5          1.2030    2.7230    2.4170 ha        1 USM      0.188000
     25 H2'         1.3400   -1.7320    1.1710 h1        1 USM      0.080700
     26 H2A         0.0050   -4.4820    0.5380 h1        1 USM      0.060367
     27 H2AA        1.3360   -5.5260   -0.1360 h1        1 USM      0.060367
     28 H2AB        1.5870   -4.6100    1.4110 h1        1 USM      0.060367
     29 H5'        -1.8960    1.0100   -1.8600 h1        1 USM     -0.000300
     30 H5'A       -1.0950    1.2550   -0.2330 h1        1 USM     -0.000300
     31 H4'        -1.1850   -1.2940   -2.0220 h1        1 USM      0.053700
     32 H1'         2.3940   -0.9940   -1.4550 h2        1 USM      0.107700
     33 H3'        -0.8340   -1.0240    0.9930 h1        1 USM      0.156700
     34 HO3'       -2.0720   -2.6070    0.4780 ho        1 USM      0.494000
     35 HN3         4.7950    2.3830    0.1600 hn        1 USM      0.321500
@<TRIPOS>BOND
     1    1    2 1   
     2    2    3 1   
     3    2    4 1   
     4    2    5 1   
     5    5   17 1   
     6    6    7 1   
     7    6    8 1   
     8    6   20 1   
     9    7   13 2   
    10    7   23 1   
    11    8    9 2   
    12    8   10 1   
    13   10   11 1   
    14   10   35 1   
    15   11   12 2   
    16   11   13 1   
    17   13   24 1   
    18   14   15 1   
    19   14   20 1   
    20   14   21 1   
    21   14   25 1   
    22   15   16 1   
    23   16   26 1   
    24   16   27 1   
    25   16   28 1   
    26   17   18 1   
    27   17   29 1   
    28   17   30 1   
    29   18   19 1   
    30   18   21 1   
    31   18   31 1   
    32   19   20 1   
    33   20   32 1   
    34   21   22 1   
    35   21   33 1   
    36   22   34 1   
@<TRIPOS>SUBSTRUCTURE
     1 USM         1 TEMP              0 ****  ****    0 ROOT
