@<TRIPOS>MOLECULE
UTH
   54    57     1     0     0
SMALL
bcc


@<TRIPOS>ATOM
      1 C01         5.3050    3.0570   -0.5000 c3        1 UTH     -0.133400
      2 C02         5.6180    1.6170   -0.5330 cc        1 UTH      0.366600
      3 N01         6.8490    1.0740   -0.6210 nd        1 UTH     -0.394300
      4 O01         6.7480   -0.2430   -0.6400 os        1 UTH     -0.135100
      5 C03         5.3890   -0.6290   -0.5560 cd        1 UTH      0.269000
      6 C04         5.1230   -2.0660   -0.5800 c3        1 UTH     -0.138400
      7 C05         4.6290    0.5270   -0.4820 cc        1 UTH     -0.359100
      8 C06         3.1820    0.6540   -0.3800 ca        1 UTH      0.493800
      9 C07         2.4640   -0.3900    0.2890 ca        1 UTH     -0.281300
     10 C08         1.0970   -0.3020    0.3810 ca        1 UTH     -0.051000
     11 C09         0.4160    0.8100   -0.1740 ca        1 UTH     -0.198300
     12 C10        -1.0190    0.9750   -0.1060 ca        1 UTH      0.174600
     13 N02        -1.8150    0.0230    0.5710 nh        1 UTH     -0.625000
     14 C11        -1.9770   -1.2830    0.0850 ca        1 UTH      0.178600
     15 C12        -1.2480   -1.7260   -1.0470 ca        1 UTH     -0.198000
     16 C13        -1.3140   -3.0390   -1.4870 ca        1 UTH     -0.106000
     17 C14        -2.1240   -3.9500   -0.8190 ca        1 UTH     -0.190000
     18 C15        -2.8750   -3.5260    0.2740 ca        1 UTH     -0.109000
     19 C16        -2.8380   -2.2110    0.7520 ca        1 UTH     -0.106300
     20 C17        -3.7290   -1.8220    1.9100 c3        1 UTH      0.002300
     21 C18        -4.3480   -3.0520    2.5850 c3        1 UTH     -0.093100
     22 C19        -2.9610   -1.0660    2.9960 c3        1 UTH     -0.093100
     23 C20        -4.8940   -0.9740    1.3980 c3        1 UTH     -0.093100
     24 C21        -1.5650    2.1510   -0.6120 ca        1 UTH     -0.277900
     25 C22        -0.6830    3.1010   -1.2160 ca        1 UTH      0.464200
     26 N1          0.6260    2.9860   -1.3320 nb        1 UTH     -0.685000
     27 C23         1.2100    1.8370   -0.8020 ca        1 UTH      0.633300
     28 C1         -3.0390    2.5290   -0.5680 c         1 UTH      0.920200
     29 O02        -3.4380    3.3820   -1.4050 o         1 UTH     -0.819800
     30 O1         -3.7810    1.9970    0.3090 o         1 UTH     -0.819800
     31 N51         2.5910    1.7290   -0.9030 nb        1 UTH     -0.646000
     32 H011        4.7860    3.3460   -1.4500 hc        1 UTH      0.065033
     33 H012        4.6120    3.2700    0.3530 hc        1 UTH      0.065033
     34 H013        6.2250    3.6810   -0.3850 hc        1 UTH      0.065033
     35 H041        5.9340   -2.6070   -1.1290 hc        1 UTH      0.063367
     36 H042        5.0770   -2.4640    0.4670 hc        1 UTH      0.063367
     37 H043        4.1430   -2.2630   -1.0820 hc        1 UTH      0.063367
     38 H07         3.0160   -1.2320    0.7250 ha        1 UTH      0.132000
     39 H08         0.5240   -1.0950    0.8880 ha        1 UTH      0.152000
     40 H02        -2.6730    0.4400    0.9180 hn        1 UTH      0.476800
     41 H12        -0.6180   -1.0110   -1.6010 ha        1 UTH      0.143000
     42 H13        -0.7330   -3.3500   -2.3670 ha        1 UTH      0.119000
     43 H14        -2.1850   -4.9940   -1.1550 ha        1 UTH      0.116000
     44 H15        -3.5180   -4.2780    0.7550 ha        1 UTH      0.121000
     45 H181       -3.5540   -3.7570    2.9250 hc        1 UTH      0.038478
     46 H182       -4.9410   -2.7300    3.4750 hc        1 UTH      0.038478
     47 H183       -5.0450   -3.5810    1.8920 hc        1 UTH      0.038478
     48 H191       -3.1080    0.0370    2.9020 hc        1 UTH      0.038478
     49 H192       -3.3250   -1.3580    4.0120 hc        1 UTH      0.038478
     50 H193       -1.8710   -1.2960    2.9450 hc        1 UTH      0.038478
     51 H201       -5.4730   -1.5480    0.6360 hc        1 UTH      0.038478
     52 H202       -5.5730   -0.7260    2.2490 hc        1 UTH      0.038478
     53 H203       -4.5600   -0.0130    0.9330 hc        1 UTH      0.038478
     54 H22        -1.1450    4.0160   -1.6470 h4        1 UTH      0.055100
@<TRIPOS>BOND
     1    1    2 1   
     2    1   32 1   
     3    1   33 1   
     4    1   34 1   
     5    2    3 2   
     6    2    7 1   
     7    3    4 1   
     8    4    5 1   
     9    5    6 1   
    10    5    7 2   
    11    6   35 1   
    12    6   36 1   
    13    6   37 1   
    14    7    8 1   
    15    8    9 ar  
    16    8   31 ar  
    17    9   10 ar  
    18    9   38 1   
    19   10   11 ar  
    20   10   39 1   
    21   11   12 ar  
    22   11   27 ar  
    23   12   13 1   
    24   12   24 ar  
    25   13   14 1   
    26   13   40 1   
    27   14   15 ar  
    28   14   19 ar  
    29   15   16 ar  
    30   15   41 1   
    31   16   17 ar  
    32   16   42 1   
    33   17   18 ar  
    34   17   43 1   
    35   18   19 ar  
    36   18   44 1   
    37   19   20 1   
    38   20   21 1   
    39   20   22 1   
    40   20   23 1   
    41   21   45 1   
    42   21   46 1   
    43   21   47 1   
    44   22   48 1   
    45   22   49 1   
    46   22   50 1   
    47   23   51 1   
    48   23   52 1   
    49   23   53 1   
    50   24   25 ar  
    51   24   28 1   
    52   25   26 ar  
    53   25   54 1   
    54   26   27 ar  
    55   27   31 ar  
    56   28   29 1   
    57   28   30 1   
@<TRIPOS>SUBSTRUCTURE
     1 UTH         1 TEMP              0 ****  ****    0 ROOT
