@<TRIPOS>MOLECULE
UTH
   54    57     1     0     0
SMALL
bcc


@<TRIPOS>ATOM
      1 C01         0.9320    2.9060   -0.2040 c3        1 UTH     -0.133400
      2 C02         1.7700    1.8000    0.2950 cc        1 UTH      0.366600
      3 N01         2.3360    1.7210    1.5160 nd        1 UTH     -0.393300
      4 O01         3.0040    0.5860    1.6180 os        1 UTH     -0.135100
      5 C03         2.9000   -0.1510    0.4140 cd        1 UTH      0.269000
      6 C04         3.5820   -1.4430    0.3870 c3        1 UTH     -0.138400
      7 C05         2.1240    0.5880   -0.4640 cc        1 UTH     -0.358100
      8 C06         1.7340    0.2580   -1.8270 ca        1 UTH      0.493800
      9 C07         2.6290   -0.5460   -2.6050 ca        1 UTH     -0.281300
     10 C08         2.2860   -0.8640   -3.8950 ca        1 UTH     -0.051000
     11 C09         1.0620   -0.4040   -4.4400 ca        1 UTH     -0.198300
     12 C10         0.6250   -0.7150   -5.7830 ca        1 UTH      0.173600
     13 N02         1.4020   -1.5610   -6.6080 nu        1 UTH     -0.625000
     14 C11         2.6530   -1.1630   -7.1020 ca        1 UTH      0.177600
     15 C12         3.2350    0.0610   -6.6880 ca        1 UTH     -0.198000
     16 C13         4.5120    0.4300   -7.0820 ca        1 UTH     -0.105000
     17 C14         5.2450   -0.4060   -7.9170 ca        1 UTH     -0.190000
     18 C15         4.6770   -1.5970   -8.3620 ca        1 UTH     -0.109000
     19 C16         3.3930   -2.0090   -7.9890 ca        1 UTH     -0.106300
     20 C17         2.8330   -3.2890   -8.5660 c3        1 UTH      0.003300
     21 C18         3.9150   -4.1110   -9.2740 c3        1 UTH     -0.093100
     22 C19         2.2350   -4.1910   -7.4840 c3        1 UTH     -0.093100
     23 C20         1.7770   -2.9580   -9.6200 c3        1 UTH     -0.093100
     24 C21        -0.6300   -0.2640   -6.1830 ca        1 UTH     -0.276900
     25 C22        -1.3890    0.5250   -5.2620 ca        1 UTH      0.464200
     26 N1         -1.0270    0.8600   -4.0390 nb        1 UTH     -0.685000
     27 C23         0.2060    0.3890   -3.5920 ca        1 UTH      0.632300
     28 C1         -1.2810   -0.5480   -7.5290 c         1 UTH      0.920200
     29 O02        -2.1800    0.2470   -7.9100 o         1 UTH     -0.819800
     30 O1         -0.9140   -1.5690   -8.1820 o         1 UTH     -0.819800
     31 N51         0.5700    0.7140   -2.2920 nb        1 UTH     -0.646000
     32 H011        1.3020    3.2320   -1.2080 hc        1 UTH      0.065033
     33 H012       -0.1230    2.5480   -0.3200 hc        1 UTH      0.065033
     34 H013        0.9440    3.7820    0.4900 hc        1 UTH      0.065033
     35 H041        3.0120   -2.1610   -0.2550 hc        1 UTH      0.063367
     36 H042        4.6130   -1.3240   -0.0360 hc        1 UTH      0.063367
     37 H043        3.6710   -1.8630    1.4210 hc        1 UTH      0.063367
     38 H07         3.5750   -0.8830   -2.1630 ha        1 UTH      0.132000
     39 H08         2.9630   -1.4770   -4.5130 ha        1 UTH      0.153000
     40 H02         0.8240   -2.0370   -7.2950 hn        1 UTH      0.476800
     41 H12         2.6600    0.7450   -6.0430 ha        1 UTH      0.143000
     42 H13         4.9350    1.3850   -6.7390 ha        1 UTH      0.120000
     43 H14         6.2580   -0.1280   -8.2360 ha        1 UTH      0.116000
     44 H15         5.2870   -2.2130   -9.0390 ha        1 UTH      0.121000
     45 H181        4.3010   -3.5740  -10.1730 hc        1 UTH      0.038367
     46 H182        4.7600   -4.3330   -8.5810 hc        1 UTH      0.038367
     47 H183        3.4800   -5.0800   -9.6240 hc        1 UTH      0.038367
     48 H191        1.1250   -4.0810   -7.4320 hc        1 UTH      0.038367
     49 H192        2.4450   -5.2670   -7.7070 hc        1 UTH      0.038367
     50 H193        2.6740   -3.9580   -6.4850 hc        1 UTH      0.038367
     51 H201        1.3960   -3.9060  -10.0730 hc        1 UTH      0.038367
     52 H202        2.2310   -2.3350  -10.4270 hc        1 UTH      0.038367
     53 H203        0.9020   -2.4020   -9.1990 hc        1 UTH      0.038367
     54 H22        -2.3700    0.9090   -5.6170 h4        1 UTH      0.055100
@<TRIPOS>BOND
     1    1    2 1   
     2    1   32 1   
     3    1   33 1   
     4    1   34 1   
     5    2    3 2   
     6    2    7 1   
     7    3    4 1   
     8    4    5 1   
     9    5    6 1   
    10    5    7 2   
    11    6   35 1   
    12    6   36 1   
    13    6   37 1   
    14    7    8 1   
    15    8    9 ar  
    16    8   31 ar  
    17    9   10 ar  
    18    9   38 1   
    19   10   11 ar  
    20   10   39 1   
    21   11   12 ar  
    22   11   27 ar  
    23   12   13 1   
    24   12   24 ar  
    25   13   14 1   
    26   13   40 1   
    27   14   15 ar  
    28   14   19 ar  
    29   15   16 ar  
    30   15   41 1   
    31   16   17 ar  
    32   16   42 1   
    33   17   18 ar  
    34   17   43 1   
    35   18   19 ar  
    36   18   44 1   
    37   19   20 1   
    38   20   21 1   
    39   20   22 1   
    40   20   23 1   
    41   21   45 1   
    42   21   46 1   
    43   21   47 1   
    44   22   48 1   
    45   22   49 1   
    46   22   50 1   
    47   23   51 1   
    48   23   52 1   
    49   23   53 1   
    50   24   25 ar  
    51   24   28 1   
    52   25   26 ar  
    53   25   54 1   
    54   26   27 ar  
    55   27   31 ar  
    56   28   29 1   
    57   28   30 1   
@<TRIPOS>SUBSTRUCTURE
     1 UTH         1 TEMP              0 ****  ****    0 ROOT
