@<TRIPOS>MOLECULE
UTH
   55    58     1     0     0
SMALL
bcc


@<TRIPOS>ATOM
      1 C01        -0.0700    0.9600    0.1440 c3        1 UTH     -0.136400
      2 C02         1.3470    0.5610    0.2430 cc        1 UTH      0.374600
      3 N01         2.0640    0.4740    1.3810 nd        1 UTH     -0.369300
      4 O01         3.2910    0.0770    1.0980 os        1 UTH     -0.115100
      5 C03         3.4380   -0.1130   -0.2910 cd        1 UTH      0.297000
      6 C04         4.7530   -0.5680   -0.7420 c3        1 UTH     -0.147400
      7 C05         2.2200    0.1890   -0.8840 cc        1 UTH     -0.402100
      8 C06         1.8640    0.1450   -2.2910 ca        1 UTH      0.532800
      9 C07         2.9010    0.3550   -3.2620 ca        1 UTH     -0.238300
     10 C08         2.5920    0.2950   -4.5960 ca        1 UTH     -0.090000
     11 C09         1.2650    0.0290   -5.0170 ca        1 UTH     -0.190300
     12 C10         0.8290   -0.0710   -6.3830 ca        1 UTH      0.036600
     13 N02         1.7380    0.0510   -7.5290 n4        1 UTH     -0.563800
     14 C11         3.0670   -0.5560   -7.4990 ca        1 UTH     -0.001400
     15 C12         4.1410    0.3700   -7.5270 ca        1 UTH     -0.141000
     16 C13         5.4590   -0.0570   -7.5300 ca        1 UTH     -0.120000
     17 C14         5.7290   -1.4240   -7.4940 ca        1 UTH     -0.101000
     18 C15         4.6810   -2.3340   -7.4980 ca        1 UTH     -0.128000
     19 C16         3.3250   -1.9470   -7.5410 ca        1 UTH      0.001700
     20 C17         2.2890   -3.0460   -7.6350 c3        1 UTH     -0.020700
     21 C18         2.9150   -4.3700   -8.0910 c3        1 UTH     -0.099100
     22 C19         1.6800   -3.2970   -6.2580 c3        1 UTH     -0.099100
     23 C20         1.1940   -2.7170   -8.6450 c3        1 UTH     -0.099100
     24 C21        -0.5230   -0.2060   -6.6610 ca        1 UTH     -0.225900
     25 C22        -1.4270   -0.3270   -5.5480 ca        1 UTH      0.453200
     26 N1         -1.0830   -0.3060   -4.2820 nb        1 UTH     -0.618000
     27 C23         0.2680   -0.1190   -3.9800 ca        1 UTH      0.645300
     28 C1         -1.1540   -0.2120   -8.0510 c         1 UTH      0.911200
     29 O02        -2.3940   -0.3140   -8.1330 o         1 UTH     -0.761800
     30 O1         -0.3720   -0.1070   -9.0580 o         1 UTH     -0.761800
     31 N51         0.5940   -0.0760   -2.6350 nb        1 UTH     -0.625000
     32 H011       -0.6850    0.0760   -0.1650 hc        1 UTH      0.068700
     33 H012       -0.4610    1.3460    1.1180 hc        1 UTH      0.068700
     34 H013       -0.1840    1.7570   -0.6330 hc        1 UTH      0.068700
     35 H041        5.2880   -1.1000    0.0850 hc        1 UTH      0.069033
     36 H042        4.6410   -1.2630   -1.6120 hc        1 UTH      0.069033
     37 H043        5.3740    0.3100   -1.0560 hc        1 UTH      0.069033
     38 H07         3.9220    0.5740   -2.9190 ha        1 UTH      0.150000
     39 H08         3.3900    0.4670   -5.3330 ha        1 UTH      0.140000
     40 H02         1.1850   -0.3090   -8.4050 hn        1 UTH      0.487800
     41 H12         3.9450    1.4560   -7.5460 ha        1 UTH      0.143000
     42 H13         6.2780    0.6770   -7.5590 ha        1 UTH      0.152000
     43 H14         6.7700   -1.7820   -7.4720 ha        1 UTH      0.150000
     44 H15         4.9500   -3.4030   -7.4680 ha        1 UTH      0.157000
     45 H181        2.1050   -5.1150   -8.2870 hc        1 UTH      0.048811
     46 H182        3.5730   -4.8030   -7.3000 hc        1 UTH      0.048811
     47 H183        3.4980   -4.2280   -9.0310 hc        1 UTH      0.048811
     48 H191        1.1670   -2.3860   -5.8710 hc        1 UTH      0.048811
     49 H192        0.9280   -4.1210   -6.3300 hc        1 UTH      0.048811
     50 H193        2.4720   -3.5970   -5.5310 hc        1 UTH      0.048811
     51 H201        1.5830   -2.0860   -9.4800 hc        1 UTH      0.048811
     52 H202        0.3290   -2.2020   -8.1590 hc        1 UTH      0.048811
     53 H203        0.7850   -3.6540   -9.0990 hc        1 UTH      0.048811
     54 H22        -2.5090   -0.4510   -5.7860 h4        1 UTH      0.083100
     55 H022        1.8530    1.0620   -7.6790 hn        1 UTH      0.487800
@<TRIPOS>BOND
     1    1    2 1   
     2    1   32 1   
     3    1   33 1   
     4    1   34 1   
     5    2    3 2   
     6    2    7 1   
     7    3    4 1   
     8    4    5 1   
     9    5    6 1   
    10    5    7 2   
    11    6   35 1   
    12    6   36 1   
    13    6   37 1   
    14    7    8 1   
    15    8    9 ar  
    16    8   31 ar  
    17    9   10 ar  
    18    9   38 1   
    19   10   11 ar  
    20   10   39 1   
    21   11   12 ar  
    22   11   27 ar  
    23   12   13 1   
    24   12   24 ar  
    25   13   14 1   
    26   13   40 1   
    27   13   55 1   
    28   14   15 ar  
    29   14   19 ar  
    30   15   16 ar  
    31   15   41 1   
    32   16   17 ar  
    33   16   42 1   
    34   17   18 ar  
    35   17   43 1   
    36   18   19 ar  
    37   18   44 1   
    38   19   20 1   
    39   20   21 1   
    40   20   22 1   
    41   20   23 1   
    42   21   45 1   
    43   21   46 1   
    44   21   47 1   
    45   22   48 1   
    46   22   49 1   
    47   22   50 1   
    48   23   51 1   
    49   23   52 1   
    50   23   53 1   
    51   24   25 ar  
    52   24   28 1   
    53   25   26 ar  
    54   25   54 1   
    55   26   27 ar  
    56   27   31 ar  
    57   28   29 1   
    58   28   30 1   
@<TRIPOS>SUBSTRUCTURE
     1 UTH         1 TEMP              0 ****  ****    0 ROOT
