@<TRIPOS>MOLECULE
UTP
   40    41     1     0     0
SMALL
bcc


@<TRIPOS>ATOM
      1 PA          0.0000    0.0000    0.0000 p5        1 UTP      0.917800
      2 O1A         1.4800    0.0000    0.0000 o         1 UTP     -0.650500
      3 O2A        -0.5370    0.0000    1.5190 o         1 UTP     -0.650500
      4 O3A        -0.5370   -1.3150   -0.7580 os        1 UTP     -0.477800
      5 O5'        -0.5370    1.3140   -0.7590 os        1 UTP     -0.467200
      6 PB          0.3350   -2.5550   -0.2140 p5        1 UTP      0.968800
      7 O1B        -0.2350   -3.0270    1.2150 o         1 UTP     -0.467500
      8 O2B         1.7480   -2.1370   -0.0680 o         1 UTP     -0.467500
      9 O3B         0.2430   -3.7750   -1.2600 os        1 UTP     -0.468800
     10 PG          1.4210   -4.8040   -0.8800 p5        1 UTP      0.781900
     11 O1G         0.9610   -5.7100    0.3690 o         1 UTP     -0.649167
     12 O2G         2.6400   -4.0470   -0.5170 o         1 UTP     -0.649167
     13 O3G         1.7340   -5.7520   -2.1430 o         1 UTP     -0.649167
     14 C5'         0.0660    2.4380   -0.1140 c3        1 UTP      0.246400
     15 C4'        -0.4050    3.7270   -0.7920 c3        1 UTP      0.149100
     16 O4'        -1.8210    3.9230   -0.5710 os        1 UTP     -0.339600
     17 C1'        -2.0520    5.3310   -0.7950 c3        1 UTP      0.211500
     18 C2'        -0.8410    6.0370   -0.1460 c3        1 UTP      0.101100
     19 O2'        -0.4390    7.1660   -0.9250 oh        1 UTP     -0.577800
     20 C3'         0.2660    4.9590   -0.1460 c3        1 UTP      0.132100
     21 O3'         1.3830    5.3870   -0.9270 oh        1 UTP     -0.579800
     22 N1         -3.2950    5.7550   -0.1470 n         1 UTP      0.147000
     23 C6         -4.2250    6.4610   -0.8610 cc        1 UTP     -0.566400
     24 C2         -3.5150    5.4440    1.1440 c         1 UTP      0.571500
     25 O2         -2.6760    4.8160    1.7590 o         1 UTP     -0.796500
     26 N3         -4.6470    5.8240    1.7650 ns        1 UTP     -0.166500
     27 C4         -5.5880    6.5210    1.0950 c         1 UTP      0.524700
     28 O4         -6.6150    6.8620    1.6540 o         1 UTP     -0.901500
     29 C5         -5.3720    6.8520   -0.2640 cd        1 UTP     -0.392200
     30 H5'1       -0.2220    2.4520    0.9300 h1        1 UTP      0.012700
     31 H5'2        1.1440    2.3630   -0.1910 h1        1 UTP      0.012700
     32 H4'        -0.1930    3.6990   -1.8540 h1        1 UTP      0.011700
     33 H1'        -2.0820    5.5410   -1.8570 h2        1 UTP      0.022700
     34 H2'        -1.0770    6.3340    0.8690 h1        1 UTP      0.036700
     35 HA         -0.3220    7.9120   -0.3610 ho        1 UTP      0.356000
     36 H3'         0.5710    4.7330    0.8690 h1        1 UTP      0.020700
     37 HB          2.1350    5.4930   -0.3680 ho        1 UTP      0.360000
     38 H6         -4.0010    6.7850   -1.8700 h4        1 UTP      0.100000
     39 H3         -4.7920    5.5880    2.7260 hn        1 UTP      0.150500
     40 H5         -6.1160    7.4110   -0.8190 ha        1 UTP      0.084000
@<TRIPOS>BOND
     1    1    2 1   
     2    1    3 1   
     3    1    4 1   
     4    1    5 1   
     5    4    6 1   
     6    5   14 1   
     7    6    7 1   
     8    6    8 1   
     9    6    9 1   
    10    9   10 1   
    11   10   11 1   
    12   10   12 1   
    13   10   13 1   
    14   14   15 1   
    15   14   30 1   
    16   14   31 1   
    17   15   16 1   
    18   15   20 1   
    19   15   32 1   
    20   16   17 1   
    21   17   18 1   
    22   17   22 1   
    23   17   33 1   
    24   18   19 1   
    25   18   20 1   
    26   18   34 1   
    27   19   35 1   
    28   20   21 1   
    29   20   36 1   
    30   21   37 1   
    31   22   23 1   
    32   22   24 1   
    33   23   29 2   
    34   23   38 1   
    35   24   25 2   
    36   24   26 1   
    37   26   27 1   
    38   26   39 1   
    39   27   28 2   
    40   27   29 1   
    41   29   40 1   
@<TRIPOS>SUBSTRUCTURE
     1 UTP         1 TEMP              0 ****  ****    0 ROOT
