@<TRIPOS>MOLECULE
UU4
   28    27     1     0     0
SMALL
bcc


@<TRIPOS>ATOM
      1 N          -3.0190    1.1750    1.4170 n3        1 UU4     -0.891800
      2 CA         -2.8570    0.3960    0.1970 c3        1 UU4      0.019500
      3 C          -3.9350   -0.7240   -0.0100 c         1 UU4      0.888600
      4 O          -4.8930   -0.7800    0.8110 o         1 UU4     -0.839800
      5 C3         -1.4780   -0.2520    0.0720 c3        1 UU4     -0.082400
      6 C4         -0.3840    0.8020   -0.0740 c3        1 UU4      0.084000
      7 N2          0.8950    0.2400   -0.4500 n         1 UU4     -0.548900
      8 C5          2.0910    0.7440   -0.0280 c         1 UU4      0.610100
      9 C6          3.3750   -0.0100   -0.4610 c3        1 UU4      0.045500
     10 O2          2.1880    1.7880    0.6550 o         1 UU4     -0.640100
     11 OXT        -3.7910   -1.4910   -1.0020 o         1 UU4     -0.839800
     12 H1         -4.0000    1.3860    1.5060 hn        1 UU4      0.333300
     13 H2         -2.7860    0.5910    2.2020 hn        1 UU4      0.333300
     14 HA         -2.9890    1.1180   -0.6620 h1        1 UU4      0.042700
     15 H5         -1.2710   -0.8980    0.9630 hc        1 UU4      0.053700
     16 H6         -1.5170   -0.9190   -0.8320 hc        1 UU4      0.053700
     17 H7         -0.6850    1.5430   -0.8700 h1        1 UU4      0.057700
     18 H8         -0.2620    1.3720    0.8910 h1        1 UU4      0.057700
     19 H9          0.8800   -0.6240   -0.9390 hn        1 UU4      0.308500
     20 H10         3.2620   -0.3500   -1.5330 h1        1 UU4      0.079700
     21 N3          4.5700    0.8080   -0.4020 n3        1 UU4     -0.894800
     22 C7          3.5000   -1.2710    0.4200 c3        1 UU4      0.139400
     23 O4          4.4640   -2.1680   -0.0860 oh        1 UU4     -0.603800
     24 H11         4.4860    1.5690   -1.0480 hn        1 UU4      0.357300
     25 H12         4.6700    1.1960    0.5200 hn        1 UU4      0.357300
     26 H131        3.7460   -0.9900    1.4790 h1        1 UU4      0.054200
     27 H14         2.5380   -1.8500    0.4000 h1        1 UU4      0.054200
     28 H15         5.3010   -1.6920   -0.1530 ho        1 UU4      0.411000
@<TRIPOS>BOND
     1    1    2 1   
     2    1   12 1   
     3    1   13 1   
     4    2    3 1   
     5    2    5 1   
     6    2   14 1   
     7    3    4 1   
     8    3   11 1   
     9    5    6 1   
    10    5   15 1   
    11    5   16 1   
    12    6    7 1   
    13    6   17 1   
    14    6   18 1   
    15    7    8 1   
    16    7   19 1   
    17    8    9 1   
    18    8   10 2   
    19    9   20 1   
    20    9   21 1   
    21    9   22 1   
    22   21   24 1   
    23   21   25 1   
    24   22   23 1   
    25   22   26 1   
    26   22   27 1   
    27   23   28 1   
@<TRIPOS>SUBSTRUCTURE
     1 UU4         1 TEMP              0 ****  ****    0 ROOT
