@<TRIPOS>MOLECULE
UU5
   21    20     1     0     0
SMALL
bcc


@<TRIPOS>ATOM
      1 N          -2.1320    1.8160    0.3420 n3        1 UU5     -0.891800
      2 CA         -2.0350    0.4970   -0.2690 c3        1 UU5      0.018500
      3 C          -3.2890   -0.4170   -0.0470 c         1 UU5      0.889600
      4 O          -4.2920    0.0870    0.5330 o         1 UU5     -0.839300
      5 CB         -0.7990   -0.2850    0.1760 c3        1 UU5     -0.081400
      6 CG          0.4810    0.3920   -0.3050 c3        1 UU5      0.084000
      7 ND          1.6600   -0.4180   -0.0930 n         1 UU5     -0.527900
      8 CE          2.8970    0.1060    0.1210 c         1 UU5      0.535100
      9 CF          4.0520   -0.8540    0.3780 c         1 UU5      0.497900
     10 OE          3.1530    1.3310    0.1090 o         1 UU5     -0.615100
     11 O1         -3.2280   -1.6000   -0.4820 o         1 UU5     -0.839300
     12 H1         -3.0540    2.1680    0.1410 hn        1 UU5      0.333300
     13 H2         -2.0840    1.7100    1.3400 hn        1 UU5      0.333300
     14 H4         -1.9660    0.6660   -1.3840 h1        1 UU5      0.043700
     15 H5         -0.7850   -0.3850    1.2920 hc        1 UU5      0.055200
     16 H6         -0.8960   -1.3170   -0.2580 hc        1 UU5      0.055200
     17 H7          0.3960    0.6050   -1.4100 h1        1 UU5      0.058700
     18 H8          0.6200    1.3790    0.2210 h1        1 UU5      0.058700
     19 H9          1.5390   -1.4040   -0.0420 hn        1 UU5      0.324500
     20 H10         5.0090   -0.3300    0.5900 h4        1 UU5      0.022200
     21 O2          3.9490   -2.0780    0.3520 o         1 UU5     -0.513100
@<TRIPOS>BOND
     1    1    2 1   
     2    1   12 1   
     3    1   13 1   
     4    2    3 1   
     5    2    5 1   
     6    2   14 1   
     7    3    4 1   
     8    3   11 1   
     9    5    6 1   
    10    5   15 1   
    11    5   16 1   
    12    6    7 1   
    13    6   17 1   
    14    6   18 1   
    15    7    8 1   
    16    7   19 1   
    17    8    9 1   
    18    8   10 2   
    19    9   20 1   
    20    9   21 2   
@<TRIPOS>SUBSTRUCTURE
     1 UU5         1 TEMP              0 ****  ****    0 ROOT
