@<TRIPOS>MOLECULE
UUD
   21    22     1     0     0
SMALL
bcc


@<TRIPOS>ATOM
      1 O          -0.1210    0.0190    0.1990 o         1 UUD     -0.598100
      2 C1          1.1220    0.0070    0.0740 c         1 UUD      0.705500
      3 C           2.0280    0.0100    1.2760 c3        1 UUD     -0.148100
      4 N           1.7730   -0.0080   -1.1710 ne        1 UUD     -0.766100
      5 C2          1.1070   -0.0120   -2.3030 cd        1 UUD      0.588700
      6 S          -0.6420   -0.0000   -2.5600 ss        1 UUD     -0.001100
      7 C8         -0.4800   -0.0160   -4.2510 ca        1 UUD     -0.112100
      8 C3          0.8940   -0.0300   -4.6320 ca        1 UUD     -0.000200
      9 N1          1.7660   -0.0280   -3.5390 na        1 UUD     -0.301300
     10 C7         -1.4660   -0.0160   -5.2320 ca        1 UUD     -0.061000
     11 C6         -1.0970   -0.0300   -6.5750 ca        1 UUD     -0.148000
     12 C5          0.2510   -0.0440   -6.9440 ca        1 UUD     -0.095000
     13 C4          1.2610   -0.0450   -5.9860 ca        1 UUD     -0.147000
     14 HC1         2.6710   -0.9030    1.2760 hc        1 UUD      0.066033
     15 HC2         1.4040    0.0240    2.2020 hc        1 UUD      0.066033
     16 HC3         2.6870    0.9120    1.2600 hc        1 UUD      0.066033
     17 H1          2.7530   -0.0370   -3.6350 hn        1 UUD      0.319700
     18 H7         -2.5290   -0.0050   -4.9460 ha        1 UUD      0.146000
     19 H4          2.3180   -0.0560   -6.2850 ha        1 UUD      0.143000
     20 H6         -1.8750   -0.0300   -7.3530 ha        1 UUD      0.140000
     21 H5          0.5220   -0.0560   -8.0110 ha        1 UUD      0.138000
@<TRIPOS>BOND
     1    1    2 2   
     2    2    3 1   
     3    2    4 1   
     4    3   14 1   
     5    3   15 1   
     6    3   16 1   
     7    4    5 2   
     8    5    6 1   
     9    5    9 1   
    10    6    7 1   
    11    7    8 ar  
    12    7   10 ar  
    13    8    9 1   
    14    8   13 ar  
    15    9   17 1   
    16   10   11 ar  
    17   10   18 1   
    18   11   12 ar  
    19   11   20 1   
    20   12   13 ar  
    21   12   21 1   
    22   13   19 1   
@<TRIPOS>SUBSTRUCTURE
     1 UUD         1 TEMP              0 ****  ****    0 ROOT
