@<TRIPOS>MOLECULE
UUL
   31    33     1     0     0
SMALL
bcc


@<TRIPOS>ATOM
      1 C16         0.1440    0.1910   -0.0610 ca        1 UUL     -0.121000
      2 C19         1.3730    0.7120    0.3280 ca        1 UUL     -0.159500
      3 C12         1.7600    0.6500    1.6720 ca        1 UUL      0.108100
      4 O20         2.9630    1.1420    2.1270 oh        1 UUL     -0.495100
      5 C18         0.9140    0.0720    2.6310 ca        1 UUL     -0.159500
      6 C17        -0.3150   -0.4390    2.2400 ca        1 UUL     -0.121000
      7 C10        -0.7200   -0.3960    0.8850 ca        1 UUL      0.076600
      8 N6         -1.9300   -1.0330    0.4900 nu        1 UUL     -0.667300
      9 C2         -2.7720   -0.3440   -0.4050 cc        1 UUL      0.586300
     10 N1         -3.9770    0.1810   -0.1120 nd        1 UUL     -0.661000
     11 S4         -2.3610   -0.2480   -2.0960 ss        1 UUL     -0.056300
     12 C5         -3.7990    0.5130   -2.4250 cc        1 UUL     -0.270400
     13 C3         -4.5710    0.6670   -1.2730 cd        1 UUL      0.412800
     14 C7         -5.8910    1.2920   -1.2520 ca        1 UUL     -0.117500
     15 C8         -6.2110    2.2730   -2.2010 ca        1 UUL     -0.098500
     16 C14        -7.4690    2.8680   -2.2060 ca        1 UUL     -0.129500
     17 C11        -8.4190    2.4840   -1.2540 ca        1 UUL      0.022400
     18 Cl         -9.9570    3.2070   -1.2580 cl        1 UUL     -0.094400
     19 C13        -8.1100    1.5120   -0.2980 ca        1 UUL     -0.129500
     20 C9         -6.8490    0.9190   -0.2980 ca        1 UUL     -0.098500
     21 H1         -0.1460    0.2450   -1.1240 ha        1 UUL      0.139500
     22 H2          2.0370    1.1680   -0.4210 ha        1 UUL      0.146000
     23 H3          3.4400    1.5100    1.3690 ho        1 UUL      0.420000
     24 H4          1.2330    0.0350    3.6830 ha        1 UUL      0.146000
     25 H5         -0.9720   -0.8850    3.0030 ha        1 UUL      0.139500
     26 H6         -2.4360   -1.3830    1.2880 hn        1 UUL      0.411800
     27 H7         -4.0970    0.8400   -3.4200 h4        1 UUL      0.184000
     28 H8         -5.4620    2.5840   -2.9450 ha        1 UUL      0.146000
     29 H9         -7.7120    3.6380   -2.9540 ha        1 UUL      0.148000
     30 H10        -8.8570    1.2130    0.4530 ha        1 UUL      0.148000
     31 H11        -6.6100    0.1560    0.4590 ha        1 UUL      0.146000
@<TRIPOS>BOND
     1    1    2 ar  
     2    1    7 ar  
     3    1   21 1   
     4    2    3 ar  
     5    2   22 1   
     6    3    4 1   
     7    3    5 ar  
     8    4   23 1   
     9    5    6 ar  
    10    5   24 1   
    11    6    7 ar  
    12    6   25 1   
    13    7    8 1   
    14    8    9 1   
    15    8   26 1   
    16    9   10 2   
    17    9   11 1   
    18   10   13 1   
    19   11   12 1   
    20   12   13 2   
    21   12   27 1   
    22   13   14 1   
    23   14   15 ar  
    24   14   20 ar  
    25   15   16 ar  
    26   15   28 1   
    27   16   17 ar  
    28   16   29 1   
    29   17   18 1   
    30   17   19 ar  
    31   19   20 ar  
    32   19   30 1   
    33   20   31 1   
@<TRIPOS>SUBSTRUCTURE
     1 UUL         1 TEMP              0 ****  ****    0 ROOT
