@<TRIPOS>MOLECULE
UUL
   32    34     1     0     0
SMALL
bcc


@<TRIPOS>ATOM
      1 C16         0.2720   -0.7070   -0.0630 ca        1 UUL     -0.051500
      2 C19         1.6240   -0.4390    0.0560 ca        1 UUL     -0.175000
      3 C12         2.0950    0.2960    1.1670 ca        1 UUL      0.202100
      4 O20         3.4360    0.5190    1.2120 oh        1 UUL     -0.455100
      5 C18         1.2020    0.7560    2.1520 ca        1 UUL     -0.175000
      6 C17        -0.1550    0.4870    2.0330 ca        1 UUL     -0.051500
      7 C10        -0.6230   -0.2430    0.9240 ca        1 UUL     -0.133400
      8 N6         -2.0460   -0.5720    0.8210 n4        1 UUL     -0.556100
      9 C2         -2.8160    0.4350    0.0980 cc        1 UUL      0.308300
     10 N1         -4.1640    0.2960   -0.0400 nd        1 UUL     -0.593000
     11 S4         -2.1600    1.8270   -0.6320 ss        1 UUL      0.186700
     12 C5         -3.6460    2.2840   -1.1490 cc        1 UUL     -0.269400
     13 C3         -4.6470    1.3640   -0.7640 cd        1 UUL      0.452800
     14 C7         -6.0610    1.5120   -1.0920 ca        1 UUL     -0.166500
     15 C8         -6.4290    2.1660   -2.2780 ca        1 UUL     -0.085500
     16 C14        -7.7720    2.3270   -2.6040 ca        1 UUL     -0.125500
     17 C11        -8.7590    1.8320   -1.7430 ca        1 UUL      0.044400
     18 CL        -10.3940    2.0280   -2.1350 cl        1 UUL     -0.052400
     19 C13        -8.4000    1.1740   -0.5610 ca        1 UUL     -0.125500
     20 C9         -7.0540    1.0140   -0.2390 ca        1 UUL     -0.085500
     21 H1         -0.0860   -1.2880   -0.9310 ha        1 UUL      0.162500
     22 H2          2.3440   -0.7930   -0.7010 ha        1 UUL      0.182000
     23 H3          3.6530    1.0160    2.0200 ho        1 UUL      0.450000
     24 H4          1.5750    1.3240    3.0190 ha        1 UUL      0.182000
     25 H5         -0.8450    0.8480    2.8140 ha        1 UUL      0.162500
     26 H6         -2.1490   -1.4770    0.3330 hn        1 UUL      0.468800
     27 H7         -3.8570    3.1950   -1.7160 h4        1 UUL      0.218000
     28 H8         -5.6570    2.5480   -2.9640 ha        1 UUL      0.143000
     29 H9         -8.0550    2.8400   -3.5370 ha        1 UUL      0.162500
     30 H10        -9.1770    0.7830    0.1160 ha        1 UUL      0.162500
     31 H11        -6.7830    0.4940    0.6930 ha        1 UUL      0.143000
     32 H62        -2.4400   -0.6710    1.7700 hn        1 UUL      0.468800
@<TRIPOS>BOND
     1    1    2 ar  
     2    1    7 ar  
     3    1   21 1   
     4    2    3 ar  
     5    2   22 1   
     6    3    4 1   
     7    3    5 ar  
     8    4   23 1   
     9    5    6 ar  
    10    5   24 1   
    11    6    7 ar  
    12    6   25 1   
    13    7    8 1   
    14    8    9 1   
    15    8   26 1   
    16    8   32 1   
    17    9   10 2   
    18    9   11 1   
    19   10   13 1   
    20   11   12 1   
    21   12   13 2   
    22   12   27 1   
    23   13   14 1   
    24   14   15 ar  
    25   14   20 ar  
    26   15   16 ar  
    27   15   28 1   
    28   16   17 ar  
    29   16   29 1   
    30   17   18 1   
    31   17   19 ar  
    32   19   20 ar  
    33   19   30 1   
    34   20   31 1   
@<TRIPOS>SUBSTRUCTURE
     1 UUL         1 TEMP              0 ****  ****    0 ROOT
