@<TRIPOS>MOLECULE
UUL
   31    33     1     0     0
SMALL
bcc


@<TRIPOS>ATOM
      1 C16         0.1450    0.1890   -0.0610 ca        1 UUL     -0.121000
      2 C19         1.3750    0.7090    0.3270 ca        1 UUL     -0.159500
      3 C12         1.7610    0.6500    1.6710 ca        1 UUL      0.108100
      4 O20         2.9640    1.1410    2.1260 oh        1 UUL     -0.495100
      5 C18         0.9140    0.0740    2.6310 ca        1 UUL     -0.159500
      6 C17        -0.3150   -0.4360    2.2400 ca        1 UUL     -0.121000
      7 C10        -0.7190   -0.3950    0.8850 ca        1 UUL      0.076600
      8 N6         -1.9300   -1.0320    0.4910 nh        1 UUL     -0.667300
      9 C2         -2.7720   -0.3430   -0.4050 cc        1 UUL      0.586300
     10 N1         -3.9780    0.1810   -0.1110 nd        1 UUL     -0.661000
     11 S4         -2.3610   -0.2460   -2.0950 ss        1 UUL     -0.056300
     12 C5         -3.7990    0.5150   -2.4250 cc        1 UUL     -0.270400
     13 C3         -4.5720    0.6680   -1.2730 cd        1 UUL      0.412800
     14 C7         -5.8910    1.2920   -1.2520 ca        1 UUL     -0.117500
     15 C8         -6.2110    2.2750   -2.2000 ca        1 UUL     -0.098500
     16 C14        -7.4700    2.8690   -2.2050 ca        1 UUL     -0.129500
     17 C11        -8.4200    2.4830   -1.2540 ca        1 UUL      0.022400
     18 CL         -9.9590    3.2050   -1.2580 cl        1 UUL     -0.094400
     19 C13        -8.1110    1.5090   -0.3000 ca        1 UUL     -0.129500
     20 C9         -6.8500    0.9180   -0.2990 ca        1 UUL     -0.098500
     21 H1         -0.1440    0.2410   -1.1250 ha        1 UUL      0.139500
     22 H2          2.0390    1.1630   -0.4220 ha        1 UUL      0.146000
     23 H3          3.4420    1.5060    1.3680 ho        1 UUL      0.420000
     24 H4          1.2330    0.0380    3.6830 ha        1 UUL      0.146000
     25 H5         -0.9730   -0.8800    3.0040 ha        1 UUL      0.139500
     26 H6         -2.4360   -1.3810    1.2890 hn        1 UUL      0.411800
     27 H7         -4.0970    0.8430   -3.4190 h4        1 UUL      0.184000
     28 H8         -5.4610    2.5870   -2.9420 ha        1 UUL      0.146000
     29 H9         -7.7120    3.6400   -2.9520 ha        1 UUL      0.148000
     30 H10        -8.8590    1.2090    0.4500 ha        1 UUL      0.148000
     31 H11        -6.6110    0.1530    0.4570 ha        1 UUL      0.146000
@<TRIPOS>BOND
     1    1    2 ar  
     2    1    7 ar  
     3    1   21 1   
     4    2    3 ar  
     5    2   22 1   
     6    3    4 1   
     7    3    5 ar  
     8    4   23 1   
     9    5    6 ar  
    10    5   24 1   
    11    6    7 ar  
    12    6   25 1   
    13    7    8 1   
    14    8    9 1   
    15    8   26 1   
    16    9   10 2   
    17    9   11 1   
    18   10   13 1   
    19   11   12 1   
    20   12   13 2   
    21   12   27 1   
    22   13   14 1   
    23   14   15 ar  
    24   14   20 ar  
    25   15   16 ar  
    26   15   28 1   
    27   16   17 ar  
    28   16   29 1   
    29   17   18 1   
    30   17   19 ar  
    31   19   20 ar  
    32   19   30 1   
    33   20   31 1   
@<TRIPOS>SUBSTRUCTURE
     1 UUL         1 TEMP              0 ****  ****    0 ROOT
