@<TRIPOS>MOLECULE
UUL
   31    33     1     0     0
SMALL
bcc


@<TRIPOS>ATOM
      1 C16        -3.8140    0.6420    0.4590 ca        1 UUL     -0.121500
      2 C19        -4.9980    0.9630   -0.1970 ca        1 UUL     -0.159500
      3 C12        -5.7610   -0.0500   -0.7880 ca        1 UUL      0.108100
      4 O20        -6.9440    0.1930   -1.4490 oh        1 UUL     -0.495100
      5 C18        -5.3370   -1.3880   -0.7310 ca        1 UUL     -0.159500
      6 C17        -4.1510   -1.7010   -0.0840 ca        1 UUL     -0.121500
      7 C10        -3.3710   -0.6930    0.5300 ca        1 UUL      0.077600
      8 N6         -2.2230   -1.0550    1.2900 nh        1 UUL     -0.667300
      9 C2         -1.0560   -0.2810    1.1250 cc        1 UUL      0.585300
     10 N1          0.0830   -0.6860    0.5300 nd        1 UUL     -0.661000
     11 S4         -0.9420    1.2970    1.8550 ss        1 UUL     -0.055300
     12 C5          0.6350    1.4380    1.3560 cc        1 UUL     -0.270400
     13 C3          1.0580    0.2990    0.6690 cd        1 UUL      0.412800
     14 C7          2.4000    0.1270    0.1210 ca        1 UUL     -0.117500
     15 C8          3.1370    1.2510   -0.2780 ca        1 UUL     -0.098500
     16 C14         4.4240    1.1080   -0.7890 ca        1 UUL     -0.129500
     17 C11         4.9820   -0.1690   -0.9070 ca        1 UUL      0.022400
     18 CL          6.5540   -0.3480   -1.5280 cl        1 UUL     -0.094400
     19 C13         4.2550   -1.2980   -0.5190 ca        1 UUL     -0.129500
     20 C9          2.9680   -1.1490   -0.0080 ca        1 UUL     -0.098500
     21 H1         -3.2240    1.4520    0.9220 ha        1 UUL      0.139500
     22 H2         -5.3310    2.0100   -0.2450 ha        1 UUL      0.145500
     23 H3         -7.1140    1.1450   -1.4150 ho        1 UUL      0.419000
     24 H4         -5.9480   -2.1710   -1.2040 ha        1 UUL      0.145500
     25 H5         -3.8260   -2.7540   -0.0510 ha        1 UUL      0.139500
     26 H6         -2.0320   -2.0420    1.2170 hn        1 UUL      0.411800
     27 H7          1.2560    2.3100    1.5520 h4        1 UUL      0.184000
     28 H8          2.6960    2.2560   -0.1960 ha        1 UUL      0.146000
     29 H9          4.9950    1.9960   -1.1000 ha        1 UUL      0.148000
     30 H10         4.6940   -2.3020   -0.6160 ha        1 UUL      0.148000
     31 H11         2.3980   -2.0420    0.2930 ha        1 UUL      0.146000
@<TRIPOS>BOND
     1    1    2 ar  
     2    1    7 ar  
     3    1   21 1   
     4    2    3 ar  
     5    2   22 1   
     6    3    4 1   
     7    3    5 ar  
     8    4   23 1   
     9    5    6 ar  
    10    5   24 1   
    11    6    7 ar  
    12    6   25 1   
    13    7    8 1   
    14    8    9 1   
    15    8   26 1   
    16    9   10 2   
    17    9   11 1   
    18   10   13 1   
    19   11   12 1   
    20   12   13 2   
    21   12   27 1   
    22   13   14 1   
    23   14   15 ar  
    24   14   20 ar  
    25   15   16 ar  
    26   15   28 1   
    27   16   17 ar  
    28   16   29 1   
    29   17   18 1   
    30   17   19 ar  
    31   19   20 ar  
    32   19   30 1   
    33   20   31 1   
@<TRIPOS>SUBSTRUCTURE
     1 UUL         1 TEMP              0 ****  ****    0 ROOT
