@<TRIPOS>MOLECULE
UVW
   11    10     1     0     0
SMALL
bcc


@<TRIPOS>ATOM
      1 C1         -0.0470    0.0070    1.6100 c         1 UVW      0.657100
      2 O1          1.1840   -0.1420    1.5000 o         1 UVW     -0.630000
      3 C1M        -0.7430    0.1030    2.9480 c3        1 UVW     -0.169100
      4 O2         -0.8010    0.0880    0.5550 os        1 UVW     -0.478500
      5 P           0.0610   -0.0300   -1.0220 p5        1 UVW      1.307900
      6 O1P         0.6450   -1.4100   -0.9870 o         1 UVW     -0.913167
      7 O2P        -1.1660    0.1100   -1.8780 o         1 UVW     -0.913167
      8 O3P         0.9560    1.1720   -1.0100 o         1 UVW     -0.913167
      9 H1M1       -0.0030    0.0210    3.7780 hc        1 UVW      0.016700
     10 H1M2       -1.2740    1.0810    3.0210 hc        1 UVW      0.016700
     11 H1M3       -1.4910   -0.7190    3.0370 hc        1 UVW      0.016700
@<TRIPOS>BOND
     1    1    2 2   
     2    1    3 1   
     3    1    4 1   
     4    3    9 1   
     5    3   10 1   
     6    3   11 1   
     7    4    5 1   
     8    5    6 1   
     9    5    7 1   
    10    5    8 1   
@<TRIPOS>SUBSTRUCTURE
     1 UVW         1 TEMP              0 ****  ****    0 ROOT
