@<TRIPOS>MOLECULE
UVW
   11    10     1     0     0
SMALL
bcc


@<TRIPOS>ATOM
      1 C1          0.0100    0.0020   -0.0320 c         1 UVW      0.657100
      2 O1          1.2540   -0.0140   -0.0820 o         1 UVW     -0.630000
      3 C1M        -0.7560   -0.0030    1.2710 c3        1 UVW     -0.169100
      4 O2         -0.6960    0.0230   -1.1230 os        1 UVW     -0.478500
      5 P           0.2500    0.0290   -2.6550 p5        1 UVW      1.307900
      6 O1P         0.9750   -1.2820   -2.6110 o         1 UVW     -0.913167
      7 O2P        -0.9420    0.0550   -3.5700 o         1 UVW     -0.913167
      8 O3P         1.0090    1.3180   -2.5810 o         1 UVW     -0.913167
      9 H1M1       -0.0540   -0.0260    2.1360 hc        1 UVW      0.016700
     10 H1M2       -1.3880    0.9140    1.3320 hc        1 UVW      0.016700
     11 H1M3       -1.4200   -0.8980    1.3080 hc        1 UVW      0.016700
@<TRIPOS>BOND
     1    1    2 2   
     2    1    3 1   
     3    1    4 1   
     4    3    9 1   
     5    3   10 1   
     6    3   11 1   
     7    4    5 1   
     8    5    6 1   
     9    5    7 1   
    10    5    8 1   
@<TRIPOS>SUBSTRUCTURE
     1 UVW         1 TEMP              0 ****  ****    0 ROOT
