@<TRIPOS>MOLECULE
UVX
   36    38     1     0     0
SMALL
bcc


@<TRIPOS>ATOM
      1 P           4.1090   -0.2780   -0.8590 p5        1 UVX      1.325900
      2 N1         -2.5910    0.1850    0.2730 n         1 UVX     -0.362000
      3 C2         -3.9300   -0.2230    0.4680 c         1 UVX      0.801500
      4 O2         -4.2370   -1.3330    0.9620 o         1 UVX     -0.665500
      5 N3         -4.9620    0.6610    0.0940 n         1 UVX     -0.596500
      6 C4         -4.7180    1.9420   -0.4320 c         1 UVX      0.721700
      7 O4         -5.7000    2.6560   -0.7260 o         1 UVX     -0.675500
      8 C5         -3.3180    2.3170   -0.5770 cc        1 UVX     -0.383200
      9 C6         -2.3280    1.4440   -0.2240 cd        1 UVX      0.099600
     10 C1'        -1.5040   -0.7300    0.6770 c3        1 UVX      0.297500
     11 C2'        -1.0050   -1.6880   -0.4630 c3        1 UVX     -0.119500
     12 C3'         0.0310   -0.7210   -1.1610 c3        1 UVX      0.172100
     13 O3'         0.7560   -1.3130   -2.1760 oh        1 UVX     -0.661800
     14 C4'         0.7670   -0.4180    0.1940 c3        1 UVX      0.078800
     15 O4'        -0.3490    0.0380    1.0440 os        1 UVX     -0.440600
     16 C5'         1.8840    0.6310    0.1840 c3        1 UVX      0.235400
     17 O5'         3.1000    0.1000    0.5100 os        1 UVX     -0.555200
     18 C6'        -0.0850   -2.6500    0.2570 c2        1 UVX     -0.059400
     19 C7'        -0.3090   -3.9440    0.4560 c2        1 UVX     -0.270000
     20 C8'         1.1190   -1.8460    0.6700 c3        1 UVX     -0.097200
     21 OP1         3.3440   -1.5000   -1.3410 o         1 UVX     -0.909500
     22 OP2         3.9150    0.9360   -1.7180 o         1 UVX     -0.909500
     23 OP3         5.4510   -0.5240   -0.2510 o         1 UVX     -0.909500
     24 H5         -3.1020    3.3110   -0.9790 ha        1 UVX      0.168000
     25 H6         -1.2470    1.7000   -0.3050 h4        1 UVX      0.210000
     26 H1'        -1.8690   -1.2840    1.5870 h2        1 UVX      0.085700
     27 H2'        -1.7890   -2.1310   -1.0970 hc        1 UVX      0.073700
     28 H3'        -0.4880    0.1800   -1.5810 h1        1 UVX      0.012700
     29 HO3'        1.7370   -1.3470   -1.9190 ho        1 UVX      0.527000
     30 H5'         1.9110    1.0920   -0.8490 h1        1 UVX      0.018700
     31 H5'A        1.6030    1.4220    0.9410 h1        1 UVX      0.018700
     32 H7'        -1.2160   -4.4460    0.1010 ha        1 UVX      0.095500
     33 H7'A        0.4180   -4.5850    0.9680 ha        1 UVX      0.095500
     34 H8'         2.0650   -2.1550    0.1180 hc        1 UVX      0.122200
     35 H8'A        1.3040   -1.8810    1.7670 hc        1 UVX      0.122200
     36 HN3        -5.8960    0.3440    0.2220 hn        1 UVX      0.331500
@<TRIPOS>BOND
     1    1   17 1   
     2    1   21 1   
     3    1   22 1   
     4    1   23 1   
     5    2    3 1   
     6    2    9 1   
     7    2   10 1   
     8    3    4 2   
     9    3    5 1   
    10    5    6 1   
    11    5   36 1   
    12    6    7 2   
    13    6    8 1   
    14    8    9 2   
    15    8   24 1   
    16    9   25 1   
    17   10   11 1   
    18   10   15 1   
    19   10   26 1   
    20   11   12 1   
    21   11   18 1   
    22   11   27 1   
    23   12   13 1   
    24   12   14 1   
    25   12   28 1   
    26   13   29 1   
    27   14   15 1   
    28   14   16 1   
    29   14   20 1   
    30   16   17 1   
    31   16   30 1   
    32   16   31 1   
    33   18   19 2   
    34   18   20 1   
    35   19   32 1   
    36   19   33 1   
    37   20   34 1   
    38   20   35 1   
@<TRIPOS>SUBSTRUCTURE
     1 UVX         1 TEMP              0 ****  ****    0 ROOT
