@<TRIPOS>MOLECULE
UVX
   36    36     1     0     0
SMALL
bcc


@<TRIPOS>ATOM
      1 P          -4.5310    0.0350   -1.6440 p3        1 UVX      2.537000
      2 N1          1.4270    1.3450    0.6110 n         1 UVX     -0.238000
      3 C2          0.5580    2.4600    1.0140 c2        1 UVX      0.391000
      4 O2         -0.3840    2.7950    0.2950 o         1 UVX     -0.379000
      5 N3          0.8460    3.2140    2.2540 n         1 UVX     -0.378000
      6 C4          2.0450    2.9620    2.9730 c2        1 UVX      0.361000
      7 O4          2.3260    3.6330    3.9050 o         1 UVX     -0.416000
      8 C5          2.9850    1.9060    2.5030 c2        1 UVX     -0.383000
      9 C6          2.6370    1.0860    1.3310 c2        1 UVX      0.096000
     10 C1'         1.1070    0.5530   -0.6150 c3        1 UVX      0.164000
     11 C2'         1.3890   -0.8120   -0.3830 c3        1 UVX     -0.284000
     12 C3'         0.0670   -1.0680    0.3700 c3        1 UVX      0.238000
     13 O3'        -0.1100   -2.3250    0.6510 oh        1 UVX     -0.637000
     14 C4'        -0.7910   -0.5990   -0.8570 c3        1 UVX     -0.046000
     15 O4'        -0.2160    0.6700   -0.9050 os        1 UVX     -0.276000
     16 C5'        -2.2960   -0.6630   -0.6190 c3        1 UVX      0.075000
     17 O5'        -2.9590    0.0360   -1.6350 os        1 UVX     -0.746000
     18 C6'         1.0790   -1.6790   -1.4230 c2        1 UVX     -0.006000
     19 C7'         1.6580   -2.8970   -1.4830 c1        1 UVX     -0.308000
     20 C8'        -0.2610   -1.5400   -1.7090 c3        1 UVX     -0.132000
     21 OP1        -5.0380   -1.3930   -1.7690 o         1 UVX     -1.004500
     22 OP2        -5.0440    0.6400   -0.3550 o         1 UVX     -1.004500
     23 OP3        -5.0220    0.8420   -2.8050 os        1 UVX     -1.147000
     24 H5          3.8210    1.7290    3.0020 ha        1 UVX      0.158000
     25 H6          3.2140    0.3870    1.0520 h4        1 UVX      0.208000
     26 H1'         1.6490    0.8840   -1.3770 h2        1 UVX      0.112000
     27 H2'         2.1870   -1.0140    0.1350 hc        1 UVX      0.089000
     28 H3'        -0.0420   -0.4710    1.1600 h1        1 UVX     -0.055000
     29 HO3'       -0.1670   -2.4290    1.5480 ho        1 UVX      0.228000
     30 H5'        -2.5900   -1.6080   -0.6220 h1        1 UVX      0.074500
     31 H5'A       -2.5050   -0.2630    0.2370 h1        1 UVX      0.074500
     32 H7'         1.1160   -3.6900   -1.7330 DU        1 UVX      0.091000
     33 H7'A        2.6230   -2.9800   -1.3980 ha        1 UVX      0.080000
     34 H8'        -0.3720   -1.2500   -2.6310 hc        1 UVX      0.110000
     35 H8'A       -0.7160   -2.3980   -1.5770 hc        1 UVX      0.110000
     36 HN3         0.3080    3.9000    2.4990 hn        1 UVX      0.241000
@<TRIPOS>BOND
     1    1   17 1   
     2    1   21 1   
     3    1   22 1   
     4    2    3 1   
     5    2    9 1   
     6    2   10 1   
     7    3    4 1   
     8    3    5 1   
     9    5    6 1   
    10    5   36 1   
    11    6    7 1   
    12    6    8 1   
    13    8    9 1   
    14    8   24 1   
    15    9   25 1   
    16   10   11 1   
    17   10   15 1   
    18   10   26 1   
    19   11   12 1   
    20   11   18 1   
    21   11   27 1   
    22   12   13 1   
    23   12   14 1   
    24   12   28 1   
    25   13   29 1   
    26   14   15 1   
    27   14   16 1   
    28   14   20 1   
    29   16   17 1   
    30   16   30 1   
    31   16   31 1   
    32   18   19 1   
    33   18   20 1   
    34   19   33 1   
    35   20   34 1   
    36   20   35 1   
@<TRIPOS>SUBSTRUCTURE
     1 UVX         1 TEMP              0 ****  ****    0 ROOT
