@<TRIPOS>MOLECULE
UW1
   51    53     1     0     0
SMALL
bcc


@<TRIPOS>ATOM
      1 CAA         0.0410    0.0920    0.1850 c3        1 UW1     -0.107100
      2 CAM         1.5250    0.2870   -0.0120 c3        1 UW1      0.125400
      3 OAP         2.1140    0.0810    1.2920 os        1 UW1     -0.301900
      4 CAR         3.4680    0.1640    1.3900 ca        1 UW1      0.214100
      5 CAK         3.9820   -0.1000    2.6670 ca        1 UW1     -0.228300
      6 CAH         4.3300    0.4940    0.3080 ca        1 UW1     -0.177000
      7 CAI         5.6860    0.5620    0.5110 ca        1 UW1     -0.048000
      8 CAW         6.2480    0.3030    1.7880 ca        1 UW1     -0.218300
      9 CAL         7.6410    0.3530    2.0180 ca        1 UW1      0.046000
     10 CAX         5.3750   -0.0430    2.8820 ca        1 UW1      0.445600
     11 NAN         5.8930   -0.3470    4.1370 nb        1 UW1     -0.621000
     12 CAJ         7.1920   -0.2910    4.3100 ca        1 UW1      0.369200
     13 CAS         8.1320    0.1100    3.2930 ca        1 UW1     -0.433800
     14 CAU         9.5410    0.1220    3.6000 cc        1 UW1      0.513800
     15 NAO        10.4950   -0.5900    2.9090 nd        1 UW1     -0.420800
     16 NAY        11.6830   -0.3920    3.4720 na        1 UW1      0.216400
     17 CAZ        12.9600   -1.0260    2.9520 c3        1 UW1      0.061700
     18 CAC        13.7640   -1.6230    4.1120 c3        1 UW1     -0.124433
     19 CAD        12.6360   -2.1470    1.9530 c3        1 UW1     -0.124433
     20 CAB        13.7930    0.0400    2.2330 c3        1 UW1     -0.124433
     21 CAT        11.5770    0.4740    4.5610 cd        1 UW1     -0.047700
     22 NAF        12.6440    0.9090    5.4340 n4        1 UW1     -0.691000
     23 CAV        10.1880    0.8470    4.6720 cc        1 UW1     -0.357900
     24 CAQ         9.6730    1.7920    5.6150 c         1 UW1      0.608700
     25 OAG        10.3220    2.3810    6.4830 o         1 UW1     -0.485100
     26 NAE         8.2180    2.1370    5.5350 n4        1 UW1     -0.734400
     27 H1         -0.4730    0.2400   -0.7960 hc        1 UW1      0.066367
     28 H2         -0.3590    0.8280    0.9230 hc        1 UW1      0.066367
     29 H3         -0.1750   -0.9370    0.5600 hc        1 UW1      0.066367
     30 H4          1.7630    1.3270   -0.3560 h1        1 UW1      0.052700
     31 H5          1.9490   -0.4670   -0.7260 h1        1 UW1      0.052700
     32 H6          3.2920   -0.3650    3.4850 ha        1 UW1      0.192000
     33 H7          3.9100    0.6920   -0.6910 ha        1 UW1      0.172000
     34 H8          6.3600    0.8140   -0.3250 ha        1 UW1      0.156000
     35 H9          8.3190    0.5960    1.1820 ha        1 UW1      0.160000
     36 H10         7.5660   -0.6520    5.2880 h4        1 UW1      0.016100
     37 H11        13.1160   -2.1080    4.8820 hc        1 UW1      0.077144
     38 H12        14.4320   -0.8660    4.5860 hc        1 UW1      0.077144
     39 H13        14.4320   -2.4250    3.6980 hc        1 UW1      0.077144
     40 H14        12.0820   -1.7580    1.0640 hc        1 UW1      0.077144
     41 H15        12.0360   -2.9570    2.4340 hc        1 UW1      0.077144
     42 H16        13.6040   -2.5810    1.5960 hc        1 UW1      0.077144
     43 H17        14.0620    0.8900    2.9030 hc        1 UW1      0.077144
     44 H18        13.2560    0.4380    1.3370 hc        1 UW1      0.077144
     45 H19        14.7420   -0.4440    1.8830 hc        1 UW1      0.077144
     46 H20        13.4100    1.3300    4.8850 hn        1 UW1      0.491800
     47 H21        13.0160    0.1020    5.9630 hn        1 UW1      0.491800
     48 H22         7.6660    1.4300    6.0450 hn        1 UW1      0.491800
     49 H23         8.0510    3.0600    5.9610 hn        1 UW1      0.491800
     50 HAF3       12.2710    1.6130    6.0990 hn        1 UW1      0.491800
     51 HAE3        7.9030    2.1340    4.5510 hn        1 UW1      0.491800
@<TRIPOS>BOND
     1    1    2 1   
     2    1   27 1   
     3    1   28 1   
     4    1   29 1   
     5    2    3 1   
     6    2   30 1   
     7    2   31 1   
     8    3    4 1   
     9    4    5 ar  
    10    4    6 ar  
    11    5   10 ar  
    12    5   32 1   
    13    6    7 ar  
    14    6   33 1   
    15    7    8 ar  
    16    7   34 1   
    17    8    9 ar  
    18    8   10 ar  
    19    9   13 ar  
    20    9   35 1   
    21   10   11 ar  
    22   11   12 ar  
    23   12   13 ar  
    24   12   36 1   
    25   13   14 1   
    26   14   15 2   
    27   14   23 1   
    28   15   16 1   
    29   16   17 1   
    30   16   21 1   
    31   17   18 1   
    32   17   19 1   
    33   17   20 1   
    34   18   37 1   
    35   18   38 1   
    36   18   39 1   
    37   19   40 1   
    38   19   41 1   
    39   19   42 1   
    40   20   43 1   
    41   20   44 1   
    42   20   45 1   
    43   21   22 1   
    44   21   23 2   
    45   22   46 1   
    46   22   47 1   
    47   22   50 1   
    48   23   24 1   
    49   24   25 2   
    50   24   26 1   
    51   26   48 1   
    52   26   49 1   
    53   26   51 1   
@<TRIPOS>SUBSTRUCTURE
     1 UW1         1 TEMP              0 ****  ****    0 ROOT
