@<TRIPOS>MOLECULE
UW1
   50    52     1     0     0
SMALL
bcc


@<TRIPOS>ATOM
      1 CAA         0.0330    0.0500    0.2390 c3        1 UW1     -0.103100
      2 CAM         1.5120    0.3130    0.0720 c3        1 UW1      0.126400
      3 OAP         2.1030    0.0210    1.3520 os        1 UW1     -0.316900
      4 CAR         3.4670    0.1270    1.4420 ca        1 UW1      0.172100
      5 CAK         4.0030   -0.2510    2.6710 ca        1 UW1     -0.220300
      6 CAH         4.2990    0.5930    0.3880 ca        1 UW1     -0.176000
      7 CAI         5.6560    0.6790    0.5800 ca        1 UW1     -0.067000
      8 CAW         6.2420    0.3090    1.8150 ca        1 UW1     -0.200300
      9 CAL         7.6430    0.3860    2.0360 ca        1 UW1     -0.009000
     10 CAX         5.4050   -0.1730    2.8770 ca        1 UW1      0.428600
     11 NAN         5.9440   -0.5790    4.0900 nb        1 UW1     -0.641000
     12 CAJ         7.2480   -0.4980    4.2510 ca        1 UW1      0.379200
     13 CAS         8.1560    0.0210    3.2630 ca        1 UW1     -0.345800
     14 CAU         9.5760    0.0830    3.5630 cc        1 UW1      0.441800
     15 NAO        10.5200   -0.6360    2.9280 nd        1 UW1     -0.436800
     16 NAY        11.7330   -0.3420    3.4620 na        1 UW1      0.054400
     17 CAZ        12.9880   -1.0040    3.0000 c3        1 UW1      0.082700
     18 CAC        13.6360   -1.8010    4.1410 c3        1 UW1     -0.110100
     19 CAD        12.7060   -1.9940    1.8540 c3        1 UW1     -0.110100
     20 CAB        13.9860    0.0350    2.4690 c3        1 UW1     -0.110100
     21 CAT        11.6170    0.6040    4.4980 cd        1 UW1      0.310300
     22 NAF        12.5900    1.1380    5.2630 nv        1 UW1     -0.825200
     23 CAV        10.1950    0.9210    4.5900 cc        1 UW1     -0.482900
     24 CAQ         9.6640    1.8690    5.4750 c         1 UW1      0.609700
     25 OAG        10.2220    2.5790    6.3180 o         1 UW1     -0.528100
     26 NAE         8.1610    2.0870    5.4000 nz        1 UW1     -0.747400
     27 H1         -0.1460   -1.0140    0.5230 hc        1 UW1      0.058700
     28 H2         -0.4830    0.2650   -0.7270 hc        1 UW1      0.058700
     29 H3         -0.3940    0.7040    1.0370 hc        1 UW1      0.058700
     30 H4          1.7100    1.3860   -0.1860 h1        1 UW1      0.044700
     31 H5          1.9610   -0.3590   -0.7050 h1        1 UW1      0.044700
     32 H6          3.3390   -0.6200    3.4690 ha        1 UW1      0.181000
     33 H7          3.8590    0.8810   -0.5790 ha        1 UW1      0.158000
     34 H8          6.3110    1.0340   -0.2320 ha        1 UW1      0.148000
     35 H9          8.3000    0.7360    1.2220 ha        1 UW1      0.158000
     36 H10         7.6500   -0.9050    5.1990 h4        1 UW1      0.028100
     37 H11        14.0070   -1.1460    4.9620 hc        1 UW1      0.060033
     38 H12        14.5120   -2.3570    3.7250 hc        1 UW1      0.060033
     39 H13        12.9190   -2.5450    4.5670 hc        1 UW1      0.060033
     40 H14        12.0160   -2.8060    2.1830 hc        1 UW1      0.060033
     41 H15        13.6760   -2.4560    1.5460 hc        1 UW1      0.060033
     42 H16        12.2650   -1.4730    0.9710 hc        1 UW1      0.060033
     43 H17        14.3700    0.7060    3.2710 hc        1 UW1      0.060033
     44 H18        14.8600   -0.5110    2.0340 hc        1 UW1      0.060033
     45 H19        13.5260    0.6580    1.6650 hc        1 UW1      0.060033
     46 H20        12.3360    1.8100    5.9550 hn        1 UW1      0.474300
     47 H21        13.5430    0.8790    5.1600 hn        1 UW1      0.474300
     48 H22         7.6800    1.3000    5.8480 hn        1 UW1      0.464467
     49 H23         7.8630    2.1290    4.4200 hn        1 UW1      0.464467
     50 HAE3        7.9150    2.9560    5.8850 hn        1 UW1      0.464467
@<TRIPOS>BOND
     1    1    2 1   
     2    1   27 1   
     3    1   28 1   
     4    1   29 1   
     5    2    3 1   
     6    2   30 1   
     7    2   31 1   
     8    3    4 1   
     9    4    5 ar  
    10    4    6 ar  
    11    5   10 ar  
    12    5   32 1   
    13    6    7 ar  
    14    6   33 1   
    15    7    8 ar  
    16    7   34 1   
    17    8    9 ar  
    18    8   10 ar  
    19    9   13 ar  
    20    9   35 1   
    21   10   11 ar  
    22   11   12 ar  
    23   12   13 ar  
    24   12   36 1   
    25   13   14 1   
    26   14   15 2   
    27   14   23 1   
    28   15   16 1   
    29   16   17 1   
    30   16   21 1   
    31   17   18 1   
    32   17   19 1   
    33   17   20 1   
    34   18   37 1   
    35   18   38 1   
    36   18   39 1   
    37   19   40 1   
    38   19   41 1   
    39   19   42 1   
    40   20   43 1   
    41   20   44 1   
    42   20   45 1   
    43   21   22 1   
    44   21   23 2   
    45   22   46 1   
    46   22   47 1   
    47   23   24 1   
    48   24   25 2   
    49   24   26 1   
    50   26   48 1   
    51   26   49 1   
    52   26   50 1   
@<TRIPOS>SUBSTRUCTURE
     1 UW1         1 TEMP              0 ****  ****    0 ROOT
