@<TRIPOS>MOLECULE
UW1
   50    52     1     0     0
SMALL
bcc


@<TRIPOS>ATOM
      1 CAA         0.0240    0.0380    0.2690 c3        1 UW1     -0.103100
      2 CAM         1.5070    0.2560    0.0790 c3        1 UW1      0.126400
      3 OAP         2.0980    0.0460    1.3750 os        1 UW1     -0.316900
      4 CAR         3.4640    0.1300    1.4540 ca        1 UW1      0.172100
      5 CAK         3.9970   -0.1700    2.7050 ca        1 UW1     -0.220300
      6 CAH         4.3010    0.4990    0.3670 ca        1 UW1     -0.176000
      7 CAI         5.6600    0.5700    0.5490 ca        1 UW1     -0.067000
      8 CAW         6.2430    0.2780    1.8060 ca        1 UW1     -0.200300
      9 CAL         7.6470    0.3410    2.0160 ca        1 UW1     -0.009000
     10 CAX         5.4010   -0.1070    2.9010 ca        1 UW1      0.428600
     11 NAN         5.9370   -0.4350    4.1400 nb        1 UW1     -0.641000
     12 CAJ         7.2420   -0.3700    4.2910 ca        1 UW1      0.379200
     13 CAS         8.1570    0.0550    3.2650 ca        1 UW1     -0.345800
     14 CAU         9.5790    0.1080    3.5570 cc        1 UW1      0.441800
     15 NAO        10.5050   -0.6760    2.9740 nd        1 UW1     -0.436800
     16 NAY        11.7260   -0.3710    3.4820 na        1 UW1      0.054400
     17 CAZ        12.9640   -1.0930    3.0670 c3        1 UW1      0.082700
     18 CAC        13.5980   -1.8190    4.2630 c3        1 UW1     -0.110433
     19 CAD        12.6560   -2.1580    1.9970 c3        1 UW1     -0.110433
     20 CAB        13.9830   -0.1180    2.4590 c3        1 UW1     -0.110433
     21 CAT        11.6350    0.6500    4.4450 cd        1 UW1      0.310300
     22 NAF        12.6230    1.2180    5.1670 nh        1 UW1     -0.825200
     23 CAV        10.2200    1.0060    4.5180 cc        1 UW1     -0.482900
     24 CAQ         9.7140    2.0270    5.3320 c         1 UW1      0.609700
     25 OAG        10.2910    2.7850    6.1180 o         1 UW1     -0.528100
     26 NAE         8.2160    2.2720    5.2450 n4        1 UW1     -0.747400
     27 H1         -0.4920    0.1930   -0.7090 hc        1 UW1      0.058700
     28 H2         -0.3860    0.7560    1.0180 hc        1 UW1      0.058700
     29 H3         -0.1760   -1.0000    0.6290 hc        1 UW1      0.058700
     30 H4          1.9400   -0.4790   -0.6480 h1        1 UW1      0.044700
     31 H5          1.7260    1.3030   -0.2570 h1        1 UW1      0.044700
     32 H6          3.3280   -0.4650    3.5300 ha        1 UW1      0.181000
     33 H7          3.8630    0.7250   -0.6170 ha        1 UW1      0.158000
     34 H8          6.3190    0.8510   -0.2890 ha        1 UW1      0.148000
     35 H9          8.3070    0.6160    1.1770 ha        1 UW1      0.158000
     36 H10         7.6390   -0.7160    5.2660 h4        1 UW1      0.028100
     37 H11        12.8670   -2.5140    4.7420 hc        1 UW1      0.060033
     38 H12        14.4610   -2.4220    3.8860 hc        1 UW1      0.060033
     39 H13        13.9860   -1.1130    5.0320 hc        1 UW1      0.060033
     40 H14        11.9490   -2.9280    2.3870 hc        1 UW1      0.060033
     41 H15        12.2240   -1.6940    1.0790 hc        1 UW1      0.060033
     42 H16        13.6140   -2.6630    1.7220 hc        1 UW1      0.060033
     43 H17        13.5340    0.4550    1.6120 hc        1 UW1      0.060033
     44 H18        14.8420   -0.7150    2.0630 hc        1 UW1      0.060033
     45 H19        14.3860    0.6000    3.2090 hc        1 UW1      0.060033
     46 H20        12.3860    1.9450    5.8070 hn        1 UW1      0.474300
     47 H21        13.5690    0.9310    5.0800 hn        1 UW1      0.474300
     48 H22         7.7200    1.5300    5.7510 hn        1 UW1      0.464467
     49 H23         7.9900    3.1790    5.6660 hn        1 UW1      0.464467
     50 HAE3        7.9150    2.2480    4.2650 hn        1 UW1      0.464467
@<TRIPOS>BOND
     1    1    2 1   
     2    1   27 1   
     3    1   28 1   
     4    1   29 1   
     5    2    3 1   
     6    2   30 1   
     7    2   31 1   
     8    3    4 1   
     9    4    5 ar  
    10    4    6 ar  
    11    5   10 ar  
    12    5   32 1   
    13    6    7 ar  
    14    6   33 1   
    15    7    8 ar  
    16    7   34 1   
    17    8    9 ar  
    18    8   10 ar  
    19    9   13 ar  
    20    9   35 1   
    21   10   11 ar  
    22   11   12 ar  
    23   12   13 ar  
    24   12   36 1   
    25   13   14 1   
    26   14   15 2   
    27   14   23 1   
    28   15   16 1   
    29   16   17 1   
    30   16   21 1   
    31   17   18 1   
    32   17   19 1   
    33   17   20 1   
    34   18   37 1   
    35   18   38 1   
    36   18   39 1   
    37   19   40 1   
    38   19   41 1   
    39   19   42 1   
    40   20   43 1   
    41   20   44 1   
    42   20   45 1   
    43   21   22 1   
    44   21   23 2   
    45   22   46 1   
    46   22   47 1   
    47   23   24 1   
    48   24   25 2   
    49   24   26 1   
    50   26   48 1   
    51   26   49 1   
    52   26   50 1   
@<TRIPOS>SUBSTRUCTURE
     1 UW1         1 TEMP              0 ****  ****    0 ROOT
