@<TRIPOS>MOLECULE
UW2
   51    55     1     0     0
SMALL
bcc


@<TRIPOS>ATOM
      1 O           0.3220   -0.3650   -0.0310 oh        1 UW2     -0.588800
      2 C6          1.7190   -0.1030   -0.1270 c3        1 UW2      0.130800
      3 C7          2.3170    0.0260    1.2720 c3        1 UW2     -0.124600
      4 C8          2.4210   -1.2120   -0.8940 c3        1 UW2     -0.124600
      5 C5          1.8510    1.2760   -0.8200 c3        1 UW2      0.074300
      6 N3          1.3550    1.3660   -2.1770 na        1 UW2      0.008200
      7 C2          0.1200    1.9410   -2.5450 ca        1 UW2      0.486800
      8 N1         -0.7890    2.6460   -1.8030 nb        1 UW2     -0.727000
      9 C1         -1.8550    3.0490   -2.5280 ca        1 UW2      0.692900
     10 N          -2.1410    2.8580   -3.8460 nb        1 UW2     -0.796000
     11 N2          1.9380    0.7590   -3.2320 nc        1 UW2     -0.507100
     12 C4          1.1600    0.9370   -4.3300 cd        1 UW2      0.422500
     13 C3         -0.0310    1.6840   -3.9690 ca        1 UW2     -0.494500
     14 C          -1.2160    2.1740   -4.5980 ca        1 UW2      0.750200
     15 N5         -1.4060    2.0080   -5.9540 nh        1 UW2     -0.950500
     16 C9          1.5040    0.4370   -5.6540 ca        1 UW2     -0.113900
     17 C14         1.5970    1.2950   -6.7330 ca        1 UW2     -0.089000
     18 C13         1.9280    0.8000   -8.0160 ca        1 UW2     -0.184300
     19 C15         2.0300    1.6620   -9.1490 ca        1 UW2     -0.061000
     20 C16         2.3530    1.1460  -10.3720 ca        1 UW2     -0.244300
     21 C17         2.5810   -0.2790  -10.4580 ca        1 UW2      0.647600
     22 O1          2.8940   -0.6940  -11.7390 os        1 UW2     -0.422100
     23 C18         3.1350   -2.0750  -11.9360 cx        1 UW2      0.085100
     24 C20         4.5480   -2.5790  -11.7910 cx        1 UW2     -0.134400
     25 C19         3.9690   -2.3570  -13.1600 cx        1 UW2     -0.134400
     26 N4          2.5020   -1.1290   -9.4340 nb        1 UW2     -0.729000
     27 C12         2.1770   -0.5950   -8.2020 ca        1 UW2      0.437600
     28 C11         2.0870   -1.4560   -7.0620 ca        1 UW2     -0.183300
     29 C10         1.7650   -0.9480   -5.8290 ca        1 UW2     -0.091000
     30 H1          0.2290   -1.2400    0.3640 ho        1 UW2      0.402000
     31 H2          2.1820   -0.9290    1.8330 hc        1 UW2      0.048200
     32 H3          3.4070    0.2530    1.2060 hc        1 UW2      0.048200
     33 H4          1.8040    0.8420    1.8370 hc        1 UW2      0.048200
     34 H5          2.5810   -2.0970   -0.2310 hc        1 UW2      0.048200
     35 H6          1.8020   -1.5360   -1.7650 hc        1 UW2      0.048200
     36 H7          3.4120   -0.8590   -1.2660 hc        1 UW2      0.048200
     37 H8          1.2780    2.0290   -0.2070 h1        1 UW2      0.083200
     38 H9          2.9460    1.5450   -0.8260 h1        1 UW2      0.083200
     39 H10        -2.6270    3.6180   -1.9650 h5        1 UW2      0.052100
     40 H11        -0.8520    1.3180   -6.4030 hn        1 UW2      0.435300
     41 H12        -2.2970    2.2100   -6.3420 hn        1 UW2      0.435300
     42 H13         1.4230    2.3760   -6.6080 ha        1 UW2      0.149000
     43 H14         1.8460    2.7400   -9.0160 ha        1 UW2      0.145000
     44 H15         2.4470    1.7540  -11.2800 ha        1 UW2      0.162000
     45 H16         2.2690   -2.7020  -11.6580 h1        1 UW2      0.102700
     46 H17         5.3270   -1.8850  -11.4280 hc        1 UW2      0.081200
     47 H18         4.7030   -3.6080  -11.4240 hc        1 UW2      0.081200
     48 H19         3.6960   -3.2240  -13.7860 hc        1 UW2      0.081200
     49 H20         4.3370   -1.5050  -13.7590 hc        1 UW2      0.081200
     50 H21         2.2870   -2.5320   -7.1890 ha        1 UW2      0.153000
     51 H22         1.7070   -1.6120   -4.9520 ha        1 UW2      0.148000
@<TRIPOS>BOND
     1    1    2 1   
     2    1   30 1   
     3    2    3 1   
     4    2    4 1   
     5    2    5 1   
     6    3   31 1   
     7    3   32 1   
     8    3   33 1   
     9    4   34 1   
    10    4   35 1   
    11    4   36 1   
    12    5    6 1   
    13    5   37 1   
    14    5   38 1   
    15    6    7 1   
    16    6   11 1   
    17    7    8 ar  
    18    7   13 ar  
    19    8    9 ar  
    20    9   10 ar  
    21    9   39 1   
    22   10   14 ar  
    23   11   12 2   
    24   12   13 1   
    25   12   16 1   
    26   13   14 ar  
    27   14   15 1   
    28   15   40 1   
    29   15   41 1   
    30   16   17 ar  
    31   16   29 ar  
    32   17   18 ar  
    33   17   42 1   
    34   18   19 ar  
    35   18   27 ar  
    36   19   20 ar  
    37   19   43 1   
    38   20   21 ar  
    39   20   44 1   
    40   21   22 1   
    41   21   26 ar  
    42   22   23 1   
    43   23   24 1   
    44   23   25 1   
    45   23   45 1   
    46   24   25 1   
    47   24   46 1   
    48   24   47 1   
    49   25   48 1   
    50   25   49 1   
    51   26   27 ar  
    52   27   28 ar  
    53   28   29 ar  
    54   28   50 1   
    55   29   51 1   
@<TRIPOS>SUBSTRUCTURE
     1 UW2         1 TEMP              0 ****  ****    0 ROOT
