@<TRIPOS>MOLECULE
UW2
   51    55     1     0     0
SMALL
bcc


@<TRIPOS>ATOM
      1 O           0.3520   -0.3590   -0.0220 oh        1 UW2     -0.588800
      2 C6          1.7440   -0.0750   -0.1260 c3        1 UW2      0.130800
      3 C7          2.3460    0.0710    1.2700 c3        1 UW2     -0.124600
      4 C8          2.4620   -1.1770   -0.8910 c3        1 UW2     -0.124600
      5 C5          1.8510    1.3020   -0.8260 c3        1 UW2      0.074300
      6 N3          1.3480    1.3770   -2.1820 na        1 UW2      0.008200
      7 C2          0.1030    1.9320   -2.5470 ca        1 UW2      0.486800
      8 N1         -0.8140    2.6250   -1.8040 nb        1 UW2     -0.727000
      9 C1         -1.8900    3.0080   -2.5270 ca        1 UW2      0.692900
     10 N          -2.1780    2.8060   -3.8420 nb        1 UW2     -0.796000
     11 N2          1.9360    0.7750   -3.2360 nc        1 UW2     -0.507100
     12 C4          1.1500    0.9350   -4.3310 cd        1 UW2      0.422500
     13 C3         -0.0510    1.6650   -3.9690 ca        1 UW2     -0.494500
     14 C          -1.2460    2.1330   -4.5950 ca        1 UW2      0.750200
     15 N5         -1.4390    1.9580   -5.9500 nv        1 UW2     -0.950500
     16 C9          1.4970    0.4340   -5.6550 ca        1 UW2     -0.113900
     17 C14         1.5720    1.2880   -6.7380 ca        1 UW2     -0.089000
     18 C13         1.9050    0.7920   -8.0200 ca        1 UW2     -0.184300
     19 C15         1.9890    1.6500   -9.1580 ca        1 UW2     -0.061000
     20 C16         2.3150    1.1320  -10.3800 ca        1 UW2     -0.244300
     21 C17         2.5640   -0.2890  -10.4600 ca        1 UW2      0.647600
     22 O1          2.8780   -0.7060  -11.7400 os        1 UW2     -0.422100
     23 C18         3.1390   -2.0840  -11.9310 cx        1 UW2      0.085100
     24 C20         4.5600   -2.5650  -11.7900 cx        1 UW2     -0.134400
     25 C19         3.9720   -2.3590  -13.1570 cx        1 UW2     -0.134400
     26 N4          2.5020   -1.1350   -9.4310 nb        1 UW2     -0.729000
     27 C12         2.1750   -0.6000   -8.2000 ca        1 UW2      0.437600
     28 C11         2.1030   -1.4570   -7.0560 ca        1 UW2     -0.183300
     29 C10         1.7780   -0.9480   -5.8240 ca        1 UW2     -0.091000
     30 H1          0.2750   -1.2340    0.3770 ho        1 UW2      0.402000
     31 H2          1.8230    0.8800    1.8330 hc        1 UW2      0.048200
     32 H3          3.4320    0.3150    1.1980 hc        1 UW2      0.048200
     33 H4          2.2290   -0.8840    1.8350 hc        1 UW2      0.048200
     34 H5          2.6390   -2.0550   -0.2250 hc        1 UW2      0.048200
     35 H6          1.8430   -1.5140   -1.7570 hc        1 UW2      0.048200
     36 H7          3.4440   -0.8090   -1.2700 hc        1 UW2      0.048200
     37 H8          2.9420    1.5890   -0.8390 h1        1 UW2      0.083200
     38 H9          1.2690    2.0490   -0.2140 h1        1 UW2      0.083200
     39 H10        -2.6680    3.5670   -1.9630 h5        1 UW2      0.052100
     40 H11        -2.3340    2.1440   -6.3350 hn        1 UW2      0.435300
     41 H12        -0.8750    1.2740   -6.3980 hn        1 UW2      0.435300
     42 H13         1.3820    2.3660   -6.6170 ha        1 UW2      0.149000
     43 H14         1.7890    2.7250   -9.0300 ha        1 UW2      0.145000
     44 H15         2.3960    1.7380  -11.2910 ha        1 UW2      0.162000
     45 H16         2.2840   -2.7220  -11.6460 h1        1 UW2      0.102700
     46 H17         4.7320   -3.5900  -11.4190 hc        1 UW2      0.081200
     47 H18         5.3300   -1.8580  -11.4340 hc        1 UW2      0.081200
     48 H19         4.3240   -1.5040  -13.7630 hc        1 UW2      0.081200
     49 H20         3.7090   -3.2330  -13.7780 hc        1 UW2      0.081200
     50 H21         2.3180   -2.5300   -7.1780 ha        1 UW2      0.153000
     51 H22         1.7340   -1.6080   -4.9440 ha        1 UW2      0.148000
@<TRIPOS>BOND
     1    1    2 1   
     2    1   30 1   
     3    2    3 1   
     4    2    4 1   
     5    2    5 1   
     6    3   31 1   
     7    3   32 1   
     8    3   33 1   
     9    4   34 1   
    10    4   35 1   
    11    4   36 1   
    12    5    6 1   
    13    5   37 1   
    14    5   38 1   
    15    6    7 1   
    16    6   11 1   
    17    7    8 ar  
    18    7   13 ar  
    19    8    9 ar  
    20    9   10 ar  
    21    9   39 1   
    22   10   14 ar  
    23   11   12 2   
    24   12   13 1   
    25   12   16 1   
    26   13   14 ar  
    27   14   15 1   
    28   15   40 1   
    29   15   41 1   
    30   16   17 ar  
    31   16   29 ar  
    32   17   18 ar  
    33   17   42 1   
    34   18   19 ar  
    35   18   27 ar  
    36   19   20 ar  
    37   19   43 1   
    38   20   21 ar  
    39   20   44 1   
    40   21   22 1   
    41   21   26 ar  
    42   22   23 1   
    43   23   24 1   
    44   23   25 1   
    45   23   45 1   
    46   24   25 1   
    47   24   46 1   
    48   24   47 1   
    49   25   48 1   
    50   25   49 1   
    51   26   27 ar  
    52   27   28 ar  
    53   28   29 ar  
    54   28   50 1   
    55   29   51 1   
@<TRIPOS>SUBSTRUCTURE
     1 UW2         1 TEMP              0 ****  ****    0 ROOT
