@<TRIPOS>MOLECULE
UW2
   51    55     1     0     0
SMALL
bcc


@<TRIPOS>ATOM
      1 O           0.3380   -0.3620   -0.0260 oh        1 UW2     -0.588800
      2 C6          1.7330   -0.0890   -0.1260 c3        1 UW2      0.130800
      3 C7          2.3320    0.0490    1.2720 c3        1 UW2     -0.124600
      4 C8          2.4430   -1.1940   -0.8920 c3        1 UW2     -0.124600
      5 C5          1.8530    1.2890   -0.8220 c3        1 UW2      0.074300
      6 N3          1.3530    1.3720   -2.1780 na        1 UW2      0.008200
      7 C2          0.1130    1.9360   -2.5460 ca        1 UW2      0.486800
      8 N1         -0.8010    2.6340   -1.8030 nb        1 UW2     -0.727000
      9 C1         -1.8720    3.0260   -2.5280 ca        1 UW2      0.692900
     10 N          -2.1590    2.8290   -3.8440 nb        1 UW2     -0.796000
     11 N2          1.9400    0.7680   -3.2330 nc        1 UW2     -0.507100
     12 C4          1.1580    0.9370   -4.3300 cd        1 UW2      0.422500
     13 C3         -0.0390    1.6740   -3.9690 ca        1 UW2     -0.494500
     14 C          -1.2290    2.1520   -4.5960 ca        1 UW2      0.750200
     15 N5         -1.4200    1.9820   -5.9520 nh        1 UW2     -0.950500
     16 C9          1.5050    0.4370   -5.6540 ca        1 UW2     -0.113900
     17 C14         1.5870    1.2930   -6.7340 ca        1 UW2     -0.089000
     18 C13         1.9200    0.7980   -8.0170 ca        1 UW2     -0.184300
     19 C15         2.0120    1.6590   -9.1520 ca        1 UW2     -0.061000
     20 C16         2.3380    1.1420  -10.3750 ca        1 UW2     -0.244300
     21 C17         2.5780   -0.2800  -10.4590 ca        1 UW2      0.647600
     22 O1          2.8920   -0.6960  -11.7390 os        1 UW2     -0.422100
     23 C18         3.1440   -2.0750  -11.9330 cx        1 UW2      0.085100
     24 C20         4.5620   -2.5660  -11.7910 cx        1 UW2     -0.134400
     25 C19         3.9780   -2.3520  -13.1590 cx        1 UW2     -0.134400
     26 N4          2.5090   -1.1280   -9.4320 nb        1 UW2     -0.729000
     27 C12         2.1820   -0.5950   -8.2010 ca        1 UW2      0.437600
     28 C11         2.1020   -1.4540   -7.0590 ca        1 UW2     -0.183300
     29 C10         1.7770   -0.9460   -5.8260 ca        1 UW2     -0.091000
     30 H1          0.2530   -1.2370    0.3700 ho        1 UW2      0.402000
     31 H2          1.8140    0.8610    1.8360 hc        1 UW2      0.048200
     32 H3          3.4200    0.2840    1.2030 hc        1 UW2      0.048200
     33 H4          2.2060   -0.9070    1.8350 hc        1 UW2      0.048200
     34 H5          3.4300   -0.8340   -1.2660 hc        1 UW2      0.048200
     35 H6          1.8240   -1.5240   -1.7600 hc        1 UW2      0.048200
     36 H7          2.6110   -2.0760   -0.2270 hc        1 UW2      0.048200
     37 H8          1.2750    2.0390   -0.2100 h1        1 UW2      0.083200
     38 H9          2.9450    1.5670   -0.8310 h1        1 UW2      0.083200
     39 H10        -2.6480    3.5890   -1.9640 h5        1 UW2      0.052100
     40 H11        -0.8600    1.2950   -6.4010 hn        1 UW2      0.435300
     41 H12        -2.3130    2.1750   -6.3380 hn        1 UW2      0.435300
     42 H13         1.4050    2.3730   -6.6110 ha        1 UW2      0.149000
     43 H14         1.8190    2.7350   -9.0220 ha        1 UW2      0.145000
     44 H15         2.4250    1.7500  -11.2850 ha        1 UW2      0.162000
     45 H16         2.2840   -2.7080  -11.6520 h1        1 UW2      0.102700
     46 H17         5.3350   -1.8640  -11.4310 hc        1 UW2      0.081200
     47 H18         4.7270   -3.5920  -11.4210 hc        1 UW2      0.081200
     48 H19         3.7110   -3.2230  -13.7820 hc        1 UW2      0.081200
     49 H20         4.3370   -1.4980  -13.7610 hc        1 UW2      0.081200
     50 H21         2.3100   -2.5290   -7.1840 ha        1 UW2      0.153000
     51 H22         1.7270   -1.6080   -4.9470 ha        1 UW2      0.148000
@<TRIPOS>BOND
     1    1    2 1   
     2    1   30 1   
     3    2    3 1   
     4    2    4 1   
     5    2    5 1   
     6    3   31 1   
     7    3   32 1   
     8    3   33 1   
     9    4   34 1   
    10    4   35 1   
    11    4   36 1   
    12    5    6 1   
    13    5   37 1   
    14    5   38 1   
    15    6    7 1   
    16    6   11 1   
    17    7    8 ar  
    18    7   13 ar  
    19    8    9 ar  
    20    9   10 ar  
    21    9   39 1   
    22   10   14 ar  
    23   11   12 2   
    24   12   13 1   
    25   12   16 1   
    26   13   14 ar  
    27   14   15 1   
    28   15   40 1   
    29   15   41 1   
    30   16   17 ar  
    31   16   29 ar  
    32   17   18 ar  
    33   17   42 1   
    34   18   19 ar  
    35   18   27 ar  
    36   19   20 ar  
    37   19   43 1   
    38   20   21 ar  
    39   20   44 1   
    40   21   22 1   
    41   21   26 ar  
    42   22   23 1   
    43   23   24 1   
    44   23   25 1   
    45   23   45 1   
    46   24   25 1   
    47   24   46 1   
    48   24   47 1   
    49   25   48 1   
    50   25   49 1   
    51   26   27 ar  
    52   27   28 ar  
    53   28   29 ar  
    54   28   50 1   
    55   29   51 1   
@<TRIPOS>SUBSTRUCTURE
     1 UW2         1 TEMP              0 ****  ****    0 ROOT
