@<TRIPOS>MOLECULE
UW3
   58    62     1     0     0
SMALL
bcc


@<TRIPOS>ATOM
      1 CAM        -0.3310   -0.2540    0.5160 cy        1 UW3     -0.101400
      2 CAN         1.0910   -0.7280    0.1520 cy        1 UW3     -0.088400
      3 CAO         1.6990    0.3040    1.1240 cy        1 UW3     -0.101400
      4 CAL         0.2700    0.7490    1.5350 cy        1 UW3      0.104100
      5 OAK         0.1100    2.1240    1.1860 os        1 UW3     -0.302900
      6 CAC        -1.0830    2.7140    1.5160 ca        1 UW3      0.177100
      7 CAD        -2.2070    2.0310    1.9500 ca        1 UW3     -0.272300
      8 CAB        -1.0910    4.1340    1.3510 ca        1 UW3     -0.125000
      9 CAA        -2.2280    4.8400    1.6370 ca        1 UW3     -0.082000
     10 CAF        -3.4000    4.1810    2.0940 ca        1 UW3     -0.194300
     11 CAJ        -4.5850    4.8950    2.4080 ca        1 UW3     -0.013000
     12 CAE        -3.3920    2.7570    2.2590 ca        1 UW3      0.437600
     13 NAG        -4.5090    2.0800    2.7230 nb        1 UW3     -0.647000
     14 CAH        -5.5890    2.7800    3.0070 ca        1 UW3      0.379200
     15 CAI        -5.7010    4.2010    2.8350 ca        1 UW3     -0.345800
     16 CAP        -6.9470    4.8670    3.1690 cc        1 UW3      0.441800
     17 NAT        -7.0970    5.7440    4.1810 nd        1 UW3     -0.432800
     18 CAQ        -8.2210    4.6900    2.4670 cc        1 UW3     -0.479900
     19 CAW        -8.5770    3.9350    1.3410 c         1 UW3      0.609700
     20 OAY        -9.6630    3.8240    0.7640 o         1 UW3     -0.525100
     21 NAX        -7.4630    3.1190    0.7050 nz        1 UW3     -0.747400
     22 CAR        -9.1450    5.5560    3.1870 cd        1 UW3      0.302300
     23 NAV       -10.4530    5.7420    2.9130 nv        1 UW3     -0.824200
     24 NAS        -8.3930    6.1370    4.2250 na        1 UW3      0.056400
     25 CAU        -8.9090    7.1660    5.1440 c3        1 UW3      0.068000
     26 CAZ        -9.0010    8.5490    4.4790 c3        1 UW3     -0.088900
     27 CBA        -9.6690    9.5260    5.4250 c3        1 UW3     -0.080400
     28 CBB        -8.9280    9.6170    6.7430 c3        1 UW3     -0.086400
     29 CBC        -8.7700    8.2520    7.3800 c3        1 UW3     -0.080400
     30 CBD        -8.0910    7.2750    6.4390 c3        1 UW3     -0.088900
     31 H1         -0.8720    0.2350   -0.3220 hc        1 UW3      0.066950
     32 H2         -0.9720   -1.0310    0.9830 hc        1 UW3      0.066950
     33 H3          1.3640   -0.5610   -0.9110 hc        1 UW3      0.062200
     34 H4          1.2980   -1.7840    0.4290 hc        1 UW3      0.062200
     35 H5          2.2860    1.1070    0.6280 hc        1 UW3      0.066950
     36 H6          2.2790   -0.1300    1.9650 hc        1 UW3      0.066950
     37 H7         -0.0040    0.5790    2.6000 h1        1 UW3      0.071700
     38 H8         -2.1960    0.9350    2.0640 ha        1 UW3      0.171000
     39 H9         -0.1700    4.6270    1.0000 ha        1 UW3      0.171000
     40 H10        -2.2480    5.9360    1.5240 ha        1 UW3      0.150000
     41 H11        -4.5970    5.9930    2.3110 ha        1 UW3      0.159000
     42 H12        -6.4340    2.2160    3.4490 h4        1 UW3      0.028100
     43 H13        -7.2630    2.3010    1.2910 hn        1 UW3      0.464800
     44 H14        -6.6100    3.6860    0.6440 hn        1 UW3      0.464800
     45 H15       -11.0130    6.3680    3.4420 hn        1 UW3      0.474300
     46 H16       -10.8660    5.2130    2.1760 hn        1 UW3      0.474300
     47 H17        -9.9530    6.8220    5.4210 h1        1 UW3      0.061700
     48 H18        -7.9720    8.9130    4.2230 hc        1 UW3      0.061950
     49 H19        -9.5900    8.4880    3.5270 hc        1 UW3      0.061950
     50 H20        -9.7000   10.5370    4.9410 hc        1 UW3      0.054700
     51 H21       -10.7290    9.2090    5.6100 hc        1 UW3      0.054700
     52 H22        -7.9170   10.0720    6.5750 hc        1 UW3      0.057700
     53 H23        -9.4890   10.2930    7.4410 hc        1 UW3      0.057700
     54 H24        -8.1530    8.3410    8.3130 hc        1 UW3      0.054700
     55 H25        -9.7750    7.8550    7.6790 hc        1 UW3      0.054700
     56 H26        -7.0530    7.6320    6.2100 hc        1 UW3      0.061950
     57 H27        -8.0090    6.2710    6.9310 hc        1 UW3      0.061950
     58 HAX3       -7.7520    2.8080   -0.2270 hn        1 UW3      0.464800
@<TRIPOS>BOND
     1    1    2 1   
     2    1    4 1   
     3    1   31 1   
     4    1   32 1   
     5    2    3 1   
     6    2   33 1   
     7    2   34 1   
     8    3    4 1   
     9    3   35 1   
    10    3   36 1   
    11    4    5 1   
    12    4   37 1   
    13    5    6 1   
    14    6    7 ar  
    15    6    8 ar  
    16    7   12 ar  
    17    7   38 1   
    18    8    9 ar  
    19    8   39 1   
    20    9   10 ar  
    21    9   40 1   
    22   10   11 ar  
    23   10   12 ar  
    24   11   15 ar  
    25   11   41 1   
    26   12   13 ar  
    27   13   14 ar  
    28   14   15 ar  
    29   14   42 1   
    30   15   16 1   
    31   16   17 2   
    32   16   18 1   
    33   17   24 1   
    34   18   19 1   
    35   18   22 2   
    36   19   20 2   
    37   19   21 1   
    38   21   43 1   
    39   21   44 1   
    40   21   58 1   
    41   22   23 1   
    42   22   24 1   
    43   23   45 1   
    44   23   46 1   
    45   24   25 1   
    46   25   26 1   
    47   25   30 1   
    48   25   47 1   
    49   26   27 1   
    50   26   48 1   
    51   26   49 1   
    52   27   28 1   
    53   27   50 1   
    54   27   51 1   
    55   28   29 1   
    56   28   52 1   
    57   28   53 1   
    58   29   30 1   
    59   29   54 1   
    60   29   55 1   
    61   30   56 1   
    62   30   57 1   
@<TRIPOS>SUBSTRUCTURE
     1 UW3         1 TEMP              0 ****  ****    0 ROOT
