@<TRIPOS>MOLECULE
UW3
   57    61     1     0     0
SMALL
bcc


@<TRIPOS>ATOM
      1 CAM        -0.2670   -0.1610    0.4300 cy        1 UW3     -0.102900
      2 CAN         1.1700   -0.6440    0.1420 cy        1 UW3     -0.091400
      3 CAO         1.7150    0.2760    1.2540 cy        1 UW3     -0.102900
      4 CAL         0.2670    0.7270    1.5840 cy        1 UW3      0.114100
      5 OAK         0.1640    2.1280    1.3580 os        1 UW3     -0.316900
      6 CAC        -1.0480    2.7110    1.6680 ca        1 UW3      0.142100
      7 CAD        -2.2080    2.0110    1.9330 ca        1 UW3     -0.258300
      8 CAB        -1.0160    4.1380    1.6690 ca        1 UW3     -0.142000
      9 CAA        -2.1630    4.8330    1.9450 ca        1 UW3     -0.083000
     10 CAF        -3.3770    4.1560    2.2310 ca        1 UW3     -0.183300
     11 CAJ        -4.5760    4.8600    2.5290 ca        1 UW3     -0.041000
     12 CAE        -3.4090    2.7270    2.2280 ca        1 UW3      0.430600
     13 NAG        -4.5710    2.0270    2.5040 nb        1 UW3     -0.667000
     14 CAH        -5.6640    2.7160    2.7690 ca        1 UW3      0.432200
     15 CAI        -5.7310    4.1520    2.7860 ca        1 UW3     -0.262800
     16 CAP        -6.9830    4.8150    3.1120 cc        1 UW3      0.414800
     17 NAT        -7.0940    5.6990    4.1410 nd        1 UW3     -0.506800
     18 CAQ        -8.2670    4.6480    2.4580 cc        1 UW3     -0.387900
     19 CAW        -8.6780    3.8320    1.3240 c         1 UW3      0.720700
     20 OAY        -9.8920    3.6280    1.0610 o         1 UW3     -0.670100
     21 NAX        -7.7210    3.2690    0.5180 n         1 UW3     -0.667000
     22 CAR        -9.1560    5.5030    3.1810 cd        1 UW3      0.196300
     23 NAV       -10.4760    5.7820    2.8930 nh        1 UW3     -0.809200
     24 NAS        -8.3830    6.0850    4.2170 na        1 UW3      0.062400
     25 CAU        -8.8580    7.1580    5.0930 c3        1 UW3      0.080000
     26 CAZ        -8.8550    8.5310    4.4010 c3        1 UW3     -0.089900
     27 CBA        -9.4790    9.5690    5.3100 c3        1 UW3     -0.077900
     28 CBB        -8.7650    9.6440    6.6430 c3        1 UW3     -0.082400
     29 CBC        -8.7080    8.2870    7.3120 c3        1 UW3     -0.077900
     30 CBD        -8.0700    7.2510    6.4090 c3        1 UW3     -0.089900
     31 H1         -0.9640   -0.9570    0.7650 hc        1 UW3      0.063950
     32 H2         -0.7230    0.4190   -0.3990 hc        1 UW3      0.063950
     33 H3          1.3280   -1.7260    0.3350 hc        1 UW3      0.053700
     34 H4          1.5360   -0.3880   -0.8740 hc        1 UW3      0.053700
     35 H5          2.2110   -0.2520    2.0940 hc        1 UW3      0.063950
     36 H6          2.3600    1.1020    0.8860 hc        1 UW3      0.063950
     37 H7         -0.1010    0.4600    2.6010 h1        1 UW3      0.066700
     38 H8         -2.2290    0.9110    1.9130 ha        1 UW3      0.159000
     39 H9         -0.0660    4.6440    1.4460 ha        1 UW3      0.154000
     40 H10        -2.1610    5.9350    1.9520 ha        1 UW3      0.139000
     41 H11        -4.5650    5.9600    2.5500 ha        1 UW3      0.150000
     42 H12        -6.5760    2.1290    2.9930 h4        1 UW3      0.035100
     43 H13        -6.7610    3.4500    0.6580 hn        1 UW3      0.315500
     44 H14        -8.0040    2.7300   -0.2620 hn        1 UW3      0.315500
     45 H15       -11.0570    6.0290    3.6630 hn        1 UW3      0.428300
     46 H16       -10.8810    5.1260    2.2500 hn        1 UW3      0.428300
     47 H17        -9.9280    6.8910    5.3510 h1        1 UW3      0.051700
     48 H18        -7.8010    8.8250    4.1560 hc        1 UW3      0.061950
     49 H19        -9.4290    8.4790    3.4390 hc        1 UW3      0.061950
     50 H20        -9.4400   10.5690    4.8050 hc        1 UW3      0.043950
     51 H21       -10.5610    9.3210    5.4770 hc        1 UW3      0.043950
     52 H22        -9.2950   10.3710    7.3120 hc        1 UW3      0.045200
     53 H23        -7.7230   10.0280    6.4870 hc        1 UW3      0.045200
     54 H24        -9.7450    7.9600    7.5900 hc        1 UW3      0.043950
     55 H25        -8.1140    8.3590    8.2600 hc        1 UW3      0.043950
     56 H26        -8.0600    6.2550    6.9220 hc        1 UW3      0.061950
     57 H27        -7.0060    7.5370    6.1990 hc        1 UW3      0.061950
@<TRIPOS>BOND
     1    1    2 1   
     2    1    4 1   
     3    1   31 1   
     4    1   32 1   
     5    2    3 1   
     6    2   33 1   
     7    2   34 1   
     8    3    4 1   
     9    3   35 1   
    10    3   36 1   
    11    4    5 1   
    12    4   37 1   
    13    5    6 1   
    14    6    7 ar  
    15    6    8 ar  
    16    7   12 ar  
    17    7   38 1   
    18    8    9 ar  
    19    8   39 1   
    20    9   10 ar  
    21    9   40 1   
    22   10   11 ar  
    23   10   12 ar  
    24   11   15 ar  
    25   11   41 1   
    26   12   13 ar  
    27   13   14 ar  
    28   14   15 ar  
    29   14   42 1   
    30   15   16 1   
    31   16   17 2   
    32   16   18 1   
    33   17   24 1   
    34   18   19 1   
    35   18   22 2   
    36   19   20 2   
    37   19   21 1   
    38   21   43 1   
    39   21   44 1   
    40   22   23 1   
    41   22   24 1   
    42   23   45 1   
    43   23   46 1   
    44   24   25 1   
    45   25   26 1   
    46   25   30 1   
    47   25   47 1   
    48   26   27 1   
    49   26   48 1   
    50   26   49 1   
    51   27   28 1   
    52   27   50 1   
    53   27   51 1   
    54   28   29 1   
    55   28   52 1   
    56   28   53 1   
    57   29   30 1   
    58   29   54 1   
    59   29   55 1   
    60   30   56 1   
    61   30   57 1   
@<TRIPOS>SUBSTRUCTURE
     1 UW3         1 TEMP              0 ****  ****    0 ROOT
