@<TRIPOS>MOLECULE
UW3
   58    62     1     0     0
SMALL
bcc


@<TRIPOS>ATOM
      1 CAM        -0.3420   -0.2590    0.5050 cy        1 UW3     -0.101400
      2 CAN         1.0810   -0.7390    0.1500 cy        1 UW3     -0.088400
      3 CAO         1.6870    0.2790    1.1390 cy        1 UW3     -0.101400
      4 CAL         0.2570    0.7290    1.5410 cy        1 UW3      0.104100
      5 OAK         0.1090    2.1090    1.2070 os        1 UW3     -0.302900
      6 CAC        -1.0830    2.7030    1.5310 ca        1 UW3      0.177100
      7 CAD        -2.2150    2.0220    1.9470 ca        1 UW3     -0.272300
      8 CAB        -1.0790    4.1250    1.3840 ca        1 UW3     -0.125000
      9 CAA        -2.2140    4.8360    1.6670 ca        1 UW3     -0.082000
     10 CAF        -3.3950    4.1790    2.1050 ca        1 UW3     -0.194300
     11 CAJ        -4.5780    4.8980    2.4170 ca        1 UW3     -0.013000
     12 CAE        -3.3990    2.7530    2.2530 ca        1 UW3      0.437600
     13 NAG        -4.5240    2.0790    2.6990 nb        1 UW3     -0.647000
     14 CAH        -5.6030    2.7830    2.9810 ca        1 UW3      0.379200
     15 CAI        -5.7020    4.2070    2.8240 ca        1 UW3     -0.345800
     16 CAP        -6.9480    4.8780    3.1550 cc        1 UW3      0.441800
     17 NAT        -7.1000    5.7430    4.1760 nd        1 UW3     -0.432800
     18 CAQ        -8.2150    4.7180    2.4390 cc        1 UW3     -0.479900
     19 CAW        -8.5660    3.9790    1.3000 c         1 UW3      0.609700
     20 OAY        -9.6470    3.8840    0.7110 o         1 UW3     -0.525100
     21 NAX        -7.4510    3.1640    0.6650 n4        1 UW3     -0.747400
     22 CAR        -9.1410    5.5820    3.1590 cd        1 UW3      0.302300
     23 NAV       -10.4440    5.7810    2.8760 nh        1 UW3     -0.824200
     24 NAS        -8.3950    6.1450    4.2120 na        1 UW3      0.056400
     25 CAU        -8.9120    7.1650    5.1400 c3        1 UW3      0.068000
     26 CAZ        -8.9880    8.5570    4.4920 c3        1 UW3     -0.088900
     27 CBA        -9.6580    9.5270    5.4450 c3        1 UW3     -0.080400
     28 CBB        -8.9300    9.5950    6.7710 c3        1 UW3     -0.086400
     29 CBC        -8.7870    8.2210    7.3910 c3        1 UW3     -0.080400
     30 CBD        -8.1060    7.2520    6.4440 c3        1 UW3     -0.088900
     31 H1         -0.8710    0.2430   -0.3320 hc        1 UW3      0.066950
     32 H2         -0.9920   -1.0360    0.9570 hc        1 UW3      0.066950
     33 H3          1.2780   -1.7980    0.4160 hc        1 UW3      0.062200
     34 H4          1.3650   -0.5610   -0.9090 hc        1 UW3      0.062200
     35 H5          2.2840    1.0830    0.6580 hc        1 UW3      0.066950
     36 H6          2.2550   -0.1690    1.9800 hc        1 UW3      0.066950
     37 H7         -0.0290    0.5480    2.6020 h1        1 UW3      0.071700
     38 H8         -2.2130    0.9260    2.0480 ha        1 UW3      0.171000
     39 H9         -0.1520    4.6150    1.0470 ha        1 UW3      0.171000
     40 H10        -2.2250    5.9330    1.5660 ha        1 UW3      0.150000
     41 H11        -4.5820    5.9970    2.3320 ha        1 UW3      0.159000
     42 H12        -6.4550    2.2190    3.4080 h4        1 UW3      0.028100
     43 H13        -6.5940    3.7250    0.6180 hn        1 UW3      0.464800
     44 H14        -7.2630    2.3380    1.2430 hn        1 UW3      0.464800
     45 H15       -10.8540    5.2650    2.1280 hn        1 UW3      0.474300
     46 H16       -11.0050    6.4040    3.4080 hn        1 UW3      0.474300
     47 H17        -9.9610    6.8250    5.4020 h1        1 UW3      0.061700
     48 H18        -7.9540    8.9180    4.2500 hc        1 UW3      0.061700
     49 H19        -9.5690    8.5120    3.5340 hc        1 UW3      0.061700
     50 H20        -9.6780   10.5440    4.9730 hc        1 UW3      0.054700
     51 H21       -10.7220    9.2150    5.6150 hc        1 UW3      0.054700
     52 H22        -9.4920   10.2660    7.4720 hc        1 UW3      0.057700
     53 H23        -7.9130   10.0450    6.6180 hc        1 UW3      0.057700
     54 H24        -8.1790    8.2940    8.3310 hc        1 UW3      0.054700
     55 H25        -9.7980    7.8270    7.6760 hc        1 UW3      0.054700
     56 H26        -8.0360    6.2410    6.9230 hc        1 UW3      0.061700
     57 H27        -7.0640    7.6040    6.2290 hc        1 UW3      0.061700
     58 HAX3       -7.7340    2.8660   -0.2740 hn        1 UW3      0.464800
@<TRIPOS>BOND
     1    1    2 1   
     2    1    4 1   
     3    1   31 1   
     4    1   32 1   
     5    2    3 1   
     6    2   33 1   
     7    2   34 1   
     8    3    4 1   
     9    3   35 1   
    10    3   36 1   
    11    4    5 1   
    12    4   37 1   
    13    5    6 1   
    14    6    7 ar  
    15    6    8 ar  
    16    7   12 ar  
    17    7   38 1   
    18    8    9 ar  
    19    8   39 1   
    20    9   10 ar  
    21    9   40 1   
    22   10   11 ar  
    23   10   12 ar  
    24   11   15 ar  
    25   11   41 1   
    26   12   13 ar  
    27   13   14 ar  
    28   14   15 ar  
    29   14   42 1   
    30   15   16 1   
    31   16   17 2   
    32   16   18 1   
    33   17   24 1   
    34   18   19 1   
    35   18   22 2   
    36   19   20 2   
    37   19   21 1   
    38   21   43 1   
    39   21   44 1   
    40   21   58 1   
    41   22   23 1   
    42   22   24 1   
    43   23   45 1   
    44   23   46 1   
    45   24   25 1   
    46   25   26 1   
    47   25   30 1   
    48   25   47 1   
    49   26   27 1   
    50   26   48 1   
    51   26   49 1   
    52   27   28 1   
    53   27   50 1   
    54   27   51 1   
    55   28   29 1   
    56   28   52 1   
    57   28   53 1   
    58   29   30 1   
    59   29   54 1   
    60   29   55 1   
    61   30   56 1   
    62   30   57 1   
@<TRIPOS>SUBSTRUCTURE
     1 UW3         1 TEMP              0 ****  ****    0 ROOT
