@<TRIPOS>MOLECULE
UW4
   54    57     1     0     0
SMALL
bcc


@<TRIPOS>ATOM
      1 O1          1.1680   -0.9660    1.0720 o         1 UW4     -0.436100
      2 C19         1.2750   -0.1060    0.2090 c         1 UW4      0.628700
      3 N3          0.4620    1.1490    0.5350 nz        1 UW4     -0.756400
      4 C18         1.9900   -0.0730   -1.0200 cc        1 UW4     -0.384900
      5 C20         2.4050    1.0720   -1.7870 cd        1 UW4      0.105300
      6 N4          2.1690    2.4110   -1.4260 nv        1 UW4     -0.822200
      7 N           3.0730    0.5650   -2.9060 na        1 UW4      0.136400
      8 C1          3.7560    1.3710   -3.9670 c3        1 UW4      0.068700
      9 C3          5.0330    2.0060   -3.3980 c3        1 UW4     -0.112100
     10 C2          4.1610    0.4900   -5.1620 c3        1 UW4     -0.112100
     11 C           2.8320    2.4820   -4.4910 c3        1 UW4     -0.112100
     12 C4          2.4650   -1.2230   -1.7790 cc        1 UW4      0.495800
     13 N1          3.1000   -0.7770   -2.9010 nd        1 UW4     -0.478800
     14 C5          2.2950   -2.6350   -1.4760 ca        1 UW4     -0.204500
     15 C10         2.6180   -3.1300   -0.1850 ca        1 UW4     -0.091000
     16 C9          2.4870   -4.4620    0.1130 ca        1 UW4     -0.172300
     17 C8          2.0190   -5.3870   -0.8770 ca        1 UW4      0.463600
     18 N2          1.8900   -6.7200   -0.5500 nb        1 UW4     -0.741000
     19 C11         1.4590   -7.5430   -1.5110 ca        1 UW4      0.671600
     20 C16         1.1200   -7.1290   -2.8570 ca        1 UW4     -0.236300
     21 C17         1.2490   -5.8060   -3.1680 ca        1 UW4     -0.059000
     22 C7          1.7060   -4.8830   -2.1770 ca        1 UW4     -0.198300
     23 C6          1.8600   -3.5080   -2.4580 ca        1 UW4     -0.033000
     24 O           1.2920   -8.8890   -1.3050 os        1 UW4     -0.428100
     25 C12         1.6400   -9.4270   -0.0270 cy        1 UW4      0.124100
     26 C15         0.5820   -9.1970    1.0810 cy        1 UW4     -0.098900
     27 C14         0.2860  -10.7120    1.1060 cy        1 UW4     -0.093400
     28 C13         1.3000  -10.9420   -0.0350 cy        1 UW4     -0.098900
     29 H1         -0.1720    0.9530    1.3170 hn        1 UW4      0.461800
     30 H2         -0.0770    1.4380   -0.2830 hn        1 UW4      0.461800
     31 H3          1.7330    2.9230   -2.1750 hn        1 UW4      0.401800
     32 H4          3.0240    2.8700   -1.1580 hn        1 UW4      0.401800
     33 H5          4.8140    2.6700   -2.5290 hc        1 UW4      0.062478
     34 H6          5.5050    2.6220   -4.2020 hc        1 UW4      0.062478
     35 H7          5.7600    1.2200   -3.0800 hc        1 UW4      0.062478
     36 H8          4.8780   -0.3090   -4.8540 hc        1 UW4      0.062478
     37 H9          4.6660    1.1390   -5.9200 hc        1 UW4      0.062478
     38 H10         3.2660    0.0180   -5.6310 hc        1 UW4      0.062478
     39 H11         2.9020    3.3990   -3.8600 hc        1 UW4      0.062478
     40 H12         1.7690    2.1500   -4.5570 hc        1 UW4      0.062478
     41 H13         3.1640    2.7640   -5.5220 hc        1 UW4      0.062478
     42 H14         2.9820   -2.4290    0.5820 ha        1 UW4      0.139000
     43 H15         2.7440   -4.8380    1.1160 ha        1 UW4      0.163000
     44 H16         0.7760   -7.8880   -3.5720 ha        1 UW4      0.172000
     45 H17         1.0080   -5.4320   -4.1750 ha        1 UW4      0.147000
     46 H18         1.6260   -3.1470   -3.4730 ha        1 UW4      0.144000
     47 H19         2.6870   -9.1630    0.2400 h1        1 UW4      0.078700
     48 H20         1.0080   -8.7930    2.0230 hc        1 UW4      0.065450
     49 H21        -0.2750   -8.5730    0.7540 hc        1 UW4      0.065450
     50 H22        -0.7590  -10.9720    0.8380 hc        1 UW4      0.057700
     51 H23         0.5620  -11.2100    2.0590 hc        1 UW4      0.057700
     52 H24         2.1650  -11.5830    0.2320 hc        1 UW4      0.065450
     53 H25         0.8440  -11.2890   -0.9860 hc        1 UW4      0.065450
     54 H33         1.0930    1.9110    0.7980 hn        1 UW4      0.461800
@<TRIPOS>BOND
     1    1    2 2   
     2    2    3 1   
     3    2    4 1   
     4    3   29 1   
     5    3   30 1   
     6    3   54 1   
     7    4    5 2   
     8    4   12 1   
     9    5    6 1   
    10    5    7 1   
    11    6   31 1   
    12    6   32 1   
    13    7    8 1   
    14    7   13 1   
    15    8    9 1   
    16    8   10 1   
    17    8   11 1   
    18    9   33 1   
    19    9   34 1   
    20    9   35 1   
    21   10   36 1   
    22   10   37 1   
    23   10   38 1   
    24   11   39 1   
    25   11   40 1   
    26   11   41 1   
    27   12   13 2   
    28   12   14 1   
    29   14   15 ar  
    30   14   23 ar  
    31   15   16 ar  
    32   15   42 1   
    33   16   17 ar  
    34   16   43 1   
    35   17   18 ar  
    36   17   22 ar  
    37   18   19 ar  
    38   19   20 ar  
    39   19   24 1   
    40   20   21 ar  
    41   20   44 1   
    42   21   22 ar  
    43   21   45 1   
    44   22   23 ar  
    45   23   46 1   
    46   24   25 1   
    47   25   26 1   
    48   25   28 1   
    49   25   47 1   
    50   26   27 1   
    51   26   48 1   
    52   26   49 1   
    53   27   28 1   
    54   27   50 1   
    55   27   51 1   
    56   28   52 1   
    57   28   53 1   
@<TRIPOS>SUBSTRUCTURE
     1 UW4         1 TEMP              0 ****  ****    0 ROOT
