@<TRIPOS>MOLECULE
UW4
   54    57     1     0     0
SMALL
bcc


@<TRIPOS>ATOM
      1 O1          1.1320   -0.9600    1.0580 o         1 UW4     -0.436100
      2 C19         1.2450   -0.1020    0.1930 c         1 UW4      0.628700
      3 N3          0.4250    1.1510    0.5080 n4        1 UW4     -0.756400
      4 C18         1.9710   -0.0710   -1.0290 cc        1 UW4     -0.384900
      5 C20         2.3920    1.0730   -1.7940 cd        1 UW4      0.105300
      6 N4          2.1490    2.4130   -1.4400 nh        1 UW4     -0.822200
      7 N           3.0710    0.5640   -2.9060 na        1 UW4      0.136400
      8 C1          3.7630    1.3690   -3.9630 c3        1 UW4      0.068700
      9 C3          5.0320    2.0080   -3.3820 c3        1 UW4     -0.112100
     10 C2          4.1820    0.4860   -5.1510 c3        1 UW4     -0.112100
     11 C           2.8410    2.4760   -4.4980 c3        1 UW4     -0.112100
     12 C4          2.4560   -1.2220   -1.7800 cc        1 UW4      0.495800
     13 N1          3.1010   -0.7780   -2.8970 nd        1 UW4     -0.478800
     14 C5          2.2870   -2.6330   -1.4740 ca        1 UW4     -0.204500
     15 C10         2.5980   -3.1240   -0.1790 ca        1 UW4     -0.091000
     16 C9          2.4670   -4.4550    0.1210 ca        1 UW4     -0.172300
     17 C8          2.0110   -5.3850   -0.8700 ca        1 UW4      0.463600
     18 N2          1.8800   -6.7170   -0.5410 nb        1 UW4     -0.741000
     19 C11         1.4610   -7.5430   -1.5040 ca        1 UW4      0.671600
     20 C16         1.1330   -7.1330   -2.8540 ca        1 UW4     -0.236300
     21 C17         1.2630   -5.8110   -3.1680 ca        1 UW4     -0.059000
     22 C7          1.7090   -4.8840   -2.1750 ca        1 UW4     -0.198300
     23 C6          1.8620   -3.5100   -2.4590 ca        1 UW4     -0.033000
     24 O           1.2940   -8.8890   -1.2960 os        1 UW4     -0.428100
     25 C12         1.6310   -9.4230   -0.0130 cy        1 UW4      0.124100
     26 C15         0.5630   -9.1920    1.0850 cy        1 UW4     -0.098900
     27 C14         0.2690  -10.7070    1.1100 cy        1 UW4     -0.093400
     28 C13         1.2940  -10.9380   -0.0200 cy        1 UW4     -0.098900
     29 H1         -0.1070    1.4370   -0.3170 hn        1 UW4      0.461800
     30 H2          1.0520    1.9160    0.7750 hn        1 UW4      0.461800
     31 H3          3.0000    2.8740   -1.1640 hn        1 UW4      0.401800
     32 H4          1.7200    2.9220   -2.1940 hn        1 UW4      0.401800
     33 H5          5.7580    1.2250   -3.0550 hc        1 UW4      0.062478
     34 H6          5.5100    2.6240   -4.1840 hc        1 UW4      0.062478
     35 H7          4.8030    2.6740   -2.5170 hc        1 UW4      0.062478
     36 H8          3.2920    0.0090   -5.6280 hc        1 UW4      0.062478
     37 H9          4.6920    1.1340   -5.9050 hc        1 UW4      0.062478
     38 H10         4.8970   -0.3110   -4.8330 hc        1 UW4      0.062478
     39 H11         2.9030    3.3950   -3.8690 hc        1 UW4      0.062478
     40 H12         3.1830    2.7560   -5.5270 hc        1 UW4      0.062478
     41 H13         1.7790    2.1420   -4.5740 hc        1 UW4      0.062478
     42 H14         2.9530   -2.4200    0.5890 ha        1 UW4      0.139000
     43 H15         2.7150   -4.8290    1.1280 ha        1 UW4      0.163000
     44 H16         0.7980   -7.8960   -3.5710 ha        1 UW4      0.172000
     45 H17         1.0310   -5.4400   -4.1780 ha        1 UW4      0.147000
     46 H18         1.6380   -3.1520   -3.4760 ha        1 UW4      0.144000
     47 H19         2.6750   -9.1560    0.2630 h1        1 UW4      0.078700
     48 H20         0.9790   -8.7850    2.0290 hc        1 UW4      0.065450
     49 H21        -0.2930   -8.5700    0.7480 hc        1 UW4      0.065450
     50 H22         0.5360  -11.2020    2.0680 hc        1 UW4      0.057700
     51 H23        -0.7730  -10.9700    0.8330 hc        1 UW4      0.057700
     52 H24         0.8480  -11.2890   -0.9750 hc        1 UW4      0.065450
     53 H25         2.1570  -11.5780    0.2570 hc        1 UW4      0.065450
     54 H33        -0.2160    0.9560    1.2840 hn        1 UW4      0.461800
@<TRIPOS>BOND
     1    1    2 2   
     2    2    3 1   
     3    2    4 1   
     4    3   29 1   
     5    3   30 1   
     6    3   54 1   
     7    4    5 2   
     8    4   12 1   
     9    5    6 1   
    10    5    7 1   
    11    6   31 1   
    12    6   32 1   
    13    7    8 1   
    14    7   13 1   
    15    8    9 1   
    16    8   10 1   
    17    8   11 1   
    18    9   33 1   
    19    9   34 1   
    20    9   35 1   
    21   10   36 1   
    22   10   37 1   
    23   10   38 1   
    24   11   39 1   
    25   11   40 1   
    26   11   41 1   
    27   12   13 2   
    28   12   14 1   
    29   14   15 ar  
    30   14   23 ar  
    31   15   16 ar  
    32   15   42 1   
    33   16   17 ar  
    34   16   43 1   
    35   17   18 ar  
    36   17   22 ar  
    37   18   19 ar  
    38   19   20 ar  
    39   19   24 1   
    40   20   21 ar  
    41   20   44 1   
    42   21   22 ar  
    43   21   45 1   
    44   22   23 ar  
    45   23   46 1   
    46   24   25 1   
    47   25   26 1   
    48   25   28 1   
    49   25   47 1   
    50   26   27 1   
    51   26   48 1   
    52   26   49 1   
    53   27   28 1   
    54   27   50 1   
    55   27   51 1   
    56   28   52 1   
    57   28   53 1   
@<TRIPOS>SUBSTRUCTURE
     1 UW4         1 TEMP              0 ****  ****    0 ROOT
