@<TRIPOS>MOLECULE
UW9
   63    66     1     0     0
SMALL
bcc


@<TRIPOS>ATOM
      1 CAB         0.7890   -1.3890   -0.1400 c3        1 UW9     -0.115100
      2 CBB         1.7870   -0.2500   -0.0040 c3        1 UW9     -0.076700
      3 CAC         1.2100    0.9800   -0.6780 c3        1 UW9     -0.115100
      4 CBC         2.1060    0.0090    1.4900 c3        1 UW9      0.130500
      5 NBD         3.1700    1.0640    1.7310 n4        1 UW9     -0.674400
      6 CAD         4.2560    1.0600    0.7170 c3        1 UW9      0.077100
      7 CAE         2.5780    2.4210    1.8790 c3        1 UW9      0.077100
      8 CAO         2.4880   -1.3350    2.1590 c3        1 UW9      0.019300
      9 NBE         2.7730   -1.2650    3.5900 na        1 UW9     -0.029800
     10 NAR         2.1840   -0.3680    4.4250 nc        1 UW9     -0.512100
     11 C4          3.1660   -2.4230    4.3080 ca        1 UW9      0.476800
     12 N3          3.7520   -3.5770    3.8900 nb        1 UW9     -0.635000
     13 C2          4.0250   -4.4490    4.8920 ca        1 UW9      0.711900
     14 N1          3.7840   -4.3050    6.2340 nb        1 UW9     -0.677000
     15 C6          3.2010   -3.1480    6.6280 ca        1 UW9      0.579200
     16 NAF         2.9030   -2.9540    8.0620 n4        1 UW9     -0.836300
     17 C5          2.8630   -2.1390    5.7130 ca        1 UW9     -0.437500
     18 CAW         2.2490   -0.8130    5.6960 cd        1 UW9      0.494500
     19 CAU         1.7860   -0.1170    6.8870 ca        1 UW9     -0.212900
     20 CAM         2.6900    0.3460    7.8260 ca        1 UW9     -0.108000
     21 CAH         0.3910    0.0920    7.0690 ca        1 UW9     -0.121000
     22 CAJ        -0.0670    0.7290    8.1930 ca        1 UW9     -0.093000
     23 CAX         0.8390    1.1990    9.1900 ca        1 UW9      0.017000
     24 CAL         0.3770    1.8580   10.3470 ca        1 UW9     -0.178000
     25 CAY         2.2370    1.0050    8.9940 ca        1 UW9     -0.102000
     26 CAI         3.1430    1.5020    9.9700 ca        1 UW9     -0.090000
     27 CAG         2.6900    2.1500   11.0910 ca        1 UW9     -0.163000
     28 CAT         1.2900    2.3300   11.2890 ca        1 UW9      0.185100
     29 OAS         0.7410    2.9500   12.3740 os        1 UW9     -0.309900
     30 CAN         1.6510    3.5050   13.3470 c3        1 UW9      0.126400
     31 CAA         0.7760    4.1500   14.3950 c3        1 UW9     -0.105100
     32 H1          0.3770   -1.4030   -1.1820 hc        1 UW9      0.062700
     33 H2         -0.0680   -1.2640    0.5650 hc        1 UW9      0.062700
     34 H3          1.2760   -2.3790    0.0330 hc        1 UW9      0.062700
     35 H4          2.7320   -0.5560   -0.5350 hc        1 UW9      0.073700
     36 H5          1.9820    1.7680   -0.8470 hc        1 UW9      0.062700
     37 H6          0.8070    0.7010   -1.6860 hc        1 UW9      0.062700
     38 H7          0.3680    1.4070   -0.0810 hc        1 UW9      0.062700
     39 H8          1.1590    0.4030    1.9760 hx        1 UW9      0.122700
     40 H10         5.0820    1.7400    1.0650 hx        1 UW9      0.109033
     41 H11         4.6530    0.0170    0.6000 hx        1 UW9      0.109033
     42 H12         3.8740    1.4320   -0.2710 hx        1 UW9      0.109033
     43 H13         2.0040    2.7030    0.9570 hx        1 UW9      0.109033
     44 H14         1.8870    2.4270    2.7660 hx        1 UW9      0.109033
     45 H15         3.4050    3.1640    2.0430 hx        1 UW9      0.109033
     46 H16         3.4040   -1.7740    1.6670 h1        1 UW9      0.110700
     47 H17         1.6190   -2.0430    2.0080 h1        1 UW9      0.110700
     48 H18         4.5040   -5.4160    4.5970 h5        1 UW9      0.116100
     49 H19         2.1460   -3.5930    8.3450 hn        1 UW9      0.487467
     50 H20         2.6030   -1.9720    8.2120 hn        1 UW9      0.487467
     51 H21         3.7760    0.2520    7.6620 ha        1 UW9      0.134000
     52 H22        -0.3100   -0.2540    6.2950 ha        1 UW9      0.149000
     53 H23        -1.1460    0.9000    8.3420 ha        1 UW9      0.167000
     54 H24        -0.7020    2.0100   10.5070 ha        1 UW9      0.175000
     55 H25         4.2250    1.3720    9.8070 ha        1 UW9      0.141000
     56 H26         3.4040    2.5370   11.8350 ha        1 UW9      0.164000
     57 H27         2.2690    2.6760   13.7810 h1        1 UW9      0.046700
     58 H28         2.3120    4.2570   12.8430 h1        1 UW9      0.046700
     59 H29         1.4280    4.5980   15.1820 hc        1 UW9      0.063700
     60 H30         0.1010    3.3940   14.8640 hc        1 UW9      0.063700
     61 H31         0.1450    4.9520   13.9410 hc        1 UW9      0.063700
     62 HBD1        3.6230    0.8540    2.6320 hn        1 UW9      0.451800
     63 HAF3        3.7360   -3.1580    8.6320 hn        1 UW9      0.487467
@<TRIPOS>BOND
     1    1    2 1   
     2    1   32 1   
     3    1   33 1   
     4    1   34 1   
     5    2    3 1   
     6    2    4 1   
     7    2   35 1   
     8    3   36 1   
     9    3   37 1   
    10    3   38 1   
    11    4    5 1   
    12    4    8 1   
    13    4   39 1   
    14    5    6 1   
    15    5    7 1   
    16    5   62 1   
    17    6   40 1   
    18    6   41 1   
    19    6   42 1   
    20    7   43 1   
    21    7   44 1   
    22    7   45 1   
    23    8    9 1   
    24    8   46 1   
    25    8   47 1   
    26    9   10 1   
    27    9   11 1   
    28   10   18 2   
    29   11   12 ar  
    30   11   17 ar  
    31   12   13 ar  
    32   13   14 ar  
    33   13   48 1   
    34   14   15 ar  
    35   15   16 1   
    36   15   17 ar  
    37   16   49 1   
    38   16   50 1   
    39   16   63 1   
    40   17   18 1   
    41   18   19 1   
    42   19   20 ar  
    43   19   21 ar  
    44   20   25 ar  
    45   20   51 1   
    46   21   22 ar  
    47   21   52 1   
    48   22   23 ar  
    49   22   53 1   
    50   23   24 ar  
    51   23   25 ar  
    52   24   28 ar  
    53   24   54 1   
    54   25   26 ar  
    55   26   27 ar  
    56   26   55 1   
    57   27   28 ar  
    58   27   56 1   
    59   28   29 1   
    60   29   30 1   
    61   30   31 1   
    62   30   57 1   
    63   30   58 1   
    64   31   59 1   
    65   31   60 1   
    66   31   61 1   
@<TRIPOS>SUBSTRUCTURE
     1 UW9         1 TEMP              0 ****  ****    0 ROOT
