@<TRIPOS>MOLECULE
UW9
   61    64     1     0     0
SMALL
bcc


@<TRIPOS>ATOM
      1 CAB        -6.0140    2.8960    0.8690 c3        1 UW9     -0.093100
      2 CBB        -5.7790    1.9740   -0.3110 c3        1 UW9     -0.094700
      3 CAC        -6.0510    2.7260   -1.5990 c3        1 UW9     -0.093100
      4 CBC        -4.3390    1.4040   -0.2960 c3        1 UW9      0.182500
      5 NBD        -3.9990    0.4720   -1.3610 n3        1 UW9     -0.760600
      6 CAD        -4.9940   -0.5240   -1.6640 c3        1 UW9      0.169100
      7 CAE        -3.3880    1.0680   -2.5220 c3        1 UW9      0.169100
      8 CAO        -4.1060    0.7530    1.1000 c3        1 UW9      0.057300
      9 NBE        -2.8380    0.0650    1.2640 na        1 UW9      0.021200
     10 NAR        -1.6480    0.6840    1.0970 nc        1 UW9     -0.505100
     11 C4         -2.6830   -1.3390    1.1830 ca        1 UW9      0.483800
     12 N3         -3.6110   -2.3400    1.2830 nb        1 UW9     -0.741000
     13 C2         -3.0560   -3.5720    1.2540 ca        1 UW9      0.691900
     14 N1         -1.7510   -3.9430    1.1520 nb        1 UW9     -0.799000
     15 C6         -0.8180   -2.9370    1.0440 ca        1 UW9      0.752200
     16 NAF         0.5160   -3.2420    0.8870 nh        1 UW9     -0.954500
     17 C5         -1.2550   -1.5780    1.0520 ca        1 UW9     -0.494500
     18 CAW        -0.6700   -0.2490    0.9990 cd        1 UW9      0.426500
     19 CAU         0.7460    0.0690    0.8700 ca        1 UW9     -0.110900
     20 CAM         1.4820   -0.4020   -0.1970 ca        1 UW9     -0.099000
     21 CAH         1.3660    0.8900    1.8550 ca        1 UW9     -0.096000
     22 CAJ         2.6980    1.1990    1.7610 ca        1 UW9     -0.131000
     23 CAX         3.4840    0.7140    0.6780 ca        1 UW9      0.001000
     24 CAL         4.8610    1.0230    0.5670 ca        1 UW9     -0.164000
     25 CAY         2.8640   -0.0930   -0.3120 ca        1 UW9     -0.076000
     26 CAI         3.6420   -0.5690   -1.4010 ca        1 UW9     -0.082000
     27 CAG         4.9770   -0.2660   -1.5040 ca        1 UW9     -0.186000
     28 CAT         5.5920    0.5390   -0.5080 ca        1 UW9      0.132100
     29 OAS         6.9270    0.8910   -0.5180 os        1 UW9     -0.330900
     30 CAN         7.6900    0.4530   -1.6490 c3        1 UW9      0.129400
     31 CAA         9.0850    0.9990   -1.4450 c3        1 UW9     -0.100100
     32 H1         -6.9610    3.4720    0.7260 hc        1 UW9      0.036867
     33 H2         -6.1110    2.3140    1.8170 hc        1 UW9      0.036867
     34 H3         -5.1740    3.6240    0.9780 hc        1 UW9      0.036867
     35 H4         -6.5040    1.1150   -0.2390 hc        1 UW9      0.053700
     36 H5         -5.2460    3.4740   -1.7960 hc        1 UW9      0.036867
     37 H6         -6.1080    2.0260   -2.4670 hc        1 UW9      0.036867
     38 H7         -7.0270    3.2680   -1.5310 hc        1 UW9      0.036867
     39 H8         -3.6310    2.2840   -0.3730 h1        1 UW9      0.069700
     40 H10        -5.8810   -0.1160   -2.2240 h1        1 UW9      0.032033
     41 H11        -4.5190   -1.3220   -2.2950 h1        1 UW9      0.032033
     42 H12        -5.3560   -0.9890   -0.7100 h1        1 UW9      0.032033
     43 H13        -2.5120    1.6900   -2.2010 h1        1 UW9      0.032033
     44 H14        -3.0180    0.2460   -3.1900 h1        1 UW9      0.032033
     45 H15        -4.0880    1.7180   -3.1170 h1        1 UW9      0.032033
     46 H16        -4.1290    1.5770    1.8700 h1        1 UW9      0.074700
     47 H17        -4.9240    0.0130    1.3200 h1        1 UW9      0.074700
     48 H18        -3.7720   -4.4190    1.3290 h5        1 UW9      0.049100
     49 H19         0.8220   -4.1730    1.0400 hn        1 UW9      0.437300
     50 H20         1.1690   -2.5060    1.0200 hn        1 UW9      0.437300
     51 H21         1.0080   -1.0140   -0.9800 ha        1 UW9      0.146000
     52 H22         0.7550    1.2730    2.6860 ha        1 UW9      0.147000
     53 H23         3.1830    1.8320    2.5200 ha        1 UW9      0.138000
     54 H24         5.3470    1.6470    1.3310 ha        1 UW9      0.152000
     55 H25         3.1520   -1.1900   -2.1670 ha        1 UW9      0.137000
     56 H26         5.5640   -0.6430   -2.3530 ha        1 UW9      0.139000
     57 H27         7.6950   -0.6690   -1.6820 h1        1 UW9      0.037700
     58 H28         7.2310    0.8560   -2.5900 h1        1 UW9      0.037700
     59 H29         9.7290    0.6820   -2.2990 hc        1 UW9      0.049700
     60 H30         9.0640    2.1140   -1.3930 hc        1 UW9      0.049700
     61 H31         9.5200    0.6120   -0.4920 hc        1 UW9      0.049700
@<TRIPOS>BOND
     1    1    2 1   
     2    1   32 1   
     3    1   33 1   
     4    1   34 1   
     5    2    3 1   
     6    2    4 1   
     7    2   35 1   
     8    3   36 1   
     9    3   37 1   
    10    3   38 1   
    11    4    5 1   
    12    4    8 1   
    13    4   39 1   
    14    5    6 1   
    15    5    7 1   
    16    6   40 1   
    17    6   41 1   
    18    6   42 1   
    19    7   43 1   
    20    7   44 1   
    21    7   45 1   
    22    8    9 1   
    23    8   46 1   
    24    8   47 1   
    25    9   10 1   
    26    9   11 1   
    27   10   18 2   
    28   11   12 ar  
    29   11   17 ar  
    30   12   13 ar  
    31   13   14 ar  
    32   13   48 1   
    33   14   15 ar  
    34   15   16 1   
    35   15   17 ar  
    36   16   49 1   
    37   16   50 1   
    38   17   18 1   
    39   18   19 1   
    40   19   20 ar  
    41   19   21 ar  
    42   20   25 ar  
    43   20   51 1   
    44   21   22 ar  
    45   21   52 1   
    46   22   23 ar  
    47   22   53 1   
    48   23   24 ar  
    49   23   25 ar  
    50   24   28 ar  
    51   24   54 1   
    52   25   26 ar  
    53   26   27 ar  
    54   26   55 1   
    55   27   28 ar  
    56   27   56 1   
    57   28   29 1   
    58   29   30 1   
    59   30   31 1   
    60   30   57 1   
    61   30   58 1   
    62   31   59 1   
    63   31   60 1   
    64   31   61 1   
@<TRIPOS>SUBSTRUCTURE
     1 UW9         1 TEMP              0 ****  ****    0 ROOT
