@<TRIPOS>MOLECULE
UW9
   62    65     1     0     0
SMALL
bcc


@<TRIPOS>ATOM
      1 CAB        -0.0990   -0.1840    0.0650 c3        1 UW9     -0.109600
      2 CBB         1.4130   -0.1750   -0.1030 c3        1 UW9     -0.077700
      3 CAC         1.7750    0.8070   -1.2000 c3        1 UW9     -0.109600
      4 CBC         2.0880    0.1710    1.2420 c3        1 UW9      0.119500
      5 NBD         3.6050    0.1450    1.2140 nx        1 UW9     -0.672400
      6 CAD         4.1640   -0.9670    0.4070 c3        1 UW9      0.083100
      7 CAE         4.1850    1.4510    0.8080 c3        1 UW9      0.083100
      8 CAO         1.5410   -0.7920    2.3390 c3        1 UW9      0.029300
      9 NBE         2.1310   -0.5690    3.6430 na        1 UW9     -0.058800
     10 NAR         1.4150   -0.0130    4.6680 nc        1 UW9     -0.522100
     11 C4          3.1260   -1.4500    4.1660 ca        1 UW9      0.459800
     12 N3          4.0450   -2.2020    3.5020 nb        1 UW9     -0.820000
     13 C2          4.8670   -2.8870    4.3510 ca        1 UW9      0.719900
     14 N1          4.8910   -2.9060    5.6970 nb        1 UW9     -0.773000
     15 C6          3.9680   -2.1170    6.3730 ca        1 UW9      0.783200
     16 NAF         3.9610   -2.0780    7.7330 nv        1 UW9     -0.934500
     17 C5          3.0470   -1.3380    5.6050 ca        1 UW9     -0.508500
     18 CAW         1.9470   -0.4060    5.8430 cd        1 UW9      0.497500
     19 CAU         1.4810    0.0430    7.1500 ca        1 UW9     -0.154900
     20 CAM         2.3340    0.6910    8.0200 ca        1 UW9     -0.089000
     21 CAH         0.1240   -0.1820    7.5130 ca        1 UW9     -0.101000
     22 CAJ        -0.3390    0.2230    8.7380 ca        1 UW9     -0.113000
     23 CAX         0.5230    0.8830    9.6620 ca        1 UW9      0.011000
     24 CAL         0.0580    1.3080   10.9270 ca        1 UW9     -0.169000
     25 CAY         1.8740    1.1210    9.2910 ca        1 UW9     -0.084000
     26 CAI         2.7320    1.7920   10.2040 ca        1 UW9     -0.085000
     27 CAG         2.2750    2.2040   11.4310 ca        1 UW9     -0.177000
     28 CAT         0.9230    1.9580   11.7980 ca        1 UW9      0.153100
     29 OAS         0.3740    2.3260   13.0040 os        1 UW9     -0.322900
     30 CAN         1.2370    3.0230   13.9180 c3        1 UW9      0.127400
     31 CAA         0.3910    3.3200   15.1340 c3        1 UW9     -0.102100
     32 H1         -0.4480    0.7220    0.6170 hc        1 UW9      0.056367
     33 H2         -0.5900   -0.1900   -0.9400 hc        1 UW9      0.056367
     34 H3         -0.4380   -1.1000    0.6060 hc        1 UW9      0.056367
     35 H4          1.7310   -1.2100   -0.4170 hc        1 UW9      0.068700
     36 H5          1.0830    0.6750   -2.0700 hc        1 UW9      0.056367
     37 H6          2.8110    0.6400   -1.5810 hc        1 UW9      0.056367
     38 H7          1.6770    1.8610   -0.8420 hc        1 UW9      0.056367
     39 H8          1.8010    1.2300    1.5220 hx        1 UW9      0.110700
     40 H10         3.9730   -0.7910   -0.6840 hx        1 UW9      0.101867
     41 H11         5.2710   -1.0260    0.5870 hx        1 UW9      0.101867
     42 H12         3.6890   -1.9330    0.7300 hx        1 UW9      0.101867
     43 H13         3.8960    1.7030   -0.2450 hx        1 UW9      0.101867
     44 H14         5.3040    1.3880    0.8800 hx        1 UW9      0.101867
     45 H15         3.8110    2.2540    1.4990 hx        1 UW9      0.101867
     46 H16         1.7150   -1.8570    2.0150 h1        1 UW9      0.103200
     47 H17         0.4270   -0.6070    2.3980 h1        1 UW9      0.103200
     48 H18         5.6270   -3.5350    3.8570 h5        1 UW9      0.064100
     49 H19         3.2470   -1.5650    8.1960 hn        1 UW9      0.462800
     50 H20         4.5730   -2.6530    8.2620 hn        1 UW9      0.462800
     51 H21         3.3780    0.8990    7.7380 ha        1 UW9      0.137000
     52 H22        -0.5450   -0.6830    6.7970 ha        1 UW9      0.145000
     53 H23        -1.3870    0.0510    9.0290 ha        1 UW9      0.149000
     54 H24        -0.9860    1.1250   11.2210 ha        1 UW9      0.161000
     55 H25         3.7760    1.9800    9.9080 ha        1 UW9      0.137000
     56 H26         2.9520    2.7220   12.1270 ha        1 UW9      0.148000
     57 H27         1.6030    3.9670   13.4350 h1        1 UW9      0.041200
     58 H28         2.1080    2.3660   14.1780 h1        1 UW9      0.041200
     59 H29         1.0130    3.8630   15.8850 hc        1 UW9      0.055033
     60 H30        -0.4850    3.9540   14.8560 hc        1 UW9      0.055033
     61 H31         0.0100    2.3740   15.5870 hc        1 UW9      0.055033
     62 HBD1        3.9210   -0.0090    2.1860 hn        1 UW9      0.467800
@<TRIPOS>BOND
     1    1    2 1   
     2    1   32 1   
     3    1   33 1   
     4    1   34 1   
     5    2    3 1   
     6    2    4 1   
     7    2   35 1   
     8    3   36 1   
     9    3   37 1   
    10    3   38 1   
    11    4    5 1   
    12    4    8 1   
    13    4   39 1   
    14    5    6 1   
    15    5    7 1   
    16    5   62 1   
    17    6   40 1   
    18    6   41 1   
    19    6   42 1   
    20    7   43 1   
    21    7   44 1   
    22    7   45 1   
    23    8    9 1   
    24    8   46 1   
    25    8   47 1   
    26    9   10 1   
    27    9   11 1   
    28   10   18 2   
    29   11   12 ar  
    30   11   17 ar  
    31   12   13 ar  
    32   13   14 ar  
    33   13   48 1   
    34   14   15 ar  
    35   15   16 1   
    36   15   17 ar  
    37   16   49 1   
    38   16   50 1   
    39   17   18 1   
    40   18   19 1   
    41   19   20 ar  
    42   19   21 ar  
    43   20   25 ar  
    44   20   51 1   
    45   21   22 ar  
    46   21   52 1   
    47   22   23 ar  
    48   22   53 1   
    49   23   24 ar  
    50   23   25 ar  
    51   24   28 ar  
    52   24   54 1   
    53   25   26 ar  
    54   26   27 ar  
    55   26   55 1   
    56   27   28 ar  
    57   27   56 1   
    58   28   29 1   
    59   29   30 1   
    60   30   31 1   
    61   30   57 1   
    62   30   58 1   
    63   31   59 1   
    64   31   60 1   
    65   31   61 1   
@<TRIPOS>SUBSTRUCTURE
     1 UW9         1 TEMP              0 ****  ****    0 ROOT
