@<TRIPOS>MOLECULE
UW9
   62    65     1     0     0
SMALL
bcc


@<TRIPOS>ATOM
      1 CAB        -0.1040   -0.2060    0.0680 c3        1 UW9     -0.109600
      2 CBB         1.4080   -0.1890   -0.1020 c3        1 UW9     -0.077700
      3 CAC         1.7630    0.7930   -1.2020 c3        1 UW9     -0.109600
      4 CBC         2.0830    0.1640    1.2400 c3        1 UW9      0.119500
      5 NBD         3.6000    0.1470    1.2110 n4        1 UW9     -0.672400
      6 CAD         4.1640   -0.9640    0.4050 c3        1 UW9      0.083100
      7 CAE         4.1710    1.4550    0.8010 c3        1 UW9      0.083100
      8 CAO         1.5420   -0.7990    2.3410 c3        1 UW9      0.029300
      9 NBE         2.1340   -0.5700    3.6440 na        1 UW9     -0.058800
     10 NAR         1.4160   -0.0160    4.6690 nc        1 UW9     -0.522100
     11 C4          3.1340   -1.4450    4.1670 ca        1 UW9      0.459800
     12 N3          4.0570   -2.1920    3.5020 nb        1 UW9     -0.820000
     13 C2          4.8840   -2.8710    4.3520 ca        1 UW9      0.719900
     14 N1          4.9100   -2.8880    5.6980 nb        1 UW9     -0.773000
     15 C6          3.9830   -2.1020    6.3730 ca        1 UW9      0.783200
     16 NAF         3.9780   -2.0610    7.7330 nh        1 UW9     -0.934500
     17 C5          3.0570   -1.3300    5.6050 ca        1 UW9     -0.508500
     18 CAW         1.9520   -0.4050    5.8440 cd        1 UW9      0.497500
     19 CAU         1.4840    0.0440    7.1500 ca        1 UW9     -0.154900
     20 CAM         2.3340    0.6990    8.0180 ca        1 UW9     -0.089000
     21 CAH         0.1290   -0.1890    7.5160 ca        1 UW9     -0.101000
     22 CAJ        -0.3340    0.2160    8.7410 ca        1 UW9     -0.113000
     23 CAX         0.5240    0.8830    9.6620 ca        1 UW9      0.011000
     24 CAL         0.0590    1.3060   10.9280 ca        1 UW9     -0.169000
     25 CAY         1.8730    1.1280    9.2890 ca        1 UW9     -0.084000
     26 CAI         2.7280    1.8050   10.2000 ca        1 UW9     -0.085000
     27 CAG         2.2720    2.2160   11.4270 ca        1 UW9     -0.177000
     28 CAT         0.9220    1.9630   11.7960 ca        1 UW9      0.153100
     29 OAS         0.3720    2.3290   13.0020 os        1 UW9     -0.322900
     30 CAN         1.2310    3.0330   13.9130 c3        1 UW9      0.127400
     31 CAA         0.3850    3.3280   15.1300 c3        1 UW9     -0.102100
     32 H1         -0.5960   -0.2170   -0.9370 hc        1 UW9      0.056367
     33 H2         -0.4570    0.6990    0.6190 hc        1 UW9      0.056367
     34 H3         -0.4370   -1.1230    0.6110 hc        1 UW9      0.056367
     35 H4          1.7320   -1.2220   -0.4140 hc        1 UW9      0.068700
     36 H5          2.7990    0.6310   -1.5840 hc        1 UW9      0.056367
     37 H6          1.0710    0.6550   -2.0710 hc        1 UW9      0.056367
     38 H7          1.6590    1.8470   -0.8460 hc        1 UW9      0.056367
     39 H8          1.7900    1.2220    1.5180 hx        1 UW9      0.110700
     40 H10         5.2720   -1.0160    0.5840 hx        1 UW9      0.101867
     41 H11         3.6950   -1.9310    0.7310 hx        1 UW9      0.101867
     42 H12         3.9700   -0.7910   -0.6850 hx        1 UW9      0.101867
     43 H13         3.7940    2.2580    1.4910 hx        1 UW9      0.101867
     44 H14         5.2910    1.3990    0.8710 hx        1 UW9      0.101867
     45 H15         3.8800    1.7030   -0.2520 hx        1 UW9      0.101867
     46 H16         1.7220   -1.8640    2.0190 h1        1 UW9      0.103200
     47 H17         0.4280   -0.6210    2.4010 h1        1 UW9      0.103200
     48 H18         5.6470   -3.5150    3.8580 h5        1 UW9      0.064100
     49 H19         3.2610   -1.5520    8.1970 hn        1 UW9      0.462800
     50 H20         4.5940   -2.6320    8.2630 hn        1 UW9      0.462800
     51 H21         3.3770    0.9130    7.7340 ha        1 UW9      0.137000
     52 H22        -0.5370   -0.6950    6.8010 ha        1 UW9      0.145000
     53 H23        -1.3810    0.0370    9.0340 ha        1 UW9      0.149000
     54 H24        -0.9840    1.1180   11.2230 ha        1 UW9      0.161000
     55 H25         3.7710    2.0000    9.9020 ha        1 UW9      0.137000
     56 H26         2.9450    2.7400   12.1200 ha        1 UW9      0.148000
     57 H27         2.1070    2.3820   14.1740 h1        1 UW9      0.041200
     58 H28         1.5910    3.9790   13.4290 h1        1 UW9      0.041200
     59 H29         0.0120    2.3790   15.5860 hc        1 UW9      0.055033
     60 H30        -0.4960    3.9540   14.8520 hc        1 UW9      0.055033
     61 H31         1.0050    3.8760   15.8790 hc        1 UW9      0.055033
     62 HBD1        3.9180   -0.0030    2.1830 hn        1 UW9      0.467800
@<TRIPOS>BOND
     1    1    2 1   
     2    1   32 1   
     3    1   33 1   
     4    1   34 1   
     5    2    3 1   
     6    2    4 1   
     7    2   35 1   
     8    3   36 1   
     9    3   37 1   
    10    3   38 1   
    11    4    5 1   
    12    4    8 1   
    13    4   39 1   
    14    5    6 1   
    15    5    7 1   
    16    5   62 1   
    17    6   40 1   
    18    6   41 1   
    19    6   42 1   
    20    7   43 1   
    21    7   44 1   
    22    7   45 1   
    23    8    9 1   
    24    8   46 1   
    25    8   47 1   
    26    9   10 1   
    27    9   11 1   
    28   10   18 2   
    29   11   12 ar  
    30   11   17 ar  
    31   12   13 ar  
    32   13   14 ar  
    33   13   48 1   
    34   14   15 ar  
    35   15   16 1   
    36   15   17 ar  
    37   16   49 1   
    38   16   50 1   
    39   17   18 1   
    40   18   19 1   
    41   19   20 ar  
    42   19   21 ar  
    43   20   25 ar  
    44   20   51 1   
    45   21   22 ar  
    46   21   52 1   
    47   22   23 ar  
    48   22   53 1   
    49   23   24 ar  
    50   23   25 ar  
    51   24   28 ar  
    52   24   54 1   
    53   25   26 ar  
    54   26   27 ar  
    55   26   55 1   
    56   27   28 ar  
    57   27   56 1   
    58   28   29 1   
    59   29   30 1   
    60   30   31 1   
    61   30   57 1   
    62   30   58 1   
    63   31   59 1   
    64   31   60 1   
    65   31   61 1   
@<TRIPOS>SUBSTRUCTURE
     1 UW9         1 TEMP              0 ****  ****    0 ROOT
