@<TRIPOS>MOLECULE
UWA
   50    53     1     0     0
SMALL
bcc


@<TRIPOS>ATOM
      1 CAL         0.0360   -0.0790    0.2080 c3        1 UWA     -0.092100
      2 CAK         1.5350   -0.1790    0.0400 c3        1 UWA     -0.088700
      3 CAM         2.2150   -0.2900    1.3890 c3        1 UWA     -0.092100
      4 CAJ         1.9280   -1.4030   -0.8020 c3        1 UWA      0.064300
      5 NAG         1.6040   -1.3080   -2.2140 na        1 UWA      0.002200
      6 NAH         0.4550   -1.7520   -2.7610 nc        1 UWA     -0.500100
      7 C4          2.3640   -0.5820   -3.1540 ca        1 UWA      0.470800
      8 N3          3.5700    0.0520   -3.0170 nb        1 UWA     -0.741000
      9 C2          3.9870    0.6290   -4.1660 ca        1 UWA      0.694900
     10 N1          3.3960    0.6710   -5.3910 nb        1 UWA     -0.802000
     11 C6          2.1890    0.0230   -5.5310 ca        1 UWA      0.762200
     12 NAN         1.5610   -0.0120   -6.7510 nh        1 UWA     -0.960500
     13 C5          1.6180   -0.6390   -4.4010 ca        1 UWA     -0.496500
     14 CAI         0.4260   -1.3980   -4.0720 cd        1 UWA      0.418500
     15 CAO        -0.6610   -1.7460   -4.9800 ca        1 UWA     -0.088900
     16 CAT        -0.4160   -2.4560   -6.1360 ca        1 UWA     -0.121000
     17 CAS        -1.4800   -2.7830   -7.0230 ca        1 UWA     -0.010000
     18 CAX        -1.2420   -3.5070   -8.2160 ca        1 UWA     -0.161000
     19 CAW        -2.3010   -3.8090   -9.0600 ca        1 UWA      0.129100
     20 OAY        -1.9610   -4.5050  -10.2030 os        1 UWA     -0.330900
     21 CAZ        -3.0500   -4.9190  -11.0390 c3        1 UWA      0.129400
     22 CBA        -2.4290   -5.7190  -12.1620 c3        1 UWA     -0.100100
     23 CAV        -3.6250   -3.4040   -8.7420 ca        1 UWA     -0.181000
     24 CAU        -3.8600   -2.7040   -7.5850 ca        1 UWA     -0.086000
     25 CAR        -2.8000   -2.3770   -6.6990 ca        1 UWA     -0.064000
     26 CAQ        -3.0280   -1.6580   -5.4930 ca        1 UWA     -0.109000
     27 CAP        -1.9880   -1.3510   -4.6520 ca        1 UWA     -0.116000
     28 H1         -0.3710   -1.0070    0.6770 hc        1 UWA      0.038700
     29 H2         -0.4660    0.0690   -0.7780 hc        1 UWA      0.038700
     30 H3         -0.2180    0.7890    0.8650 hc        1 UWA      0.038700
     31 H4          1.9090    0.7530   -0.4720 hc        1 UWA      0.067700
     32 H5          3.3250   -0.3090    1.2700 hc        1 UWA      0.038700
     33 H6          1.9420    0.5860    2.0260 hc        1 UWA      0.038700
     34 H7          1.8970   -1.2220    1.9160 hc        1 UWA      0.038700
     35 H8          3.0460   -1.5430   -0.7410 h1        1 UWA      0.075200
     36 H9          1.4220   -2.3170   -0.3790 h1        1 UWA      0.075200
     37 H10         4.9620    1.1610   -4.1060 h5        1 UWA      0.051100
     38 H11         1.9070    0.5300   -7.5050 hn        1 UWA      0.444300
     39 H12         0.6310   -0.3540   -6.7890 hn        1 UWA      0.444300
     40 H13         0.6020   -2.7940   -6.3860 ha        1 UWA      0.148000
     41 H14        -0.2220   -3.8290   -8.4700 ha        1 UWA      0.153000
     42 H15        -3.7650   -5.5450  -10.4430 h1        1 UWA      0.037700
     43 H16        -3.5790   -4.0120  -11.4340 h1        1 UWA      0.037700
     44 H17        -3.2330   -6.0620  -12.8540 hc        1 UWA      0.050033
     45 H18        -1.6980   -5.0940  -12.7280 hc        1 UWA      0.050033
     46 H19        -1.8900   -6.6080  -11.7550 hc        1 UWA      0.050033
     47 H20        -4.4570   -3.6490   -9.4180 ha        1 UWA      0.139000
     48 H21        -4.8820   -2.3860   -7.3250 ha        1 UWA      0.136000
     49 H22        -4.0570   -1.3570   -5.2450 ha        1 UWA      0.135000
     50 H23        -2.1630   -0.8040   -3.7140 ha        1 UWA      0.146000
@<TRIPOS>BOND
     1    1    2 1   
     2    1   28 1   
     3    1   29 1   
     4    1   30 1   
     5    2    3 1   
     6    2    4 1   
     7    2   31 1   
     8    3   32 1   
     9    3   33 1   
    10    3   34 1   
    11    4    5 1   
    12    4   35 1   
    13    4   36 1   
    14    5    6 1   
    15    5    7 1   
    16    6   14 2   
    17    7    8 ar  
    18    7   13 ar  
    19    8    9 ar  
    20    9   10 ar  
    21    9   37 1   
    22   10   11 ar  
    23   11   12 1   
    24   11   13 ar  
    25   12   38 1   
    26   12   39 1   
    27   13   14 1   
    28   14   15 1   
    29   15   16 ar  
    30   15   27 ar  
    31   16   17 ar  
    32   16   40 1   
    33   17   18 ar  
    34   17   25 ar  
    35   18   19 ar  
    36   18   41 1   
    37   19   20 1   
    38   19   23 ar  
    39   20   21 1   
    40   21   22 1   
    41   21   42 1   
    42   21   43 1   
    43   22   44 1   
    44   22   45 1   
    45   22   46 1   
    46   23   24 ar  
    47   23   47 1   
    48   24   25 ar  
    49   24   48 1   
    50   25   26 ar  
    51   26   27 ar  
    52   26   49 1   
    53   27   50 1   
@<TRIPOS>SUBSTRUCTURE
     1 UWA         1 TEMP              0 ****  ****    0 ROOT
