@<TRIPOS>MOLECULE
UWA
   50    53     1     0     0
SMALL
bcc


@<TRIPOS>ATOM
      1 CAL         0.0410   -0.0770    0.2070 c3        1 UWA     -0.092100
      2 CAK         1.5390   -0.1830    0.0390 c3        1 UWA     -0.088700
      3 CAM         2.2190   -0.2970    1.3890 c3        1 UWA     -0.092100
      4 CAJ         1.9280   -1.4080   -0.8030 c3        1 UWA      0.064300
      5 NAG         1.6050   -1.3120   -2.2150 na        1 UWA      0.002200
      6 NAH         0.4540   -1.7510   -2.7630 nc        1 UWA     -0.500100
      7 C4          2.3680   -0.5890   -3.1550 ca        1 UWA      0.470800
      8 N3          3.5760    0.0410   -3.0170 nb        1 UWA     -0.741000
      9 C2          3.9960    0.6170   -4.1670 ca        1 UWA      0.694900
     10 N1          3.4060    0.6600   -5.3910 nb        1 UWA     -0.802000
     11 C6          2.1960    0.0170   -5.5320 ca        1 UWA      0.762200
     12 NAN         1.5690   -0.0160   -6.7530 nh        1 UWA     -0.960500
     13 C5          1.6230   -0.6430   -4.4020 ca        1 UWA     -0.496500
     14 CAI         0.4270   -1.3970   -4.0740 cd        1 UWA      0.418500
     15 CAO        -0.6600   -1.7410   -4.9820 ca        1 UWA     -0.088900
     16 CAT        -0.4170   -2.4520   -6.1380 ca        1 UWA     -0.121000
     17 CAS        -1.4820   -2.7750   -7.0250 ca        1 UWA     -0.010000
     18 CAX        -1.2470   -3.5000   -8.2180 ca        1 UWA     -0.161000
     19 CAW        -2.3060   -3.7990   -9.0620 ca        1 UWA      0.129100
     20 OAY        -1.9690   -4.4960  -10.2050 os        1 UWA     -0.330900
     21 CAZ        -3.0580   -4.9070  -11.0420 c3        1 UWA      0.129400
     22 CBA        -2.4400   -5.7100  -12.1630 c3        1 UWA     -0.100100
     23 CAV        -3.6290   -3.3890   -8.7450 ca        1 UWA     -0.181000
     24 CAU        -3.8620   -2.6870   -7.5880 ca        1 UWA     -0.086000
     25 CAR        -2.8010   -2.3640   -6.7010 ca        1 UWA     -0.064000
     26 CAQ        -3.0260   -1.6440   -5.4960 ca        1 UWA     -0.109000
     27 CAP        -1.9860   -1.3410   -4.6550 ca        1 UWA     -0.116000
     28 H1         -0.3700   -1.0050    0.6750 hc        1 UWA      0.038700
     29 H2         -0.2110    0.7910    0.8640 hc        1 UWA      0.038700
     30 H3         -0.4610    0.0720   -0.7790 hc        1 UWA      0.038700
     31 H4          1.9160    0.7480   -0.4720 hc        1 UWA      0.067700
     32 H5          1.8970   -1.2280    1.9150 hc        1 UWA      0.038700
     33 H6          3.3290   -0.3190    1.2700 hc        1 UWA      0.038700
     34 H7          1.9490    0.5800    2.0250 hc        1 UWA      0.038700
     35 H8          1.4190   -2.3210   -0.3810 h1        1 UWA      0.075200
     36 H9          3.0460   -1.5520   -0.7410 h1        1 UWA      0.075200
     37 H10         4.9730    1.1450   -4.1060 h5        1 UWA      0.051100
     38 H11         0.6370   -0.3540   -6.7910 hn        1 UWA      0.444300
     39 H12         1.9170    0.5250   -7.5060 hn        1 UWA      0.444300
     40 H13         0.6000   -2.7940   -6.3870 ha        1 UWA      0.148000
     41 H14        -0.2280   -3.8260   -8.4710 ha        1 UWA      0.153000
     42 H15        -3.5850   -3.9980  -11.4370 h1        1 UWA      0.037700
     43 H16        -3.7760   -5.5290  -10.4450 h1        1 UWA      0.037700
     44 H17        -1.9030   -6.6000  -11.7560 hc        1 UWA      0.050033
     45 H18        -1.7070   -5.0870  -12.7300 hc        1 UWA      0.050033
     46 H19        -3.2460   -6.0510  -12.8550 hc        1 UWA      0.050033
     47 H20        -4.4610   -3.6300   -9.4220 ha        1 UWA      0.139000
     48 H21        -4.8830   -2.3650   -7.3290 ha        1 UWA      0.136000
     49 H22        -4.0550   -1.3390   -5.2490 ha        1 UWA      0.135000
     50 H23        -2.1590   -0.7930   -3.7160 ha        1 UWA      0.146000
@<TRIPOS>BOND
     1    1    2 1   
     2    1   28 1   
     3    1   29 1   
     4    1   30 1   
     5    2    3 1   
     6    2    4 1   
     7    2   31 1   
     8    3   32 1   
     9    3   33 1   
    10    3   34 1   
    11    4    5 1   
    12    4   35 1   
    13    4   36 1   
    14    5    6 1   
    15    5    7 1   
    16    6   14 2   
    17    7    8 ar  
    18    7   13 ar  
    19    8    9 ar  
    20    9   10 ar  
    21    9   37 1   
    22   10   11 ar  
    23   11   12 1   
    24   11   13 ar  
    25   12   38 1   
    26   12   39 1   
    27   13   14 1   
    28   14   15 1   
    29   15   16 ar  
    30   15   27 ar  
    31   16   17 ar  
    32   16   40 1   
    33   17   18 ar  
    34   17   25 ar  
    35   18   19 ar  
    36   18   41 1   
    37   19   20 1   
    38   19   23 ar  
    39   20   21 1   
    40   21   22 1   
    41   21   42 1   
    42   21   43 1   
    43   22   44 1   
    44   22   45 1   
    45   22   46 1   
    46   23   24 ar  
    47   23   47 1   
    48   24   25 ar  
    49   24   48 1   
    50   25   26 ar  
    51   26   27 ar  
    52   26   49 1   
    53   27   50 1   
@<TRIPOS>SUBSTRUCTURE
     1 UWA         1 TEMP              0 ****  ****    0 ROOT
