@<TRIPOS>MOLECULE
UWB
   56    60     1     0     0
SMALL
bcc


@<TRIPOS>ATOM
      1 N5          0.1080    0.2710   -0.2350 nh        1 UWB     -0.958500
      2 C           1.4760    0.2460   -0.1170 ca        1 UWB      0.761200
      3 C3          2.0930    0.1640    1.1700 ca        1 UWB     -0.497500
      4 C4          1.6970    0.1410    2.5660 cc        1 UWB      0.420500
      5 N2          2.8020    0.0930    3.3540 nd        1 UWB     -0.502100
      6 N3          3.9000    0.1130    2.5720 na        1 UWB      0.002200
      7 C5          5.2520   -0.1000    3.0590 c3        1 UWB      0.064300
      8 C6          5.7130   -1.5630    3.0810 c3        1 UWB     -0.087700
      9 C10         7.2230   -1.5900    3.2730 c3        1 UWB     -0.075400
     10 C9          7.7300   -3.0270    3.3750 c3        1 UWB      0.163800
     11 N4          7.0440   -3.8030    4.3890 n3        1 UWB     -0.820200
     12 C8          5.5990   -3.7660    4.2760 c3        1 UWB      0.163800
     13 C7          5.0360   -2.3470    4.1920 c3        1 UWB     -0.075400
     14 C2          3.5460    0.1180    1.2060 ca        1 UWB      0.469800
     15 N1          4.3350    0.1280    0.0870 nb        1 UWB     -0.741000
     16 C1          3.6160    0.2000   -1.0560 ca        1 UWB      0.694900
     17 N           2.2700    0.2670   -1.2420 nb        1 UWB     -0.800000
     18 C11         0.3350    0.1750    3.0840 ca        1 UWB     -0.089900
     19 C16        -0.5880   -0.7760    2.7060 ca        1 UWB     -0.122000
     20 C15        -1.9190   -0.7330    3.2090 ca        1 UWB     -0.010000
     21 C17        -2.8790   -1.7010    2.8260 ca        1 UWB     -0.162000
     22 C18        -4.1670   -1.6300    3.3330 ca        1 UWB      0.129100
     23 O          -5.0290   -2.6120    2.8870 os        1 UWB     -0.330900
     24 C21        -6.3390   -2.6180    3.4710 c3        1 UWB      0.129400
     25 C22        -7.0490   -3.8150    2.8810 c3        1 UWB     -0.100100
     26 C19        -4.5400   -0.5990    4.2370 ca        1 UWB     -0.181000
     27 C20        -3.6110    0.3400    4.6140 ca        1 UWB     -0.085000
     28 C14        -2.2830    0.2990    4.1130 ca        1 UWB     -0.064000
     29 C13        -1.3080    1.2590    4.4980 ca        1 UWB     -0.109000
     30 C12        -0.0310    1.2010    4.0010 ca        1 UWB     -0.115000
     31 H1         -0.4280    0.4120    0.5860 hn        1 UWB      0.443800
     32 H2         -0.3100    0.4410   -1.1170 hn        1 UWB      0.443800
     33 H3          5.3250    0.3260    4.1010 h1        1 UWB      0.076200
     34 H4          5.9310    0.4870    2.3760 h1        1 UWB      0.076200
     35 H5          5.4710   -2.0460    2.0920 hc        1 UWB      0.065700
     36 H6          7.4960   -1.0240    4.2010 hc        1 UWB      0.052950
     37 H7          7.7300   -1.0950    2.4050 hc        1 UWB      0.052950
     38 H8          8.8220   -3.0090    3.6510 h1        1 UWB      0.028450
     39 H9          7.6460   -3.5010    2.3510 h1        1 UWB      0.028450
     40 H10         7.3630   -4.7540    4.3640 hn        1 UWB      0.361800
     41 H12         5.2310   -4.3430    3.3760 h1        1 UWB      0.028450
     42 H13         5.1810   -4.2680    5.1940 h1        1 UWB      0.028450
     43 H14         3.9340   -2.4160    4.0050 hc        1 UWB      0.052950
     44 H15         5.1860   -1.8210    5.1700 hc        1 UWB      0.052950
     45 H16         4.2130    0.2110   -1.9940 h5        1 UWB      0.051100
     46 H17        -0.3090   -1.5930    2.0220 ha        1 UWB      0.147000
     47 H18        -2.6000   -2.5050    2.1300 ha        1 UWB      0.153000
     48 H19        -6.2530   -2.7060    4.5860 h1        1 UWB      0.037700
     49 H20        -6.8670   -1.6640    3.2070 h1        1 UWB      0.037700
     50 H21        -6.5050   -4.7560    3.1350 hc        1 UWB      0.050033
     51 H22        -8.0840   -3.8660    3.2960 hc        1 UWB      0.050033
     52 H23        -7.1030   -3.7290    1.7700 hc        1 UWB      0.050033
     53 H24        -5.5640   -0.5520    4.6330 ha        1 UWB      0.139000
     54 H25        -3.8860    1.1430    5.3150 ha        1 UWB      0.136000
     55 H26        -1.5980    2.0500    5.2070 ha        1 UWB      0.136000
     56 H27         0.7280    1.9380    4.3040 ha        1 UWB      0.148000
@<TRIPOS>BOND
     1    1    2 1   
     2    1   31 1   
     3    1   32 1   
     4    2    3 ar  
     5    2   17 ar  
     6    3    4 1   
     7    3   14 ar  
     8    4    5 2   
     9    4   18 1   
    10    5    6 1   
    11    6    7 1   
    12    6   14 1   
    13    7    8 1   
    14    7   33 1   
    15    7   34 1   
    16    8    9 1   
    17    8   13 1   
    18    8   35 1   
    19    9   10 1   
    20    9   36 1   
    21    9   37 1   
    22   10   11 1   
    23   10   38 1   
    24   10   39 1   
    25   11   12 1   
    26   11   40 1   
    27   12   13 1   
    28   12   41 1   
    29   12   42 1   
    30   13   43 1   
    31   13   44 1   
    32   14   15 ar  
    33   15   16 ar  
    34   16   17 ar  
    35   16   45 1   
    36   18   19 ar  
    37   18   30 ar  
    38   19   20 ar  
    39   19   46 1   
    40   20   21 ar  
    41   20   28 ar  
    42   21   22 ar  
    43   21   47 1   
    44   22   23 1   
    45   22   26 ar  
    46   23   24 1   
    47   24   25 1   
    48   24   48 1   
    49   24   49 1   
    50   25   50 1   
    51   25   51 1   
    52   25   52 1   
    53   26   27 ar  
    54   26   53 1   
    55   27   28 ar  
    56   27   54 1   
    57   28   29 ar  
    58   29   30 ar  
    59   29   55 1   
    60   30   56 1   
@<TRIPOS>SUBSTRUCTURE
     1 UWB         1 TEMP              0 ****  ****    0 ROOT
