@<TRIPOS>MOLECULE
UWB
   56    60     1     0     0
SMALL
bcc


@<TRIPOS>ATOM
      1 N5          0.1090    0.2640   -0.2340 nv        1 UWB     -0.958500
      2 C           1.4770    0.2390   -0.1160 ca        1 UWB      0.761200
      3 C3          2.0940    0.1580    1.1710 ca        1 UWB     -0.497500
      4 C4          1.6980    0.1370    2.5670 cc        1 UWB      0.420500
      5 N2          2.8030    0.0900    3.3550 nd        1 UWB     -0.502100
      6 N3          3.9010    0.1090    2.5730 na        1 UWB      0.002200
      7 C5          5.2530   -0.1030    3.0610 c3        1 UWB      0.064300
      8 C6          5.7150   -1.5660    3.0840 c3        1 UWB     -0.087700
      9 C10         7.2250   -1.5920    3.2760 c3        1 UWB     -0.075400
     10 C9          7.7320   -3.0300    3.3800 c3        1 UWB      0.163800
     11 N4          7.0450   -3.8050    4.3950 n7        1 UWB     -0.820200
     12 C8          5.6000   -3.7680    4.2810 c3        1 UWB      0.163800
     13 C7          5.0380   -2.3500    4.1950 c3        1 UWB     -0.075400
     14 C2          3.5470    0.1120    1.2070 ca        1 UWB      0.469800
     15 N1          4.3360    0.1210    0.0880 nb        1 UWB     -0.741000
     16 C1          3.6170    0.1920   -1.0550 ca        1 UWB      0.694900
     17 N           2.2710    0.2580   -1.2400 nb        1 UWB     -0.800000
     18 C11         0.3360    0.1720    3.0860 ca        1 UWB     -0.089900
     19 C16        -0.5870   -0.7800    2.7090 ca        1 UWB     -0.122000
     20 C15        -1.9170   -0.7360    3.2120 ca        1 UWB     -0.010000
     21 C17        -2.8770   -1.7040    2.8300 ca        1 UWB     -0.162000
     22 C18        -4.1660   -1.6330    3.3380 ca        1 UWB      0.129100
     23 O          -5.0290   -2.6150    2.8930 os        1 UWB     -0.330900
     24 C21        -6.3370   -2.6230    3.4790 c3        1 UWB      0.129400
     25 C22        -7.0470   -3.8210    2.8910 c3        1 UWB     -0.100100
     26 C19        -4.5380   -0.6010    4.2410 ca        1 UWB     -0.181000
     27 C20        -3.6100    0.3380    4.6160 ca        1 UWB     -0.085000
     28 C14        -2.2820    0.2970    4.1150 ca        1 UWB     -0.064000
     29 C13        -1.3060    1.2580    4.4980 ca        1 UWB     -0.109000
     30 C12        -0.0300    1.1980    4.0010 ca        1 UWB     -0.115000
     31 H1         -0.4270    0.4050    0.5880 hn        1 UWB      0.443800
     32 H2         -0.3090    0.4330   -1.1160 hn        1 UWB      0.443800
     33 H3          5.9320    0.4830    2.3760 h1        1 UWB      0.076200
     34 H4          5.3260    0.3240    4.1010 h1        1 UWB      0.076200
     35 H5          5.4730   -2.0500    2.0950 hc        1 UWB      0.065700
     36 H6          7.7320   -1.0980    2.4080 hc        1 UWB      0.052950
     37 H7          7.4970   -1.0260    4.2040 hc        1 UWB      0.052950
     38 H8          8.8240   -3.0110    3.6560 h1        1 UWB      0.028450
     39 H9          7.6480   -3.5040    2.3560 h1        1 UWB      0.028450
     40 H10         7.3650   -4.7550    4.3710 hn        1 UWB      0.361800
     41 H12         5.2330   -4.3460    3.3810 h1        1 UWB      0.028450
     42 H13         5.1820   -4.2690    5.1990 h1        1 UWB      0.028450
     43 H14         5.1870   -1.8230    5.1730 hc        1 UWB      0.052950
     44 H15         3.9360   -2.4180    4.0080 hc        1 UWB      0.052950
     45 H16         4.2140    0.2010   -1.9930 h5        1 UWB      0.051100
     46 H17        -0.3090   -1.5980    2.0250 ha        1 UWB      0.147000
     47 H18        -2.6000   -2.5090    2.1350 ha        1 UWB      0.153000
     48 H19        -6.2490   -2.7090    4.5930 h1        1 UWB      0.037700
     49 H20        -6.8670   -1.6690    3.2150 h1        1 UWB      0.037700
     50 H21        -7.1020   -3.7360    1.7800 hc        1 UWB      0.050033
     51 H22        -8.0810   -3.8720    3.3070 hc        1 UWB      0.050033
     52 H23        -6.5010   -4.7610    3.1450 hc        1 UWB      0.050033
     53 H24        -5.5620   -0.5540    4.6370 ha        1 UWB      0.139000
     54 H25        -3.8840    1.1420    5.3160 ha        1 UWB      0.136000
     55 H26        -1.5960    2.0490    5.2070 ha        1 UWB      0.136000
     56 H27         0.7300    1.9350    4.3040 ha        1 UWB      0.148000
@<TRIPOS>BOND
     1    1    2 1   
     2    1   31 1   
     3    1   32 1   
     4    2    3 ar  
     5    2   17 ar  
     6    3    4 1   
     7    3   14 ar  
     8    4    5 2   
     9    4   18 1   
    10    5    6 1   
    11    6    7 1   
    12    6   14 1   
    13    7    8 1   
    14    7   33 1   
    15    7   34 1   
    16    8    9 1   
    17    8   13 1   
    18    8   35 1   
    19    9   10 1   
    20    9   36 1   
    21    9   37 1   
    22   10   11 1   
    23   10   38 1   
    24   10   39 1   
    25   11   12 1   
    26   11   40 1   
    27   12   13 1   
    28   12   41 1   
    29   12   42 1   
    30   13   43 1   
    31   13   44 1   
    32   14   15 ar  
    33   15   16 ar  
    34   16   17 ar  
    35   16   45 1   
    36   18   19 ar  
    37   18   30 ar  
    38   19   20 ar  
    39   19   46 1   
    40   20   21 ar  
    41   20   28 ar  
    42   21   22 ar  
    43   21   47 1   
    44   22   23 1   
    45   22   26 ar  
    46   23   24 1   
    47   24   25 1   
    48   24   48 1   
    49   24   49 1   
    50   25   50 1   
    51   25   51 1   
    52   25   52 1   
    53   26   27 ar  
    54   26   53 1   
    55   27   28 ar  
    56   27   54 1   
    57   28   29 ar  
    58   29   30 ar  
    59   29   55 1   
    60   30   56 1   
@<TRIPOS>SUBSTRUCTURE
     1 UWB         1 TEMP              0 ****  ****    0 ROOT
