@<TRIPOS>MOLECULE
UWB
   56    60     1     0     0
SMALL
bcc


@<TRIPOS>ATOM
      1 N5          0.1060    0.2710   -0.2340 nh        1 UWB     -0.958500
      2 C           1.4740    0.2470   -0.1160 ca        1 UWB      0.761200
      3 C3          2.0920    0.1640    1.1700 ca        1 UWB     -0.496500
      4 C4          1.6960    0.1410    2.5670 cc        1 UWB      0.420500
      5 N2          2.8020    0.0920    3.3540 nd        1 UWB     -0.502100
      6 N3          3.9000    0.1130    2.5710 na        1 UWB      0.002200
      7 C5          5.2520   -0.0990    3.0580 c3        1 UWB      0.064300
      8 C6          5.7140   -1.5620    3.0800 c3        1 UWB     -0.087700
      9 C10         7.2240   -1.5880    3.2700 c3        1 UWB     -0.075400
     10 C9          7.7320   -3.0250    3.3720 c3        1 UWB      0.163800
     11 N4          7.0470   -3.8010    4.3880 n3        1 UWB     -0.820200
     12 C8          5.6010   -3.7650    4.2760 c3        1 UWB      0.163800
     13 C7          5.0380   -2.3460    4.1910 c3        1 UWB     -0.075400
     14 C2          3.5450    0.1180    1.2060 ca        1 UWB      0.469800
     15 N1          4.3330    0.1300    0.0870 nb        1 UWB     -0.741000
     16 C1          3.6140    0.2020   -1.0560 ca        1 UWB      0.694900
     17 N           2.2680    0.2680   -1.2410 nb        1 UWB     -0.800000
     18 C11         0.3340    0.1730    3.0860 ca        1 UWB     -0.089900
     19 C16        -0.5890   -0.7780    2.7070 ca        1 UWB     -0.122000
     20 C15        -1.9190   -0.7350    3.2110 ca        1 UWB     -0.010000
     21 C17        -2.8790   -1.7030    2.8270 ca        1 UWB     -0.162000
     22 C18        -4.1670   -1.6330    3.3360 ca        1 UWB      0.129100
     23 O          -5.0290   -2.6150    2.8890 os        1 UWB     -0.330900
     24 C21        -6.3400   -2.6200    3.4710 c3        1 UWB      0.129400
     25 C22        -7.0500   -3.8160    2.8790 c3        1 UWB     -0.100100
     26 C19        -4.5390   -0.6030    4.2410 ca        1 UWB     -0.181000
     27 C20        -3.6110    0.3360    4.6180 ca        1 UWB     -0.085000
     28 C14        -2.2830    0.2950    4.1170 ca        1 UWB     -0.064000
     29 C13        -1.3080    1.2560    4.5020 ca        1 UWB     -0.109000
     30 C12        -0.0310    1.1980    4.0040 ca        1 UWB     -0.115000
     31 H1         -0.4300    0.4110    0.5880 hn        1 UWB      0.443800
     32 H2         -0.3120    0.4420   -1.1150 hn        1 UWB      0.443800
     33 H3          5.3250    0.3270    4.0990 h1        1 UWB      0.076200
     34 H4          5.9300    0.4880    2.3740 h1        1 UWB      0.076200
     35 H5          5.4710   -2.0450    2.0920 hc        1 UWB      0.065700
     36 H6          7.4970   -1.0220    4.1990 hc        1 UWB      0.052950
     37 H7          7.7300   -1.0930    2.4020 hc        1 UWB      0.052950
     38 H8          8.8240   -3.0060    3.6480 h1        1 UWB      0.028450
     39 H9          7.6470   -3.4990    2.3490 h1        1 UWB      0.028450
     40 H10         7.3670   -4.7520    4.3620 hn        1 UWB      0.361800
     41 H12         5.1840   -4.2670    5.1940 h1        1 UWB      0.028450
     42 H13         5.2330   -4.3420    3.3760 h1        1 UWB      0.028450
     43 H14         3.9360   -2.4150    4.0060 hc        1 UWB      0.052950
     44 H15         5.1890   -1.8200    5.1700 hc        1 UWB      0.052950
     45 H16         4.2100    0.2130   -1.9940 h5        1 UWB      0.051100
     46 H17        -0.3100   -1.5940    2.0220 ha        1 UWB      0.147000
     47 H18        -2.6010   -2.5060    2.1300 ha        1 UWB      0.153000
     48 H19        -6.2550   -2.7100    4.5860 h1        1 UWB      0.037700
     49 H20        -6.8660   -1.6650    3.2080 h1        1 UWB      0.037700
     50 H21        -7.1020   -3.7280    1.7680 hc        1 UWB      0.050033
     51 H22        -8.0850   -3.8660    3.2930 hc        1 UWB      0.050033
     52 H23        -6.5070   -4.7580    3.1320 hc        1 UWB      0.050033
     53 H24        -5.5630   -0.5570    4.6380 ha        1 UWB      0.139000
     54 H25        -3.8850    1.1380    5.3200 ha        1 UWB      0.136000
     55 H26        -1.5970    2.0450    5.2120 ha        1 UWB      0.136000
     56 H27         0.7280    1.9350    4.3080 ha        1 UWB      0.148000
@<TRIPOS>BOND
     1    1    2 1   
     2    1   31 1   
     3    1   32 1   
     4    2    3 ar  
     5    2   17 ar  
     6    3    4 1   
     7    3   14 ar  
     8    4    5 2   
     9    4   18 1   
    10    5    6 1   
    11    6    7 1   
    12    6   14 1   
    13    7    8 1   
    14    7   33 1   
    15    7   34 1   
    16    8    9 1   
    17    8   13 1   
    18    8   35 1   
    19    9   10 1   
    20    9   36 1   
    21    9   37 1   
    22   10   11 1   
    23   10   38 1   
    24   10   39 1   
    25   11   12 1   
    26   11   40 1   
    27   12   13 1   
    28   12   41 1   
    29   12   42 1   
    30   13   43 1   
    31   13   44 1   
    32   14   15 ar  
    33   15   16 ar  
    34   16   17 ar  
    35   16   45 1   
    36   18   19 ar  
    37   18   30 ar  
    38   19   20 ar  
    39   19   46 1   
    40   20   21 ar  
    41   20   28 ar  
    42   21   22 ar  
    43   21   47 1   
    44   22   23 1   
    45   22   26 ar  
    46   23   24 1   
    47   24   25 1   
    48   24   48 1   
    49   24   49 1   
    50   25   50 1   
    51   25   51 1   
    52   25   52 1   
    53   26   27 ar  
    54   26   53 1   
    55   27   28 ar  
    56   27   54 1   
    57   28   29 ar  
    58   29   30 ar  
    59   29   55 1   
    60   30   56 1   
@<TRIPOS>SUBSTRUCTURE
     1 UWB         1 TEMP              0 ****  ****    0 ROOT
