@<TRIPOS>MOLECULE
UWN
   82    80     1     0     0
SMALL
bcc


@<TRIPOS>ATOM
      1 N3          1.2100    0.1070    0.1210 nu        1 UWN     -0.256000
      2 N4         -2.0540   -3.2550    2.7790 n         1 UWN     -0.310000
      3 N2          1.0180    3.6300    1.9560 n         1 UWN     -0.270000
      4 N1          2.3590    8.1810    4.4530 n8        1 UWN     -0.344000
      5 OAA        -1.3580   -2.3850    4.7910 o         1 UWN     -0.344000
      6 OAB         0.2440    2.8590   -0.0580 o         1 UWN     -0.371000
      7 CAE         3.7910   -2.5300    0.7170 c1        1 UWN     -0.149000
      8 CAF         2.9020   -0.7600   -1.4470 c3        1 UWN     -0.056000
      9 CAG         2.7340   -1.6570    0.8730 c2        1 UWN     -0.353000
     10 CAH        -1.4310    0.2420    3.4170 ca        1 UWN     -0.110000
     11 CAI        -0.9460    1.4190    2.8550 ca        1 UWN     -0.089000
     12 CAJ        -0.1320   -1.0510    1.8260 ca        1 UWN     -0.123000
     13 CAM         5.5890    6.7250    4.4980 cu        1 UWN     -0.130000
     14 CAN         5.8550    8.0070    4.6710 cu        1 UWN     -0.218000
     15 CAQ         0.7060    8.4660    2.6830 c2        1 UWN     -0.331000
     16 CAR         1.8480    4.2980    4.1530 c2        1 UWN     -0.278000
     17 CAU         5.3220    5.4020    4.9970 c3        1 UWN     -0.147000
     18 CAV         5.7440    7.5450    3.2620 cx        1 UWN     -0.159000
     19 CAX        -2.5270   -4.4660    3.4210 c3        1 UWN     -0.036000
     20 CAY         1.3410    4.9150    1.3850 c3        1 UWN     -0.095000
     21 CAZ         1.3940    3.3800    3.2850 c2        1 UWN     -0.045000
     22 CBD         2.2180   -0.7920   -0.0940 c2        1 UWN      0.164000
     23 CBE        -1.0220   -0.9900    2.8970 ca        1 UWN     -0.073000
     24 CBF         0.3670    0.1370    1.2470 ca        1 UWN      0.093000
     25 CBG        -0.0470    1.3820    1.7870 ca        1 UWN     -0.132000
     26 CBI         1.8660    7.9910    3.1670 c2        1 UWN     -0.054000
     27 H1          1.0650    0.8440   -0.5470 hn        1 UWN      0.274000
     28 H3          1.2250    1.1560   -4.1160 ha        1 UWN      0.231000
     29 H6          3.0160   -1.8310   -1.7900 hc        1 UWN      0.139000
     30 H9          2.3040   -1.6090    1.8930 ha        1 UWN      0.145000
     31 H10        -2.1190    0.2740    4.2760 ha        1 UWN      0.159000
     32 H11        -1.2690    2.3920    3.2600 ha        1 UWN      0.155000
     33 H12         0.1810   -2.0330    1.4300 ha        1 UWN      0.172000
     34 H13         6.0540    8.8500    5.2970 ha        1 UWN      0.188000
     35 H14         5.4620    5.3540    6.1070 hc        1 UWN      0.097333
     36 H15         4.8560    7.8100    2.6560 hc        1 UWN      0.088500
     37 H16         6.6460    7.4420    2.6300 hc        1 UWN      0.088500
     38 H17         0.0450    9.1390    3.2400 ha        1 UWN      0.117500
     39 H18         1.0520    4.9460    0.3010 h1        1 UWN      0.096667
     40 H19         1.9610    5.3660    3.9290 ha        1 UWN      0.133000
     41 H20         2.1260    3.9980    5.1710 ha        1 UWN      0.133000
     42 H21         4.2660    5.1030    4.7590 hc        1 UWN      0.097333
     43 H22         6.0100    4.6580    4.5180 hc        1 UWN      0.097333
     44 H23         3.3560    8.1700    4.5160 hn        1 UWN      0.184000
     45 H24         1.9450    8.9310    4.9600 hn        1 UWN      0.184000
     46 H25        -2.1190   -5.3330    2.8250 h1        1 UWN      0.107250
     47 H26        -2.1070   -4.5250    4.4660 h1        1 UWN      0.107250
     48 H28         0.7900    5.7260    1.9370 h1        1 UWN      0.096667
     49 H29         2.4450    5.1030    1.4780 h1        1 UWN      0.096667
     50 H30         1.3030    2.3170    3.5880 h4        1 UWN      0.149000
     51 H31         0.3560    8.1810    1.6850 ha        1 UWN      0.117500
     52 H32         2.4960    7.3150    2.5510 h4        1 UWN      0.125000
     53 C1          1.7000    0.6060   -3.3420 c1        1 UWN     -0.165000
     54 C2          2.2340   -0.0100   -2.4660 c1        1 UWN     -0.207000
     55 C3         -2.6710   -2.9880    1.4980 c3        1 UWN     -0.036000
     56 C4         -4.1990   -3.0600    1.5130 c3        1 UWN     -0.200000
     57 C5         -4.0490   -4.5890    3.4900 c3        1 UWN     -0.200000
     58 C6         -4.6590   -4.4060    2.0940 c3        1 UWN      0.002000
     59 H2          4.1440   -2.8010   -0.2880 ha        1 UWN      0.031000
     60 H4          3.9400   -0.3440   -1.2970 hc        1 UWN      0.139000
     61 H5         -2.2810   -3.7630    0.7740 h1        1 UWN      0.107250
     62 H7         -2.3620   -1.9740    1.1190 h1        1 UWN      0.107250
     63 H8         -4.6190   -2.2120    2.1130 hc        1 UWN      0.098750
     64 H27        -4.5680   -2.9550    0.4590 hc        1 UWN      0.098750
     65 H33        -4.4640   -3.8260    4.2000 hc        1 UWN      0.098750
     66 H34        -4.3000   -5.6040    3.8920 hc        1 UWN      0.098750
     67 C8         -7.2880   -2.5900    4.8640 c2        1 UWN     -0.187000
     68 C9         -8.2930   -3.3040    4.4560 c1        1 UWN     -0.163000
     69 C10        -9.2990   -4.0160    4.0480 c2        1 UWN     -0.187000
     70 C7         -6.7390   -5.2460    1.2250 c1        1 UWN     -0.171000
     71 N5         -6.1160   -4.5240    2.1120 n7        1 UWN     -0.197000
     72 H35        -4.2680   -5.2280    1.4190 h1        1 UWN      0.136000
     73 H36        -7.2490   -1.4990    4.7300 ha        1 UWN      0.135250
     74 H37        -6.5490   -3.9900    2.8470 hn        1 UWN      0.167000
     75 H38        -9.3350   -4.4620    3.0420 ha        1 UWN      0.135250
     76 H39        -6.4230   -3.0330    5.3800 ha        1 UWN      0.135250
     77 H40       -10.1740   -4.2150    4.6840 ha        1 UWN      0.135250
     78 H41        -7.8480   -5.2560    1.3230 ha        1 UWN      0.035000
     79 H42        -6.1130   -3.6640   -1.2760 ha        1 UWN      0.001000
     80 H43        -6.2150   -4.2080   -0.8840 ha        1 UWN      0.001000
     81 CBB        -1.5080   -2.2390    3.5620 c2        1 UWN      0.335000
     82 CBC         0.4120    2.6590    1.1640 c2        1 UWN      0.351000
@<TRIPOS>BOND
     1    1   22 1   
     2    1   24 1   
     3    1   27 1   
     4    2   19 1   
     5    2   55 1   
     6    2   81 1   
     7    3   20 1   
     8    3   21 1   
     9    3   82 1   
    10    4   26 1   
    11    4   44 1   
    12    4   45 1   
    13    5   81 1   
    14    6   82 1   
    15    7    9 1   
    16    7   59 1   
    17    8   22 1   
    18    8   29 1   
    19    8   54 1   
    20    8   60 1   
    21    9   22 1   
    22    9   30 1   
    23   10   11 1   
    24   10   23 1   
    25   10   31 1   
    26   11   25 1   
    27   11   32 1   
    28   12   23 1   
    29   12   24 1   
    30   12   33 1   
    31   13   14 1   
    32   13   17 1   
    33   13   18 1   
    34   14   18 1   
    35   14   34 1   
    36   15   26 1   
    37   15   38 1   
    38   15   51 1   
    39   16   21 1   
    40   16   40 1   
    41   16   41 1   
    42   17   35 1   
    43   17   42 1   
    44   17   43 1   
    45   18   36 1   
    46   18   37 1   
    47   19   46 1   
    48   19   47 1   
    49   19   57 1   
    50   20   39 1   
    51   20   48 1   
    52   20   49 1   
    53   21   50 1   
    54   23   81 1   
    55   24   25 1   
    56   25   82 1   
    57   26   52 1   
    58   28   53 1   
    59   53   54 1   
    60   55   56 1   
    61   55   61 1   
    62   55   62 1   
    63   56   58 1   
    64   56   63 1   
    65   56   64 1   
    66   57   58 1   
    67   57   65 1   
    68   57   66 1   
    69   58   71 1   
    70   58   72 1   
    71   67   68 1   
    72   67   73 1   
    73   67   76 1   
    74   68   69 1   
    75   69   75 1   
    76   69   77 1   
    77   70   71 1   
    78   70   78 1   
    79   71   74 1   
    80   79   80 1   
@<TRIPOS>SUBSTRUCTURE
     1 UWN         1 TEMP              0 ****  ****    0 ROOT
