@<TRIPOS>MOLECULE
UWN
   82    87     1     0     0
SMALL
bcc


@<TRIPOS>ATOM
      1 N3         -1.0840    2.9910    0.4200 nh        1 UWN     -0.635000
      2 N4          3.4430    0.1200    1.5600 n         1 UWN     -0.450800
      3 N2         -3.8160    0.4830   -0.5890 n         1 UWN     -0.455800
      4 N1         -6.4070   -2.9080   -1.1340 n3        1 UWN     -0.727600
      5 OAA         2.1150   -1.1340    2.9520 o         1 UWN     -0.592100
      6 OAB        -2.4960    1.7920   -1.9170 o         1 UWN     -0.627100
      7 CAE         0.4780    5.1340    3.0350 ca        1 UWN     -0.108000
      8 CAF        -0.1960    5.2640    0.3310 ca        1 UWN     -0.162000
      9 CAG        -0.0910    4.0230    2.4190 ca        1 UWN     -0.162000
     10 CAH         0.2370   -1.0210    0.5570 ca        1 UWN     -0.144000
     11 CAI        -0.9310   -0.6760   -0.1150 ca        1 UWN     -0.075000
     12 CAJ         0.5830    1.3120    1.1310 ca        1 UWN     -0.174000
     13 CAM        -7.9950   -4.5790   -0.3320 c3        1 UWN     -0.088400
     14 CAN        -8.5740   -3.9370   -1.5860 c3        1 UWN     -0.088400
     15 CAQ        -5.5320   -0.7230   -1.9340 c3        1 UWN     -0.100400
     16 CAR        -4.5680   -1.7860    0.1040 c3        1 UWN     -0.100400
     17 CAU        -6.6990   -3.8140   -0.0210 c3        1 UWN      0.161800
     18 CAV        -7.6040   -2.8080   -1.9710 c3        1 UWN      0.161800
     19 CAX         4.6490   -0.3280    2.2270 c3        1 UWN      0.078500
     20 CAY        -4.9550    0.6170   -1.4750 c3        1 UWN      0.084500
     21 CAZ        -4.0240   -0.4170    0.5190 c3        1 UWN      0.084500
     22 CBD        -0.4320    4.0690    1.0490 ca        1 UWN      0.136600
     23 CBE         0.9870   -0.0170    1.1770 ca        1 UWN     -0.076600
     24 CBF        -0.6110    1.6790    0.4640 ca        1 UWN      0.209600
     25 CBG        -1.3670    0.6480   -0.1620 ca        1 UWN     -0.183600
     26 CBI        -5.8540   -1.6170   -0.7250 c3        1 UWN      0.188500
     27 H1         -1.5870    3.2300   -0.4140 hn        1 UWN      0.452800
     28 H3          0.7400    5.0820    4.1030 ha        1 UWN      0.134000
     29 H6         -0.4610    5.3330   -0.7360 ha        1 UWN      0.142500
     30 H9         -0.2830    3.1130    3.0080 ha        1 UWN      0.142500
     31 H10         0.5640   -2.0700    0.6120 ha        1 UWN      0.152000
     32 H11        -1.5230   -1.4580   -0.6180 ha        1 UWN      0.144000
     33 H12         1.2070    2.0840    1.6110 ha        1 UWN      0.159000
     34 H13        -8.7060   -4.5060    0.5260 hc        1 UWN      0.047700
     35 H14        -7.7750   -5.6620   -0.5030 hc        1 UWN      0.047700
     36 H15        -8.6530   -4.6810   -2.4150 hc        1 UWN      0.047700
     37 H16        -9.5950   -3.5260   -1.3960 hc        1 UWN      0.047700
     38 H17        -6.4610   -0.5110   -2.5240 hc        1 UWN      0.057450
     39 H18        -4.8080   -1.2450   -2.6110 hc        1 UWN      0.057450
     40 H19        -3.8020   -2.3450   -0.4920 hc        1 UWN      0.057450
     41 H20        -4.7750   -2.3720    1.0360 hc        1 UWN      0.057450
     42 H21        -5.8300   -4.5190    0.0720 h1        1 UWN      0.038950
     43 H22        -6.8080   -3.2700    0.9590 h1        1 UWN      0.038950
     44 H23        -8.1230   -1.8140   -1.8650 h1        1 UWN      0.038950
     45 H24        -7.2740   -2.9110   -3.0400 h1        1 UWN      0.038950
     46 H25         5.2240    0.5970    2.5240 h1        1 UWN      0.061700
     47 H26         4.3730   -0.8880    3.1660 h1        1 UWN      0.061700
     48 H28        -5.7540    1.1890   -0.9200 h1        1 UWN      0.061450
     49 H29        -4.6570    1.2190   -2.3810 h1        1 UWN      0.061450
     50 H30        -3.0680   -0.5610    1.0950 h1        1 UWN      0.061450
     51 H31        -4.7710    0.0710    1.2120 h1        1 UWN      0.061450
     52 H32        -6.5990   -1.0540   -0.0780 h1        1 UWN      0.018700
     53 C1          0.7090    6.3060    2.3180 ca        1 UWN     -0.150000
     54 C2          0.3650    6.3660    0.9680 ca        1 UWN     -0.108000
     55 C3          3.6670    0.6750    0.2430 c3        1 UWN      0.078500
     56 C4          4.5410   -0.1920   -0.6640 c3        1 UWN     -0.102900
     57 C5          5.5510   -1.2150    1.3680 c3        1 UWN     -0.102900
     58 C6          5.8720   -0.5220    0.0340 c3        1 UWN      0.188500
     59 H2          1.1560    7.1790    2.8140 ha        1 UWN      0.134000
     60 H4          0.5400    7.2900    0.3970 ha        1 UWN      0.134000
     61 H5          2.6840    0.8610   -0.2740 h1        1 UWN      0.061700
     62 H7          4.1750    1.6730    0.3870 h1        1 UWN      0.061700
     63 H8          4.0070   -1.1400   -0.9300 hc        1 UWN      0.058450
     64 H27         4.7240    0.3760   -1.6120 hc        1 UWN      0.058450
     65 H33         6.4900   -1.4130    1.9450 hc        1 UWN      0.058450
     66 H34         5.0540   -2.2000    1.1750 hc        1 UWN      0.058450
     67 C8          8.0000   -1.7320   -0.1780 c3        1 UWN      0.161800
     68 C9          9.1160   -1.7000   -1.2330 c3        1 UWN     -0.088400
     69 C10         8.5050   -1.0620   -2.4740 c3        1 UWN     -0.088400
     70 C7          7.0460   -0.7440   -2.1130 c3        1 UWN      0.161800
     71 N5          6.7390   -1.3430   -0.8130 n3        1 UWN     -0.726600
     72 H35         6.3780    0.4660    0.2790 h1        1 UWN      0.017700
     73 H36         7.8620   -2.7710    0.2280 h1        1 UWN      0.038700
     74 H37         8.2750   -1.0600    0.6830 h1        1 UWN      0.038700
     75 H38         9.9870   -1.1080   -0.8600 hc        1 UWN      0.047700
     76 H39         9.4750   -2.7350   -1.4520 hc        1 UWN      0.047700
     77 H40         9.0480   -0.1290   -2.7600 hc        1 UWN      0.047700
     78 H41         8.5470   -1.7620   -3.3440 hc        1 UWN      0.047700
     79 H42         6.8900    0.3720   -2.1220 h1        1 UWN      0.038700
     80 H43         6.3400   -1.1940   -2.8630 h1        1 UWN      0.038700
     81 CBB         2.2120   -0.4060    1.9440 c         1 UWN      0.662700
     82 CBC        -2.5840    0.9970   -0.9530 c         1 UWN      0.681700
@<TRIPOS>BOND
     1    1   22 1   
     2    1   24 1   
     3    1   27 1   
     4    2   19 1   
     5    2   55 1   
     6    2   81 1   
     7    3   20 1   
     8    3   21 1   
     9    3   82 1   
    10    4   17 1   
    11    4   18 1   
    12    4   26 1   
    13    5   81 2   
    14    6   82 2   
    15    7    9 ar  
    16    7   28 1   
    17    7   53 ar  
    18    8   22 ar  
    19    8   29 1   
    20    8   54 ar  
    21    9   22 ar  
    22    9   30 1   
    23   10   11 ar  
    24   10   23 ar  
    25   10   31 1   
    26   11   25 ar  
    27   11   32 1   
    28   12   23 ar  
    29   12   24 ar  
    30   12   33 1   
    31   13   14 1   
    32   13   17 1   
    33   13   34 1   
    34   13   35 1   
    35   14   18 1   
    36   14   36 1   
    37   14   37 1   
    38   15   20 1   
    39   15   26 1   
    40   15   38 1   
    41   15   39 1   
    42   16   21 1   
    43   16   26 1   
    44   16   40 1   
    45   16   41 1   
    46   17   42 1   
    47   17   43 1   
    48   18   44 1   
    49   18   45 1   
    50   19   46 1   
    51   19   47 1   
    52   19   57 1   
    53   20   48 1   
    54   20   49 1   
    55   21   50 1   
    56   21   51 1   
    57   23   81 1   
    58   24   25 ar  
    59   25   82 1   
    60   26   52 1   
    61   53   54 ar  
    62   53   59 1   
    63   54   60 1   
    64   55   56 1   
    65   55   61 1   
    66   55   62 1   
    67   56   58 1   
    68   56   63 1   
    69   56   64 1   
    70   57   58 1   
    71   57   65 1   
    72   57   66 1   
    73   58   71 1   
    74   58   72 1   
    75   67   68 1   
    76   67   71 1   
    77   67   73 1   
    78   67   74 1   
    79   68   69 1   
    80   68   75 1   
    81   68   76 1   
    82   69   70 1   
    83   69   77 1   
    84   69   78 1   
    85   70   71 1   
    86   70   79 1   
    87   70   80 1   
@<TRIPOS>SUBSTRUCTURE
     1 UWN         1 TEMP              0 ****  ****    0 ROOT
