@<TRIPOS>MOLECULE
UWN
   83    80     1     0     0
SMALL
bcc


@<TRIPOS>ATOM
      1 N3         -0.5790    0.3790    0.1070 n4        1 UWN      0.116000
      2 N4         -3.1620   -1.2220    4.4020 n         1 UWN     -0.196000
      3 N2          0.6940    3.6690    0.3940 n         1 UWN     -0.191000
      4 N1          2.9940    3.8520    4.6270 n3        1 UWN     -0.320000
      5 OAA        -3.1560    0.7070    5.6040 o         1 UWN     -0.362000
      6 OAB        -1.4660    3.5500   -0.7050 o         1 UWN     -0.239000
      7 CAE         0.4220    1.1680   -4.5480 c1        1 UWN      0.457000
      8 CAF         1.2850   -0.5030   -1.3280 c3        1 UWN     -0.169000
      9 CAG         1.4380   -0.5790    1.1600 c2        1 UWN     -0.161000
     10 CAH        -2.2000    2.3000    3.4970 c2        1 UWN     -0.005000
     11 CAI        -1.5400    3.0510    2.5890 c2        1 UWN     -0.273000
     12 CAJ        -1.6110    0.2620    2.3320 c2        1 UWN      0.065000
     13 CAM         7.7030    6.4080    4.6300 c2        1 UWN      0.289000
     14 CAN         6.5620    5.7150    4.6780 c1        1 UWN     -0.363000
     15 CAQ         3.2490    4.9480    2.4330 c3        1 UWN     -0.245000
     16 CAR         1.1630    3.6450    2.9170 c3        1 UWN     -0.176000
     17 CAU         2.9450    2.5870    5.3290 c3        1 UWN     -0.158000
     18 CAV         5.5040    5.0770    4.7230 c1        1 UWN      0.224000
     19 CAX        -3.9380   -1.9320    5.4710 c3        1 UWN      0.026000
     20 CAY         1.5730    4.3890   -0.2230 c1        1 UWN     -0.181000
     21 CAZ         0.8340    2.8890    1.6480 cy        1 UWN     -0.030000
     22 CBD         0.7540   -0.2450    0.0580 c2        1 UWN     -0.124000
     23 CBE        -2.1950    0.8650    3.4300 c2        1 UWN     -0.295000
     24 CBF        -0.9460    1.0150    1.3550 c2        1 UWN     -0.439000
     25 CBG        -0.7060    2.4580    1.5270 cy        1 UWN      0.114000
     26 CBI         2.6730    3.7540    3.1900 c3        1 UWN     -0.045000
     27 H1         -0.6250    1.0620   -0.6760 hn        1 UWN      0.256000
     28 H3          2.4240   -1.0570    1.0880 ha        1 UWN      0.150000
     29 H6          1.1070   -1.5900   -1.5850 hc        1 UWN      0.136000
     30 H9          1.0540   -0.4050    2.1780 ha        1 UWN      0.150000
     31 H10        -2.7790    2.7660    4.3160 ha        1 UWN      0.154000
     32 H11        -1.5910    4.1490    2.6080 ha        1 UWN      0.131000
     33 H12        -1.6680   -0.8360    2.1960 ha        1 UWN      0.133000
     34 H13         7.7390    7.4820    4.9070 ha        1 UWN      0.185500
     35 H14         3.1630    2.7680    6.4150 h1        1 UWN      0.094000
     36 H15         3.7280    1.9020    4.9100 h1        1 UWN      0.094000
     37 H16         8.6550    5.9340    4.3120 ha        1 UWN      0.185500
     38 H17         1.2510    4.8860   -1.1590 ha        1 UWN      0.080000
     39 H18        -0.7050    6.3640    3.2550 ha        1 UWN      0.000750
     40 H19         0.7150    4.6750    2.8960 hc        1 UWN      0.113500
     41 H20         0.6570    3.0840    3.7520 hc        1 UWN      0.113500
     42 H21         3.1780    2.8180    2.8040 h1        1 UWN      0.103000
     43 H22         1.9480    2.0750    5.2480 h1        1 UWN      0.094000
     44 H23         2.3590    4.5050    5.0590 hn        1 UWN      0.175000
     45 H24         4.5100    4.5040    4.7400 ha        1 UWN      0.354000
     46 H25        -3.2040   -2.2600    6.2610 h1        1 UWN      0.113000
     47 H26        -4.6310   -1.1610    5.9180 h1        1 UWN      0.113000
     48 H28         3.0150    4.8300    1.3370 hc        1 UWN      0.096000
     49 H29         2.8050    5.9080    2.7880 hc        1 UWN      0.096000
     50 H30         1.5300    2.0240    1.5000 h1        1 UWN      0.107000
     51 H31        -1.3020    6.4290    2.9420 ha        1 UWN      0.000750
     52 H32         4.3610    5.0010    2.5520 hc        1 UWN      0.096000
     53 C1          1.0520    0.4000   -3.6520 c2        1 UWN     -0.528000
     54 C2          0.6240    0.3340   -2.3210 c1        1 UWN     -0.109000
     55 C3         -3.2880   -1.9180    3.2680 c1        1 UWN     -0.068000
     56 C4         -3.6180   -3.1220    3.0160 c1        1 UWN     -0.215000
     57 C5         -4.7480   -3.1260    5.0280 c2        1 UWN     -0.316000
     58 C6         -4.7150   -3.6970    3.7690 c2        1 UWN      0.163000
     59 H2          1.9320   -0.1820   -4.0130 ha        1 UWN      0.180000
     60 H4          2.4020   -0.3520   -1.3200 hc        1 UWN      0.136000
     61 H5         -2.4610   -2.5460    0.7550 ha        1 UWN      0.000750
     62 H7         -2.0830   -2.3300    0.2330 ha        1 UWN      0.000750
     63 H8         -4.5360    2.5640    6.0510 ha        1 UWN      0.000750
     64 H27        -4.3590    3.2090    5.9410 ha        1 UWN      0.000750
     65 H33        -2.2210    2.6070    6.6320 ha        1 UWN      0.000750
     66 H34        -1.6380    2.9080    6.8040 ha        1 UWN      0.000750
     67 C8         -6.4040   -5.4030    4.1410 c3        1 UWN     -0.099000
     68 C9         -4.2150   -6.7640    0.7250 cx        1 UWN     -0.181000
     69 C10        -2.9370   -6.5750   -0.0140 cu        1 UWN     -0.201000
     70 C7         -3.2200   -5.6670    0.8990 cu        1 UWN     -0.201000
     71 N5         -5.5440   -4.6760    3.2540 n3        1 UWN     -0.286000
     72 H35        -5.3560   -3.5600    5.8330 ha        1 UWN      0.158000
     73 H36        -5.8370   -5.9950    4.9110 h1        1 UWN      0.081667
     74 H37        -7.0810   -4.6850    4.6770 h1        1 UWN      0.081667
     75 H38        -7.0300   -6.1060    3.5310 h1        1 UWN      0.081667
     76 H39        -4.3060   -7.5640    1.4840 hc        1 UWN      0.091500
     77 H40        -2.3100   -6.9880   -0.7750 ha        1 UWN      0.199500
     78 H41        -5.1830   -6.5680    0.2260 hc        1 UWN      0.091500
     79 H42        -5.1330   -5.2150    2.5160 hn        1 UWN      0.226000
     80 H43        -3.0040   -4.7720    1.4560 ha        1 UWN      0.199500
     81 CBC        -0.7050    3.2900    0.2110 cv        1 UWN      0.224000
     82 H321       -1.2610   -0.3680   -0.0900 hn        1 UWN      0.256000
     83 CBB        -2.8610    0.1570    4.5240 c2        1 UWN      0.386000
@<TRIPOS>BOND
     1    1   22 1   
     2    1   24 1   
     3    1   27 1   
     4    1   82 1   
     5    2   19 1   
     6    2   55 1   
     7    2   83 1   
     8    3   20 1   
     9    3   21 1   
    10    3   81 1   
    11    4   17 1   
    12    4   26 1   
    13    4   44 1   
    14    5   83 1   
    15    6   81 1   
    16    7   53 1   
    17    8   22 1   
    18    8   29 1   
    19    8   54 1   
    20    8   60 1   
    21    9   22 1   
    22    9   28 1   
    23    9   30 1   
    24   10   11 1   
    25   10   23 1   
    26   10   31 1   
    27   11   25 1   
    28   11   32 1   
    29   12   23 1   
    30   12   24 1   
    31   12   33 1   
    32   13   14 1   
    33   13   34 1   
    34   13   37 1   
    35   14   18 1   
    36   15   26 1   
    37   15   48 1   
    38   15   49 1   
    39   15   52 1   
    40   16   21 1   
    41   16   26 1   
    42   16   40 1   
    43   16   41 1   
    44   17   35 1   
    45   17   36 1   
    46   17   43 1   
    47   18   45 1   
    48   19   46 1   
    49   19   47 1   
    50   19   57 1   
    51   20   38 1   
    52   21   25 1   
    53   21   50 1   
    54   23   83 1   
    55   24   25 1   
    56   25   81 1   
    57   26   42 1   
    58   39   51 1   
    59   53   54 1   
    60   53   59 1   
    61   55   56 1   
    62   56   58 1   
    63   57   58 1   
    64   57   72 1   
    65   58   71 1   
    66   61   62 1   
    67   63   64 1   
    68   65   66 1   
    69   67   71 1   
    70   67   73 1   
    71   67   74 1   
    72   67   75 1   
    73   68   69 1   
    74   68   70 1   
    75   68   76 1   
    76   68   78 1   
    77   69   70 1   
    78   69   77 1   
    79   70   80 1   
    80   71   79 1   
@<TRIPOS>SUBSTRUCTURE
     1 UWN         1 TEMP              0 ****  ****    0 ROOT
