@<TRIPOS>MOLECULE
UWU
   28    30     1     0     0
SMALL
bcc


@<TRIPOS>ATOM
      1 C16         0.0160   -0.1490    0.0080 ca        1 UWU     -0.108000
      2 C15         1.4090   -0.1580    0.0180 ca        1 UWU     -0.130500
      3 C14         2.1020   -0.0070    1.2190 ca        1 UWU     -0.114000
      4 C13         1.3990    0.1550    2.4130 ca        1 UWU     -0.130500
      5 C12         0.0050    0.1730    2.4090 ca        1 UWU     -0.108000
      6 C11        -0.6950    0.0230    1.2040 ca        1 UWU     -0.083800
      7 C4         -2.1600    0.0100    1.1880 cc        1 UWU      0.109600
      8 C3         -2.8350   -1.0520    0.6830 cd        1 UWU     -0.257200
      9 C2         -4.2870   -1.0930    0.6750 c         1 UWU      0.722800
     10 O2         -5.0420   -1.9700    0.2600 o         1 UWU     -0.558500
     11 O8         -5.0130   -0.0230    1.2050 os        1 UWU     -0.323200
     12 C8A        -4.3240    1.0630    1.6940 ca        1 UWU      0.188100
     13 C8         -5.1220    2.1080    2.1820 ca        1 UWU     -0.183000
     14 C4A        -2.9130    1.1350    1.7070 ca        1 UWU     -0.172800
     15 C5         -2.3100    2.3000    2.2050 ca        1 UWU     -0.027000
     16 C6         -3.0820    3.3480    2.6910 ca        1 UWU     -0.101600
     17 Cl         -2.3130    4.7430    3.2890 cl        1 UWU     -0.083400
     18 C7         -4.4940    3.2530    2.6840 ca        1 UWU      0.184100
     19 O7         -5.3270    4.2360    3.1460 oh        1 UWU     -0.479100
     20 H16        -0.5310   -0.2740   -0.9390 ha        1 UWU      0.142000
     21 H15         1.9620   -0.2870   -0.9240 ha        1 UWU      0.139000
     22 H14         3.2030   -0.0180    1.2260 ha        1 UWU      0.138000
     23 H13         1.9440    0.2680    3.3620 ha        1 UWU      0.139000
     24 H12        -0.5480    0.2950    3.3520 ha        1 UWU      0.142000
     25 H3         -2.3280   -1.9360    0.2660 ha        1 UWU      0.174000
     26 H8         -6.2190    2.0310    2.1680 ha        1 UWU      0.182000
     27 H5         -1.2090    2.3790    2.2050 ha        1 UWU      0.165000
     28 H7         -4.7860    4.9790    3.4600 ho        1 UWU      0.436000
@<TRIPOS>BOND
     1    1    2 ar  
     2    1    6 ar  
     3    1   20 1   
     4    2    3 ar  
     5    2   21 1   
     6    3    4 ar  
     7    3   22 1   
     8    4    5 ar  
     9    4   23 1   
    10    5    6 ar  
    11    5   24 1   
    12    6    7 1   
    13    7    8 2   
    14    7   14 1   
    15    8    9 1   
    16    8   25 1   
    17    9   10 2   
    18    9   11 1   
    19   11   12 1   
    20   12   13 ar  
    21   12   14 ar  
    22   13   18 ar  
    23   13   26 1   
    24   14   15 ar  
    25   15   16 ar  
    26   15   27 1   
    27   16   17 1   
    28   16   18 ar  
    29   18   19 1   
    30   19   28 1   
@<TRIPOS>SUBSTRUCTURE
     1 UWU         1 TEMP              0 ****  ****    0 ROOT
