@<TRIPOS>MOLECULE
UWU
   28    30     1     0     0
SMALL
bcc


@<TRIPOS>ATOM
      1 C16         3.1100   -0.3780    1.0260 ca        1 UWU     -0.108000
      2 C15         4.0710   -1.3870    1.0150 ca        1 UWU     -0.130500
      3 C14         4.1070   -2.3100   -0.0300 ca        1 UWU     -0.114000
      4 C13         3.1780   -2.2230   -1.0670 ca        1 UWU     -0.130500
      5 C12         2.2090   -1.2210   -1.0580 ca        1 UWU     -0.108000
      6 C11         2.1690   -0.2930   -0.0090 ca        1 UWU     -0.083800
      7 C4          1.1750    0.7840   -0.0000 cc        1 UWU      0.109600
      8 C3          1.5640    2.0820    0.0490 cd        1 UWU     -0.257200
      9 C2          0.5960    3.1650    0.0380 c         1 UWU      0.722800
     10 O2          0.7800    4.3790    0.0770 o         1 UWU     -0.558500
     11 O8         -0.7690    2.8720   -0.0330 os        1 UWU     -0.323200
     12 C8A        -1.1600    1.5540   -0.0590 ca        1 UWU      0.188100
     13 C8         -2.5460    1.3400   -0.1010 ca        1 UWU     -0.183000
     14 C4A        -0.2420    0.4790   -0.0410 ca        1 UWU     -0.172800
     15 C5         -0.7480   -0.8300   -0.0430 ca        1 UWU     -0.027000
     16 C6         -2.1170   -1.0630   -0.0820 ca        1 UWU     -0.101600
     17 CL         -2.6910   -2.6640   -0.0870 cl        1 UWU     -0.083400
     18 C7         -3.0210    0.0250   -0.1140 ca        1 UWU      0.184100
     19 O7         -4.3820   -0.1160   -0.1580 oh        1 UWU     -0.479100
     20 H16         3.0860    0.3530    1.8490 ha        1 UWU      0.142000
     21 H15         4.8040   -1.4530    1.8330 ha        1 UWU      0.139000
     22 H14         4.8690   -3.1030   -0.0390 ha        1 UWU      0.138000
     23 H13         3.2080   -2.9450   -1.8970 ha        1 UWU      0.139000
     24 H12         1.4800   -1.1500   -1.8800 ha        1 UWU      0.142000
     25 H3          2.6220    2.3850    0.0870 ha        1 UWU      0.175000
     26 H8         -3.2440    2.1900   -0.1190 ha        1 UWU      0.182000
     27 H5         -0.0430   -1.6790   -0.0100 ha        1 UWU      0.165000
     28 H7         -4.5970   -1.0630   -0.1560 ho        1 UWU      0.436000
@<TRIPOS>BOND
     1    1    2 ar  
     2    1    6 ar  
     3    1   20 1   
     4    2    3 ar  
     5    2   21 1   
     6    3    4 ar  
     7    3   22 1   
     8    4    5 ar  
     9    4   23 1   
    10    5    6 ar  
    11    5   24 1   
    12    6    7 1   
    13    7    8 2   
    14    7   14 1   
    15    8    9 1   
    16    8   25 1   
    17    9   10 2   
    18    9   11 1   
    19   11   12 1   
    20   12   13 ar  
    21   12   14 ar  
    22   13   18 ar  
    23   13   26 1   
    24   14   15 ar  
    25   15   16 ar  
    26   15   27 1   
    27   16   17 1   
    28   16   18 ar  
    29   18   19 1   
    30   19   28 1   
@<TRIPOS>SUBSTRUCTURE
     1 UWU         1 TEMP              0 ****  ****    0 ROOT
