@<TRIPOS>MOLECULE
UXH
   30    32     1     0     0
SMALL
bcc


@<TRIPOS>ATOM
      1 N1          1.5580   -1.4120    0.1330 nb        1 UXH     -0.616000
      2 CL1        -3.5920   -2.0970    0.0150 cl        1 UXH     -0.105400
      3 C2          0.2660   -0.9430    0.0660 ca        1 UXH      0.325600
      4 C3          0.0410    0.4340   -0.0290 ca        1 UXH     -0.100300
      5 C4          1.1130    1.3880   -0.0620 ca        1 UXH     -0.118000
      6 C5          2.3930    0.9190    0.0120 ca        1 UXH     -0.090300
      7 C6          2.5500   -0.5190    0.1040 ca        1 UXH      0.339800
      8 C7         -0.9340   -1.7700    0.0800 ca        1 UXH      0.201300
      9 C8         -2.1810   -1.1220   -0.0070 ca        1 UXH     -0.141600
     10 C9         -2.3730    0.3030   -0.1160 ca        1 UXH      0.241600
     11 C10        -1.2150    1.0920   -0.1160 ca        1 UXH     -0.139200
     12 N11        -0.8180   -3.1360    0.1190 nh        1 UXH     -0.840200
     13 N13        -3.6390    0.8640   -0.1420 nh        1 UXH     -0.827200
     14 C14         3.9840   -0.9890    0.1970 c         1 UXH      0.568600
     15 N15         4.3130   -2.2240   -0.2910 n         1 UXH     -0.653000
     16 O16         4.8560   -0.2380    0.6780 o         1 UXH     -0.607100
     17 C17         0.4400    2.7260   -0.1550 c         1 UXH      0.299800
     18 N18        -0.9780    2.4930   -0.2700 n         1 UXH     -0.134300
     19 O19         0.9580    3.8460   -0.1760 o         1 UXH     -0.302000
     20 C20        -1.9150    3.4790    0.1730 c3        1 UXH      0.011600
     21 H5          3.2890    1.5580    0.0180 ha        1 UXH      0.188000
     22 HN11        0.0610   -3.5310    0.3500 hn        1 UXH      0.436800
     23 HN1A       -1.6270   -3.6790    0.3060 hn        1 UXH      0.436800
     24 HN13       -4.3930    0.2490   -0.3540 hn        1 UXH      0.416300
     25 HN1B       -3.7040    1.7650   -0.5570 hn        1 UXH      0.416300
     26 HN15        3.6250   -2.8540   -0.6150 hn        1 UXH      0.319500
     27 HN1C        5.2480   -2.5390   -0.2050 hn        1 UXH      0.319500
     28 H20        -2.6750    3.6510   -0.6370 h1        1 UXH      0.051033
     29 H20A       -2.4450    3.1670    1.1130 h1        1 UXH      0.051033
     30 H20B       -1.3740    4.4470    0.3600 h1        1 UXH      0.051033
@<TRIPOS>BOND
     1    1    3 ar  
     2    1    7 ar  
     3    2    9 1   
     4    3    4 ar  
     5    3    8 ar  
     6    4    5 ar  
     7    4   11 ar  
     8    5    6 ar  
     9    5   17 1   
    10    6    7 ar  
    11    6   21 1   
    12    7   14 1   
    13    8    9 ar  
    14    8   12 1   
    15    9   10 ar  
    16   10   11 ar  
    17   10   13 1   
    18   11   18 1   
    19   12   22 1   
    20   12   23 1   
    21   13   24 1   
    22   13   25 1   
    23   14   15 1   
    24   14   16 2   
    25   15   26 1   
    26   15   27 1   
    27   17   18 1   
    28   17   19 2   
    29   18   20 1   
    30   20   28 1   
    31   20   29 1   
    32   20   30 1   
@<TRIPOS>SUBSTRUCTURE
     1 UXH         1 TEMP              0 ****  ****    0 ROOT
