@<TRIPOS>MOLECULE
UXH
   31    33     1     0     0
SMALL
bcc


@<TRIPOS>ATOM
      1 N1         -0.0180    0.0390   -0.0340 nb        1 UXH     -0.613000
      2 Cl1         4.6430    0.0330   -2.3060 cl        1 UXH     -0.069400
      3 C2          1.3290    0.0180    0.0010 ca        1 UXH      0.326600
      4 C3          2.0010   -0.0480    1.2500 ca        1 UXH     -0.086300
      5 C4          1.2780   -0.0960    2.4950 ca        1 UXH     -0.122000
      6 C5         -0.0830   -0.0720    2.4590 ca        1 UXH     -0.053300
      7 C6         -0.6900   -0.0040    1.1460 ca        1 UXH      0.218800
      8 C7          2.2220    0.0520   -1.1660 ca        1 UXH      0.251300
      9 C8          3.6130   -0.0030   -0.9400 ca        1 UXH     -0.191600
     10 C9          4.2480   -0.0920    0.3520 ca        1 UXH      0.345600
     11 C10         3.3810   -0.0950    1.4820 ca        1 UXH     -0.144200
     12 N11         1.6980    0.1330   -2.4170 nv        1 UXH     -0.831200
     13 N13         5.5940   -0.1610    0.4800 nv        1 UXH     -0.822200
     14 C14        -2.1510    0.0120    1.1460 c         1 UXH      0.473600
     15 N15        -2.8410    0.0680   -0.2100 nz        1 UXH     -0.750400
     16 O16        -2.9260   -0.0120    2.0910 o         1 UXH     -0.432100
     17 C17         2.3370   -0.1580    3.5570 c         1 UXH      0.304800
     18 N18         3.6040   -0.2230    2.8820 n         1 UXH     -0.139300
     19 O19         2.1930   -0.1840    4.7800 o         1 UXH     -0.277000
     20 C20         4.8230    0.1290    3.5380 c3        1 UXH      0.009600
     21 H5         -0.7200   -0.1030    3.3580 ha        1 UXH      0.190000
     22 HN11        0.7200    0.1690   -2.5540 hn        1 UXH      0.454800
     23 HN1A        2.2920    0.1560   -3.2120 hn        1 UXH      0.454800
     24 HN13        6.0100   -0.2650    1.3740 hn        1 UXH      0.461300
     25 HN1B        6.1810   -0.1710   -0.3220 hn        1 UXH      0.461300
     26 HN15       -2.5700   -0.7480   -0.7660 hn        1 UXH      0.465467
     27 HN1C       -3.8590    0.0730   -0.0830 hn        1 UXH      0.465467
     28 H20         4.6230    0.2520    4.6390 h1        1 UXH      0.060367
     29 H20A        5.5710   -0.7010    3.4070 h1        1 UXH      0.060367
     30 H20B        5.2520    1.0870    3.1380 h1        1 UXH      0.060367
     31 H153       -2.5540    0.9150   -0.7070 hn        1 UXH      0.465467
@<TRIPOS>BOND
     1    1    3 ar  
     2    1    7 ar  
     3    2    9 1   
     4    3    4 ar  
     5    3    8 ar  
     6    4    5 ar  
     7    4   11 ar  
     8    5    6 ar  
     9    5   17 1   
    10    6    7 ar  
    11    6   21 1   
    12    7   14 1   
    13    8    9 ar  
    14    8   12 1   
    15    9   10 ar  
    16   10   11 ar  
    17   10   13 1   
    18   11   18 1   
    19   12   22 1   
    20   12   23 1   
    21   13   24 1   
    22   13   25 1   
    23   14   15 1   
    24   14   16 2   
    25   15   26 1   
    26   15   27 1   
    27   15   31 1   
    28   17   18 1   
    29   17   19 2   
    30   18   20 1   
    31   20   28 1   
    32   20   29 1   
    33   20   30 1   
@<TRIPOS>SUBSTRUCTURE
     1 UXH         1 TEMP              0 ****  ****    0 ROOT
