@<TRIPOS>MOLECULE
UXH
   33    35     1     0     0
SMALL
bcc


@<TRIPOS>ATOM
      1 N1          0.0030    0.1620   -0.1300 nb        1 UXH     -0.659000
      2 CL1         4.7270    0.2150   -2.2790 cl        1 UXH      0.040600
      3 C2          1.3790    0.1190   -0.0530 ca        1 UXH      0.487600
      4 C3          1.9920    0.0190    1.1960 ca        1 UXH     -0.187300
      5 C4          1.2540   -0.0240    2.4130 ca        1 UXH     -0.023000
      6 C5         -0.1160    0.0500    2.3530 ca        1 UXH     -0.090300
      7 C6         -0.6780    0.1430    1.0260 ca        1 UXH      0.407800
      8 C7          2.3000    0.1910   -1.1750 ca        1 UXH     -0.151700
      9 C8          3.6770    0.1360   -0.9510 ca        1 UXH      0.143400
     10 C9          4.2680    0.0200    0.3540 ca        1 UXH     -0.155400
     11 C10         3.4240   -0.0340    1.4790 ca        1 UXH      0.190800
     12 N11         1.7470    0.3420   -2.5150 n4        1 UXH     -0.691000
     13 N13         5.7180   -0.0280    0.4770 n4        1 UXH     -0.690000
     14 C14        -2.1700    0.3260    1.0080 c         1 UXH      0.430600
     15 N15        -2.9650   -0.4770    0.0240 n4        1 UXH     -0.742400
     16 O16        -2.7890    1.0640    1.7500 o         1 UXH     -0.304100
     17 C17         2.2790   -0.1210    3.5120 c         1 UXH      0.303800
     18 N18         3.5960   -0.1200    2.8320 n         1 UXH     -0.128300
     19 O19         2.1460   -0.1900    4.7160 o         1 UXH     -0.091000
     20 C20         4.8230   -0.1920    3.5750 c3        1 UXH     -0.032400
     21 H5         -0.7650    0.0590    3.2500 ha        1 UXH      0.235000
     22 HN11        1.1830   -0.4870   -2.7510 hn        1 UXH      0.486133
     23 HN1A        1.1470    1.1800   -2.5470 hn        1 UXH      0.486133
     24 HN13        6.0030   -0.1270    1.4630 hn        1 UXH      0.486133
     25 HN1B        6.1340    0.8390    0.1000 hn        1 UXH      0.486133
     26 HN15       -2.8160   -1.4840    0.1720 hn        1 UXH      0.492467
     27 HN1C       -2.7000   -0.2350   -0.9380 hn        1 UXH      0.492467
     28 H20         5.4440    0.7300    3.4060 h1        1 UXH      0.104367
     29 H20A        5.3930   -1.1240    3.3080 h1        1 UXH      0.104367
     30 H20B        4.5760   -0.2430    4.6790 h1        1 UXH      0.104367
     31 H113        2.4960    0.4450   -3.2200 hn        1 UXH      0.486133
     32 H133        6.0910   -0.8320   -0.0540 hn        1 UXH      0.486133
     33 H153       -3.9750   -0.2740    0.1480 hn        1 UXH      0.492467
@<TRIPOS>BOND
     1    1    3 ar  
     2    1    7 ar  
     3    2    9 1   
     4    3    4 ar  
     5    3    8 ar  
     6    4    5 ar  
     7    4   11 ar  
     8    5    6 ar  
     9    5   17 1   
    10    6    7 ar  
    11    6   21 1   
    12    7   14 1   
    13    8    9 ar  
    14    8   12 1   
    15    9   10 ar  
    16   10   11 ar  
    17   10   13 1   
    18   11   18 1   
    19   12   22 1   
    20   12   23 1   
    21   12   31 1   
    22   13   24 1   
    23   13   25 1   
    24   13   32 1   
    25   14   15 1   
    26   14   16 2   
    27   15   26 1   
    28   15   27 1   
    29   15   33 1   
    30   17   18 1   
    31   17   19 2   
    32   18   20 1   
    33   20   28 1   
    34   20   29 1   
    35   20   30 1   
@<TRIPOS>SUBSTRUCTURE
     1 UXH         1 TEMP              0 ****  ****    0 ROOT
