@<TRIPOS>MOLECULE
UXH
   31    33     1     0     0
SMALL
bcc


@<TRIPOS>ATOM
      1 N1         -0.0180    0.0440   -0.0350 nb        1 UXH     -0.613000
      2 CL1         4.6420   -0.0080   -2.3080 cl        1 UXH     -0.069400
      3 C2          1.3290    0.0140   -0.0000 ca        1 UXH      0.326600
      4 C3          2.0010   -0.0480    1.2490 ca        1 UXH     -0.086300
      5 C4          1.2780   -0.0830    2.4950 ca        1 UXH     -0.122000
      6 C5         -0.0830   -0.0490    2.4590 ca        1 UXH     -0.053300
      7 C6         -0.6900    0.0130    1.1450 ca        1 UXH      0.218800
      8 C7          2.2210    0.0350   -1.1680 ca        1 UXH      0.251300
      9 C8          3.6130   -0.0270   -0.9420 ca        1 UXH     -0.191600
     10 C9          4.2480   -0.1130    0.3510 ca        1 UXH      0.345600
     11 C10         3.3810   -0.1020    1.4800 ca        1 UXH     -0.144200
     12 N11         1.6980    0.1120   -2.4190 nh        1 UXH     -0.831200
     13 N13         5.5930   -0.1910    0.4780 nh        1 UXH     -0.822200
     14 C14        -2.1510    0.0400    1.1450 c         1 UXH      0.473600
     15 N15        -2.8400    0.0900   -0.2100 n4        1 UXH     -0.750400
     16 O16        -2.9260    0.0270    2.0910 o         1 UXH     -0.432100
     17 C17         2.3370   -0.1450    3.5560 c         1 UXH      0.304800
     18 N18         3.6030   -0.2230    2.8810 n         1 UXH     -0.139300
     19 O19         2.1930   -0.1620    4.7790 o         1 UXH     -0.277000
     20 C20         4.8250    0.1260    3.5350 c3        1 UXH      0.009600
     21 H5         -0.7200   -0.0700    3.3580 ha        1 UXH      0.190000
     22 HN11        2.2920    0.1260   -3.2150 hn        1 UXH      0.454800
     23 HN1A        0.7200    0.1540   -2.5560 hn        1 UXH      0.454800
     24 HN13        6.1790   -0.2100   -0.3240 hn        1 UXH      0.461300
     25 HN1B        6.0080   -0.2920    1.3740 hn        1 UXH      0.461300
     26 HN15       -2.5480    0.9320   -0.7140 hn        1 UXH      0.465467
     27 HN1C       -3.8580    0.1040   -0.0830 hn        1 UXH      0.465467
     28 H20         5.2600    1.0780    3.1280 h1        1 UXH      0.060367
     29 H20A        5.5660   -0.7100    3.4100 h1        1 UXH      0.060367
     30 H20B        4.6260    0.2570    4.6350 h1        1 UXH      0.060367
     31 H153       -2.5760   -0.7310   -0.7610 hn        1 UXH      0.465467
@<TRIPOS>BOND
     1    1    3 ar  
     2    1    7 ar  
     3    2    9 1   
     4    3    4 ar  
     5    3    8 ar  
     6    4    5 ar  
     7    4   11 ar  
     8    5    6 ar  
     9    5   17 1   
    10    6    7 ar  
    11    6   21 1   
    12    7   14 1   
    13    8    9 ar  
    14    8   12 1   
    15    9   10 ar  
    16   10   11 ar  
    17   10   13 1   
    18   11   18 1   
    19   12   22 1   
    20   12   23 1   
    21   13   24 1   
    22   13   25 1   
    23   14   15 1   
    24   14   16 2   
    25   15   26 1   
    26   15   27 1   
    27   15   31 1   
    28   17   18 1   
    29   17   19 2   
    30   18   20 1   
    31   20   28 1   
    32   20   29 1   
    33   20   30 1   
@<TRIPOS>SUBSTRUCTURE
     1 UXH         1 TEMP              0 ****  ****    0 ROOT
