@<TRIPOS>MOLECULE
UZ9
   85    88     1     0     0
SMALL
bcc


@<TRIPOS>ATOM
      1 C1          4.3950   -3.2150    4.5160 c3        1 UZ9     -0.123400
      2 C2          4.7660   -4.6490    4.8300 c3        1 UZ9     -0.186400
      3 C3          3.5350   -3.6800    5.4030 c         1 UZ9      0.272100
      4 C4          3.5830   -3.1560    6.9040 c3        1 UZ9     -0.182400
      5 C5          2.4030   -3.1370    5.9580 c3        1 UZ9     -0.081700
      6 C6          1.5130   -1.8770    6.2580 c3        1 UZ9     -0.070400
      7 N          -3.9250    6.3480   -9.6860 n3        1 UZ9     -0.888800
      8 CA         -4.3030    6.0830   -8.3440 c3        1 UZ9      0.019500
      9 CB         -3.2330    5.2280   -7.6740 c3        1 UZ9     -0.050400
     10 CG         -3.9070    4.0990   -6.8710 c3        1 UZ9     -0.095400
     11 CD         -2.8280    3.1480   -6.3150 c3        1 UZ9     -0.095400
     12 CE         -3.4230    2.3100   -5.1660 c3        1 UZ9      0.079000
     13 NZ         -2.3960    1.4610   -4.6060 n         1 UZ9     -0.557900
     14 C24        -2.5560    0.9150   -3.2780 c         1 UZ9      0.650100
     15 O2         -3.6110    1.0580   -2.6830 o         1 UZ9     -0.626100
     16 C23        -1.4250    0.0790   -2.6490 c3        1 UZ9     -0.157400
     17 C22        -1.4710    0.2240   -1.1090 c3        1 UZ9     -0.078400
     18 C20        -0.2660   -0.5140   -0.4850 c3        1 UZ9     -0.055700
     19 C21         0.9190   -0.4550   -1.4450 c3        1 UZ9     -0.092100
     20 C17         0.1030    0.1350    0.7950 c3        1 UZ9     -0.054700
     21 C16        -1.1920    0.4520    1.6220 c3        1 UZ9     -0.080400
     22 C13         0.9730   -0.8040    1.6200 c3        1 UZ9     -0.044000
     23 C12         2.4060   -0.5470    1.3610 c3        1 UZ9     -0.064400
     24 C18         0.6360   -2.2700    1.2670 c3        1 UZ9     -0.084100
     25 C14         0.6990   -0.5670    2.9940 c3        1 UZ9     -0.065700
     26 C15        -0.8420   -0.2370    3.1460 c3        1 UZ9     -0.073400
     27 C8          1.0530   -1.7680    3.7720 c3        1 UZ9     -0.044700
     28 C7          0.3980   -1.7020    5.1500 c3        1 UZ9     -0.076400
     29 C9          2.5270   -1.8190    3.9320 c3        1 UZ9     -0.066700
     30 C11         3.2960   -1.6390    2.3880 c3        1 UZ9     -0.074400
     31 C10         2.9030   -3.0840    4.5230 c3        1 UZ9      0.099000
     32 C19         2.2730   -4.2500    3.7080 c3        1 UZ9      0.047900
     33 O1          2.5080   -3.5620    4.7560 o         1 UZ9     -0.521100
     34 C          -4.4480    7.3880   -7.5940 c         1 UZ9      0.885600
     35 OXT        -5.5730    7.7270   -7.1280 o         1 UZ9     -0.845800
     36 O          -3.4570    8.1640   -7.4770 o         1 UZ9     -0.845800
     37 H1C1        4.7430   -2.9720    3.6290 hc        1 UZ9      0.051200
     38 H1C2        4.7820   -2.6180    5.1980 hc        1 UZ9      0.051200
     39 H2C1        4.7200   -5.4690    4.2910 hc        1 UZ9      0.093700
     40 H2C2        5.5360   -4.7230    5.4380 hc        1 UZ9      0.093700
     41 H4C1        4.1740   -2.4460    7.2450 hc        1 UZ9      0.099200
     42 H4C2        3.4910   -3.8410    7.6050 hc        1 UZ9      0.099200
     43 H5          1.8660   -3.9570    6.0870 hc        1 UZ9      0.068700
     44 H6C1        2.0820   -1.0750    6.2740 hc        1 UZ9      0.039200
     45 H6C2        1.0810   -1.9870    7.1370 hc        1 UZ9      0.039200
     46 HN1        -4.5880    6.0620  -10.2530 hn        1 UZ9      0.329300
     47 HN2        -3.7960    7.2490   -9.7960 hn        1 UZ9      0.329300
     48 HA         -5.1600    5.6020   -8.3340 h1        1 UZ9      0.042700
     49 HBC1       -2.6480    4.8370   -8.3610 hc        1 UZ9      0.024200
     50 HBC2       -2.6990    5.7870   -7.0680 hc        1 UZ9      0.024200
     51 HGC1       -4.5150    3.5970   -7.4580 hc        1 UZ9      0.066200
     52 HGC2       -4.4170    4.4870   -6.1250 hc        1 UZ9      0.066200
     53 HDC1       -2.5170    2.5490   -7.0310 hc        1 UZ9      0.033700
     54 HDC2       -2.0700    3.6750   -5.9760 hc        1 UZ9      0.033700
     55 HEC1       -3.7700    2.9090   -4.4680 h1        1 UZ9      0.063700
     56 HEC2       -4.1560    1.7520   -5.5130 h1        1 UZ9      0.063700
     57 HZ         -1.6620    1.2390   -5.1070 hn        1 UZ9      0.302500
     58 H231       -1.5420   -0.8670   -2.8930 hc        1 UZ9      0.063200
     59 H232       -0.5590    0.3980   -2.9820 hc        1 UZ9      0.063200
     60 H221       -2.3070   -0.1680   -0.7680 hc        1 UZ9      0.051700
     61 H222       -1.4330    1.1770   -0.8680 hc        1 UZ9      0.051700
     62 H20        -0.5060   -1.4510   -0.3200 hc        1 UZ9      0.051700
     63 H211        0.6890   -0.9230   -2.2800 hc        1 UZ9      0.034033
     64 H212        1.1330    0.4860   -1.6450 hc        1 UZ9      0.034033
     65 H213        1.6950   -0.8860   -1.0330 hc        1 UZ9      0.034033
     66 H17         0.5930    0.9690    0.6150 hc        1 UZ9      0.048700
     67 H161       -1.9770    0.0230    1.2180 hc        1 UZ9      0.046700
     68 H162       -1.3250    1.4240    1.7010 hc        1 UZ9      0.046700
     69 H121        2.6290    0.3870    1.5860 hc        1 UZ9      0.042200
     70 H122        2.6150   -0.7250    0.4180 hc        1 UZ9      0.042200
     71 H181        1.2620   -2.8680    1.7230 hc        1 UZ9      0.036700
     72 H182       -0.2840   -2.4740    1.5570 hc        1 UZ9      0.036700
     73 H183        0.7090   -2.3980    0.2960 hc        1 UZ9      0.036700
     74 H14         1.2330    0.1980    3.3090 hc        1 UZ9      0.045700
     75 H151       -1.3660   -1.0560    3.2900 hc        1 UZ9      0.040200
     76 H152       -0.9940    0.4130    3.8700 hc        1 UZ9      0.040200
     77 H8          0.7450   -2.5690    3.2980 hc        1 UZ9      0.062700
     78 H7C1       -0.2680   -2.4230    5.2340 hc        1 UZ9      0.041700
     79 H7C2       -0.0450   -0.8310    5.2630 hc        1 UZ9      0.041700
     80 H9          2.8140   -1.0860    4.5240 hc        1 UZ9      0.046700
     81 H111        4.2070   -1.2880    2.5200 hc        1 UZ9      0.042200
     82 H112        3.3510   -2.5170    1.9520 hc        1 UZ9      0.042200
     83 H191        1.2910   -4.1740    3.7320 hc        1 UZ9      0.030367
     84 H192        2.5460   -5.1120    4.1020 hc        1 UZ9      0.030367
     85 H193        2.5820   -4.2020    2.7750 hc        1 UZ9      0.030367
@<TRIPOS>BOND
     1    1    2 1   
     2    1   31 1   
     3    1   37 1   
     4    1   38 1   
     5    2    3 1   
     6    2   39 1   
     7    2   40 1   
     8    3    4 1   
     9    3   33 2   
    10    4    5 1   
    11    4   41 1   
    12    4   42 1   
    13    5    6 1   
    14    5   31 1   
    15    5   43 1   
    16    6   28 1   
    17    6   44 1   
    18    6   45 1   
    19    7    8 1   
    20    7   46 1   
    21    7   47 1   
    22    8    9 1   
    23    8   34 1   
    24    8   48 1   
    25    9   10 1   
    26    9   49 1   
    27    9   50 1   
    28   10   11 1   
    29   10   51 1   
    30   10   52 1   
    31   11   12 1   
    32   11   53 1   
    33   11   54 1   
    34   12   13 1   
    35   12   55 1   
    36   12   56 1   
    37   13   14 1   
    38   13   57 1   
    39   14   15 2   
    40   14   16 1   
    41   16   17 1   
    42   16   58 1   
    43   16   59 1   
    44   17   18 1   
    45   17   60 1   
    46   17   61 1   
    47   18   19 1   
    48   18   20 1   
    49   18   62 1   
    50   19   63 1   
    51   19   64 1   
    52   19   65 1   
    53   20   21 1   
    54   20   22 1   
    55   20   66 1   
    56   21   26 1   
    57   21   67 1   
    58   21   68 1   
    59   22   23 1   
    60   22   24 1   
    61   22   25 1   
    62   23   30 1   
    63   23   69 1   
    64   23   70 1   
    65   24   71 1   
    66   24   72 1   
    67   24   73 1   
    68   25   26 1   
    69   25   27 1   
    70   25   74 1   
    71   26   75 1   
    72   26   76 1   
    73   27   28 1   
    74   27   29 1   
    75   27   77 1   
    76   28   78 1   
    77   28   79 1   
    78   29   30 1   
    79   29   31 1   
    80   29   80 1   
    81   30   81 1   
    82   30   82 1   
    83   31   32 1   
    84   32   83 1   
    85   32   84 1   
    86   32   85 1   
    87   34   35 1   
    88   34   36 1   
@<TRIPOS>SUBSTRUCTURE
     1 UZ9         1 TEMP              0 ****  ****    0 ROOT
