@<TRIPOS>MOLECULE
UZ9
   87    90     1     0     0
SMALL
bcc


@<TRIPOS>ATOM
      1 C1          1.7340    0.4070   -0.4540 c3        1 UZ9     -0.070400
      2 C2          2.0520    1.5820    0.4390 c3        1 UZ9     -0.182400
      3 C3          1.4270    1.4160    1.7940 c         1 UZ9      0.569100
      4 C4         -0.0240    1.0340    1.7890 c3        1 UZ9     -0.181400
      5 C5         -0.3420   -0.1050    0.8310 c3        1 UZ9     -0.047700
      6 C6         -1.8460   -0.3380    0.7940 c3        1 UZ9     -0.074400
      7 N          -7.7510    3.8590  -13.3830 n4        1 UZ9     -0.829600
      8 CA         -6.9570    5.0030  -12.8280 c3        1 UZ9     -0.015500
      9 CB         -7.7940    6.2840  -12.7150 c3        1 UZ9     -0.082400
     10 CG         -7.3330    7.1870  -11.5810 c3        1 UZ9     -0.090400
     11 CD         -8.0850    6.9170  -10.2890 c3        1 UZ9     -0.111400
     12 CE         -7.2350    7.0910   -9.0350 c3        1 UZ9      0.117800
     13 NZ         -6.3430    5.9300   -8.7630 n4        1 UZ9     -0.701800
     14 C24        -5.7810    5.8860   -7.3690 c         1 UZ9      0.548100
     15 O2         -6.1300    6.7650   -6.5940 o         1 UZ9     -0.433100
     16 C23        -4.8480    4.7370   -7.1100 c3        1 UZ9     -0.155400
     17 C22        -4.2580    4.8350   -5.7160 c3        1 UZ9     -0.083400
     18 C20        -3.2940    3.6790   -5.4450 c3        1 UZ9     -0.051700
     19 C21        -1.9600    3.9690   -6.1060 c3        1 UZ9     -0.097100
     20 C17        -3.1460    3.4770   -3.9410 c3        1 UZ9     -0.058700
     21 C16        -4.4960    3.1520   -3.2640 c3        1 UZ9     -0.079400
     22 C13        -2.2160    2.3280   -3.4770 c3        1 UZ9     -0.044000
     23 C12        -0.7320    2.6550   -3.4040 c3        1 UZ9     -0.065400
     24 C18        -2.4490    1.0930   -4.3310 c3        1 UZ9     -0.085100
     25 C14        -2.6990    2.1440   -2.0150 c3        1 UZ9     -0.062700
     26 C15        -4.2160    2.1780   -2.1180 c3        1 UZ9     -0.073400
     27 C8         -2.0320    0.9640   -1.3380 c3        1 UZ9     -0.048700
     28 C7         -2.5910    0.7550    0.0600 c3        1 UZ9     -0.073400
     29 C9         -0.5210    1.2460   -1.2850 c3        1 UZ9     -0.046700
     30 C11         0.0350    1.5670   -2.6670 c3        1 UZ9     -0.075400
     31 C10         0.2350    0.1050   -0.5840 c3        1 UZ9     -0.039000
     32 C19         0.1270   -1.2040   -1.3630 c3        1 UZ9     -0.090100
     33 O1          2.0520    1.6140    2.8390 o         1 UZ9     -0.526100
     34 C          -6.4130    4.5860  -11.4270 c         1 UZ9      0.903600
     35 OXT        -7.2030    3.9630  -10.6610 o         1 UZ9     -0.799300
     36 O          -5.2490    4.9490  -11.1270 o         1 UZ9     -0.799300
     37 H1C1        2.1720    0.5840   -1.4710 hc        1 UZ9      0.050200
     38 H1C2        2.2370   -0.5080   -0.0370 hc        1 UZ9      0.050200
     39 H2C1        3.1650    1.6870    0.5440 hc        1 UZ9      0.069700
     40 H2C2        1.6650    2.5350   -0.0110 hc        1 UZ9      0.069700
     41 H4C1       -0.6100    1.9520    1.5130 hc        1 UZ9      0.070200
     42 H4C2       -0.3370    0.7360    2.8260 hc        1 UZ9      0.070200
     43 H5          0.1390   -1.0380    1.2470 hc        1 UZ9      0.056700
     44 H6C1       -2.2330   -0.4070    1.8450 hc        1 UZ9      0.046700
     45 H6C2       -2.0490   -1.3250    0.2990 hc        1 UZ9      0.046700
     46 HA         -6.0800    5.1840  -13.5160 hx        1 UZ9      0.119700
     47 HBC1       -7.7080    6.8460  -13.6830 hc        1 UZ9      0.062200
     48 HBC2       -8.8810    6.0420  -12.5660 hc        1 UZ9      0.062200
     49 HGC1       -7.5110    8.2530  -11.8880 hc        1 UZ9      0.074700
     50 HGC2       -6.2250    7.0780  -11.4350 hc        1 UZ9      0.074700
     51 HDC1       -8.5300    5.8830  -10.3050 hc        1 UZ9      0.083200
     52 HDC2       -8.9410    7.6410  -10.2010 hc        1 UZ9      0.083200
     53 HEC1       -6.5910    8.0120   -9.1170 hx        1 UZ9      0.102700
     54 HEC2       -7.9150    7.2180   -8.1420 hx        1 UZ9      0.102700
     55 HZ         -5.5500    5.9350   -9.4380 hn        1 UZ9      0.494300
     56 H231       -5.4210    3.7740   -7.2200 hc        1 UZ9      0.105700
     57 H232       -4.0310    4.7350   -7.8840 hc        1 UZ9      0.105700
     58 H221       -5.0950    4.8320   -4.9690 hc        1 UZ9      0.067200
     59 H222       -3.7160    5.8100   -5.6010 hc        1 UZ9      0.067200
     60 H20        -3.7270    2.7390   -5.8920 hc        1 UZ9      0.053700
     61 H211       -1.3790    4.7130   -5.5100 hc        1 UZ9      0.040700
     62 H212       -2.1060    4.3790   -7.1350 hc        1 UZ9      0.040700
     63 H213       -1.3540    3.0350   -6.1940 hc        1 UZ9      0.040700
     64 H17        -2.7450    4.4350   -3.5060 hc        1 UZ9      0.053700
     65 H161       -5.2030    2.6910   -3.9980 hc        1 UZ9      0.036700
     66 H162       -4.9650    4.0890   -2.8740 hc        1 UZ9      0.036700
     67 H121       -0.3030    2.7630   -4.4330 hc        1 UZ9      0.040700
     68 H122       -0.5940    3.6360   -2.8770 hc        1 UZ9      0.040700
     69 H181       -1.9120    0.2060   -3.9180 hc        1 UZ9      0.037033
     70 H182       -2.0740    1.2630   -5.3700 hc        1 UZ9      0.037033
     71 H183       -3.5390    0.8530   -4.3780 hc        1 UZ9      0.037033
     72 H14        -2.3900    3.0690   -1.4430 hc        1 UZ9      0.048700
     73 H151       -4.6250    1.1620   -2.3470 hc        1 UZ9      0.048200
     74 H152       -4.6800    2.5250   -1.1630 hc        1 UZ9      0.048200
     75 H8         -2.2230    0.0310   -1.9350 hc        1 UZ9      0.056700
     76 H7C1       -3.6770    0.4820   -0.0160 hc        1 UZ9      0.041700
     77 H7C2       -2.5320    1.7150    0.6370 hc        1 UZ9      0.041700
     78 H9         -0.3820    2.1700   -0.6500 hc        1 UZ9      0.046700
     79 H111        0.0490    0.6370   -3.2930 hc        1 UZ9      0.045200
     80 H112        1.0970    1.9140   -2.5590 hc        1 UZ9      0.045200
     81 H191       -0.9360   -1.4710   -1.5670 hc        1 UZ9      0.038033
     82 H192        0.5890   -2.0370   -0.7790 hc        1 UZ9      0.038033
     83 H193        0.6650   -1.1210   -2.3380 hc        1 UZ9      0.038033
     84 HN2        -8.3940    4.1720  -14.1100 hn        1 UZ9      0.458800
     85 H2         -8.2810    3.4410  -12.5990 hn        1 UZ9      0.458800
     86 HZ3        -6.8550    5.0430   -8.9520 hn        1 UZ9      0.494300
     87 HN1        -7.1150    3.1540  -13.7600 hn        1 UZ9      0.458800
@<TRIPOS>BOND
     1    1    2 1   
     2    1   31 1   
     3    1   37 1   
     4    1   38 1   
     5    2    3 1   
     6    2   39 1   
     7    2   40 1   
     8    3    4 1   
     9    3   33 2   
    10    4    5 1   
    11    4   41 1   
    12    4   42 1   
    13    5    6 1   
    14    5   31 1   
    15    5   43 1   
    16    6   28 1   
    17    6   44 1   
    18    6   45 1   
    19    7    8 1   
    20    7   84 1   
    21    7   85 1   
    22    7   87 1   
    23    8    9 1   
    24    8   34 1   
    25    8   46 1   
    26    9   10 1   
    27    9   47 1   
    28    9   48 1   
    29   10   11 1   
    30   10   49 1   
    31   10   50 1   
    32   11   12 1   
    33   11   51 1   
    34   11   52 1   
    35   12   13 1   
    36   12   53 1   
    37   12   54 1   
    38   13   14 1   
    39   13   55 1   
    40   13   86 1   
    41   14   15 2   
    42   14   16 1   
    43   16   17 1   
    44   16   56 1   
    45   16   57 1   
    46   17   18 1   
    47   17   58 1   
    48   17   59 1   
    49   18   19 1   
    50   18   20 1   
    51   18   60 1   
    52   19   61 1   
    53   19   62 1   
    54   19   63 1   
    55   20   21 1   
    56   20   22 1   
    57   20   64 1   
    58   21   26 1   
    59   21   65 1   
    60   21   66 1   
    61   22   23 1   
    62   22   24 1   
    63   22   25 1   
    64   23   30 1   
    65   23   67 1   
    66   23   68 1   
    67   24   69 1   
    68   24   70 1   
    69   24   71 1   
    70   25   26 1   
    71   25   27 1   
    72   25   72 1   
    73   26   73 1   
    74   26   74 1   
    75   27   28 1   
    76   27   29 1   
    77   27   75 1   
    78   28   76 1   
    79   28   77 1   
    80   29   30 1   
    81   29   31 1   
    82   29   78 1   
    83   30   79 1   
    84   30   80 1   
    85   31   32 1   
    86   32   81 1   
    87   32   82 1   
    88   32   83 1   
    89   34   35 1   
    90   34   36 1   
@<TRIPOS>SUBSTRUCTURE
     1 UZ9         1 TEMP              0 ****  ****    0 ROOT
