@<TRIPOS>MOLECULE
UZ9
   85    88     1     0     0
SMALL
bcc


@<TRIPOS>ATOM
      1 C1          2.0690   -0.3390   -7.3920 c3        1 UZ9     -0.069400
      2 C2          2.1930   -1.8420   -7.3040 c3        1 UZ9     -0.182400
      3 C3          1.0550   -2.5140   -8.0150 c         1 UZ9      0.572100
      4 C4         -0.3100   -2.0060   -7.6550 c3        1 UZ9     -0.181400
      5 C5         -0.4050   -0.4870   -7.6830 c3        1 UZ9     -0.045700
      6 C6         -1.7800   -0.0520   -7.1960 c3        1 UZ9     -0.073400
      7 N          -0.8810   -1.0300   10.9110 n3        1 UZ9     -0.891800
      8 CA          0.0220   -1.8290   10.0930 c3        1 UZ9      0.018500
      9 CB          0.5530   -1.0810    8.8700 c3        1 UZ9     -0.064400
     10 CG         -0.5370   -0.7460    7.8750 c3        1 UZ9     -0.073400
     11 CD          0.0520   -0.1500    6.6130 c3        1 UZ9     -0.099400
     12 CE         -1.0510    0.1430    5.5980 c3        1 UZ9      0.082000
     13 NZ         -0.5540    0.5760    4.3160 n         1 UZ9     -0.563900
     14 C24        -1.0800    1.6410    3.6240 c         1 UZ9      0.651100
     15 O2         -2.1120    2.2350    4.0020 o         1 UZ9     -0.621100
     16 C23        -0.3700    2.0670    2.3480 c3        1 UZ9     -0.157400
     17 C22        -0.4110    0.9810    1.2950 c3        1 UZ9     -0.077400
     18 C20         0.1430    1.4680   -0.0440 c3        1 UZ9     -0.056700
     19 C21         1.6580    1.4890    0.0150 c3        1 UZ9     -0.093100
     20 C17        -0.3650    0.5780   -1.1730 c3        1 UZ9     -0.053700
     21 C16        -1.9060    0.5750   -1.2580 c3        1 UZ9     -0.080400
     22 C13         0.0820    0.9420   -2.6120 c3        1 UZ9     -0.045000
     23 C12         1.4400    0.4140   -3.0450 c3        1 UZ9     -0.066400
     24 C18         0.0030    2.4450   -2.8140 c3        1 UZ9     -0.083100
     25 C14        -0.9750    0.1700   -3.4440 c3        1 UZ9     -0.065700
     26 C15        -2.2890    0.4610   -2.7350 c3        1 UZ9     -0.073400
     27 C8         -0.8560    0.4600   -4.9250 c3        1 UZ9     -0.047700
     28 C7         -1.9580   -0.2350   -5.7060 c3        1 UZ9     -0.074400
     29 C9          0.5280   -0.0240   -5.3900 c3        1 UZ9     -0.045700
     30 C11         1.6430    0.5800   -4.5440 c3        1 UZ9     -0.074400
     31 C10         0.7240    0.2100   -6.8970 c3        1 UZ9     -0.039000
     32 C19         0.7170    1.6990   -7.2390 c3        1 UZ9     -0.088100
     33 O1          1.2260   -3.4390   -8.8160 o         1 UZ9     -0.538100
     34 C           1.2470   -2.4220   10.8680 c         1 UZ9      0.887600
     35 OXT         1.3270   -2.2010   12.1110 o         1 UZ9     -0.844300
     36 O           2.0770   -3.1060   10.2090 o         1 UZ9     -0.844300
     37 H1C1        2.9040    0.1360   -6.8140 hc        1 UZ9      0.047200
     38 H1C2        2.1980   -0.0290   -8.4650 hc        1 UZ9      0.047200
     39 H2C1        2.1840   -2.1740   -6.2320 hc        1 UZ9      0.069700
     40 H2C2        3.1690   -2.1680   -7.7510 hc        1 UZ9      0.069700
     41 H4C1       -0.5520   -2.3920   -6.6280 hc        1 UZ9      0.070700
     42 H4C2       -1.0710   -2.4340   -8.3610 hc        1 UZ9      0.070700
     43 H5         -0.3040   -0.1660   -8.7600 hc        1 UZ9      0.048700
     44 H6C1       -2.5660   -0.6420   -7.7390 hc        1 UZ9      0.041700
     45 H6C2       -1.9330    1.0280   -7.4600 hc        1 UZ9      0.041700
     46 HA         -0.5780   -2.7140    9.7300 h1        1 UZ9      0.040700
     47 HBC1        1.3230   -1.7440    8.3900 hc        1 UZ9      0.046700
     48 HBC2        1.0730   -0.1400    9.1890 hc        1 UZ9      0.046700
     49 HGC1       -1.2640   -0.0250    8.3310 hc        1 UZ9      0.040700
     50 HGC2       -1.1090   -1.6770    7.6200 hc        1 UZ9      0.040700
     51 HDC1        0.7990   -0.8680    6.1810 hc        1 UZ9      0.038700
     52 HDC2        0.6030    0.7930    6.8640 hc        1 UZ9      0.038700
     53 HEC1       -1.7430    0.9320    6.0090 h1        1 UZ9      0.056700
     54 HEC2       -1.6590   -0.7960    5.4390 h1        1 UZ9      0.056700
     55 HZ          0.3110    0.1940    4.0170 hn        1 UZ9      0.303500
     56 H231        0.6890    2.3480    2.5890 hc        1 UZ9      0.065200
     57 H232       -0.8890    2.9880    1.9700 hc        1 UZ9      0.065200
     58 H221       -1.4750    0.6460    1.1730 hc        1 UZ9      0.050700
     59 H222        0.1800    0.0900    1.6330 hc        1 UZ9      0.050700
     60 H20        -0.2280    2.5180   -0.2200 hc        1 UZ9      0.051700
     61 H211        2.0700    0.4550   -0.0840 hc        1 UZ9      0.034367
     62 H212        2.0800    2.1190   -0.8040 hc        1 UZ9      0.034367
     63 H213        2.0060    1.9140    0.9880 hc        1 UZ9      0.034367
     64 H17        -0.0130   -0.4700   -0.9630 hc        1 UZ9      0.048700
     65 H161       -2.3210   -0.2850   -0.6780 hc        1 UZ9      0.047200
     66 H162       -2.3250    1.5160   -0.8220 hc        1 UZ9      0.047200
     67 H121        1.5220   -0.6710   -2.7710 hc        1 UZ9      0.043200
     68 H122        2.2600    0.9580   -2.5090 hc        1 UZ9      0.043200
     69 H181        0.1670    2.7240   -3.8820 hc        1 UZ9      0.035367
     70 H182       -0.9990    2.8260   -2.4990 hc        1 UZ9      0.035367
     71 H183        0.7870    2.9580   -2.2040 hc        1 UZ9      0.035367
     72 H14        -0.7680   -0.9330   -3.3060 hc        1 UZ9      0.045700
     73 H151       -3.0310   -0.3570   -2.9040 hc        1 UZ9      0.040700
     74 H152       -2.7420    1.4130   -3.1070 hc        1 UZ9      0.040700
     75 H8         -0.9480    1.5670   -5.0980 hc        1 UZ9      0.055700
     76 H7C1       -1.9700   -1.3280   -5.4510 hc        1 UZ9      0.042700
     77 H7C2       -2.9500    0.1860   -5.3920 hc        1 UZ9      0.042700
     78 H9          0.5580   -1.1410   -5.2240 hc        1 UZ9      0.043700
     79 H111        2.6140    0.0840   -4.8130 hc        1 UZ9      0.039200
     80 H112        1.7470    1.6710   -4.7810 hc        1 UZ9      0.039200
     81 H191        0.7490    1.8380   -8.3480 hc        1 UZ9      0.036700
     82 H192       -0.1990    2.2020   -6.8510 hc        1 UZ9      0.036700
     83 H193        1.6120    2.2020   -6.8000 hc        1 UZ9      0.036700
     84 HN1        -0.9850   -1.5090   11.7910 hn        1 UZ9      0.330800
     85 HN2        -0.4320   -0.1560   11.1210 hn        1 UZ9      0.330800
@<TRIPOS>BOND
     1    1    2 1   
     2    1   31 1   
     3    1   37 1   
     4    1   38 1   
     5    2    3 1   
     6    2   39 1   
     7    2   40 1   
     8    3    4 1   
     9    3   33 2   
    10    4    5 1   
    11    4   41 1   
    12    4   42 1   
    13    5    6 1   
    14    5   31 1   
    15    5   43 1   
    16    6   28 1   
    17    6   44 1   
    18    6   45 1   
    19    7    8 1   
    20    7   84 1   
    21    7   85 1   
    22    8    9 1   
    23    8   34 1   
    24    8   46 1   
    25    9   10 1   
    26    9   47 1   
    27    9   48 1   
    28   10   11 1   
    29   10   49 1   
    30   10   50 1   
    31   11   12 1   
    32   11   51 1   
    33   11   52 1   
    34   12   13 1   
    35   12   53 1   
    36   12   54 1   
    37   13   14 1   
    38   13   55 1   
    39   14   15 2   
    40   14   16 1   
    41   16   17 1   
    42   16   56 1   
    43   16   57 1   
    44   17   18 1   
    45   17   58 1   
    46   17   59 1   
    47   18   19 1   
    48   18   20 1   
    49   18   60 1   
    50   19   61 1   
    51   19   62 1   
    52   19   63 1   
    53   20   21 1   
    54   20   22 1   
    55   20   64 1   
    56   21   26 1   
    57   21   65 1   
    58   21   66 1   
    59   22   23 1   
    60   22   24 1   
    61   22   25 1   
    62   23   30 1   
    63   23   67 1   
    64   23   68 1   
    65   24   69 1   
    66   24   70 1   
    67   24   71 1   
    68   25   26 1   
    69   25   27 1   
    70   25   72 1   
    71   26   73 1   
    72   26   74 1   
    73   27   28 1   
    74   27   29 1   
    75   27   75 1   
    76   28   76 1   
    77   28   77 1   
    78   29   30 1   
    79   29   31 1   
    80   29   78 1   
    81   30   79 1   
    82   30   80 1   
    83   31   32 1   
    84   32   81 1   
    85   32   82 1   
    86   32   83 1   
    87   34   35 1   
    88   34   36 1   
@<TRIPOS>SUBSTRUCTURE
     1 UZ9         1 TEMP              0 ****  ****    0 ROOT
