@<TRIPOS>MOLECULE
UZR
   34    39     1     0     0
SMALL
bcc


@<TRIPOS>ATOM
      1 P           0.0000    0.0000    0.0000 p5        1 UZR      1.067500
      2 N1          5.8490    1.3230    2.7190 nx        1 UZR     -0.066000
      3 C2          6.9630    2.0770    2.6880 c2        1 UZR      0.226000
      4 O2          7.7370    1.9640    1.7580 o         1 UZR     -0.369000
      5 N3          7.2330    2.9540    3.6730 ns        1 UZR      0.086000
      6 C4          6.3840    3.0910    4.7120 c2        1 UZR      0.256000
      7 O4          6.6270    3.8850    5.6040 o         1 UZR     -0.386000
      8 C5          5.2070    2.3040    4.7560 c2        1 UZR     -0.263000
      9 C6          4.9620    1.4320    3.7550 c2        1 UZR     -0.103000
     10 C1'         5.5790    0.3820    1.6290 c3        1 UZR     -0.138000
     11 C2'         5.6110   -1.0770    2.1490 DU        1 UZR     -0.321000
     12 C3'         4.7230   -1.8100    1.1140 DU        1 UZR     -0.205000
     13 N3'         6.9770   -1.6080    2.1340 n2        1 UZR     -0.271000
     14 O3'         5.5310   -2.4460    0.1220 oh        1 UZR     -0.267000
     15 C4'         3.8750   -0.6880    0.4830 c3        1 UZR      0.065000
     16 N4'         7.1890   -2.6270    2.5600 n2        1 UZR      0.544000
     17 O4'         4.2280    0.5380    1.1450 os        1 UZR     -0.218000
     18 C5'         2.3880   -0.9810    0.6880 c3        1 UZR      0.184000
     19 N5'         7.3820   -3.6480    2.9890 n2        1 UZR     -0.355000
     20 O5'         1.6100    0.0000    0.0000 os        1 UZR     -0.625000
     21 H3          8.0650    3.5090    3.6380 hn        1 UZR      0.121000
     22 H5          4.5200    2.4080    5.5870 ha        1 UZR      0.148000
     23 H6          4.0680    0.8210    3.7570 hx        1 UZR      0.148000
     24 H1'         6.1830    1.1400    2.1150 DU        1 UZR      0.270000
     25 H2'         5.3730   -0.3260    2.8920 ha        1 UZR      0.176000
     26 H3'         4.5490   -1.0750    1.8910 DU        1 UZR      0.468000
     27 HO3'        5.1370   -3.2650   -0.1260 ho        1 UZR      0.192000
     28 H4'         4.3450   -0.8520    1.4450 DU        1 UZR     -0.137000
     29 H5'         2.2650   -2.0310    0.4520 h1        1 UZR      0.025000
     30 H5''        2.2170   -0.8820    1.7530 h1        1 UZR      0.025000
     31 HN5'        6.6270   -4.1800    3.3740 hn        1 UZR      0.057000
     32 OP1        -0.4940    0.0000    1.3950 o         1 UZR     -0.444167
     33 OP2        -0.5360    1.3150   -0.7590 o         1 UZR     -0.444167
     34 OP3        -0.5360   -1.3140   -0.7590 o         1 UZR     -0.444167
@<TRIPOS>BOND
     1    1   20 1   
     2    1   32 1   
     3    1   33 1   
     4    1   34 1   
     5    2    3 1   
     6    2    9 1   
     7    2   10 1   
     8    2   24 1   
     9    3    4 1   
    10    3    5 1   
    11    5    6 1   
    12    5   21 1   
    13    6    7 1   
    14    6    8 1   
    15    8    9 1   
    16    8   22 1   
    17    9   23 1   
    18   10   11 1   
    19   10   17 1   
    20   10   24 1   
    21   11   12 1   
    22   11   13 1   
    23   11   25 1   
    24   11   26 1   
    25   12   14 1   
    26   12   15 1   
    27   12   26 1   
    28   12   28 1   
    29   13   16 1   
    30   14   27 1   
    31   15   17 1   
    32   15   18 1   
    33   15   28 1   
    34   16   19 1   
    35   18   20 1   
    36   18   29 1   
    37   18   30 1   
    38   19   31 1   
    39   26   28 1   
@<TRIPOS>SUBSTRUCTURE
     1 UZR         1 TEMP              0 ****  ****    0 ROOT
