@<TRIPOS>MOLECULE
H02
   83    87     1     0     0
SMALL
bcc


@<TRIPOS>ATOM
      1 CBA        -6.8130   -3.3000    0.2000 c3        1 H02     -0.086100
      2 CAA        -5.8910   -2.8610   -0.9160 c3        1 H02      0.000900
      3 C3A        -4.5120   -2.6480   -0.4530 cc        1 H02     -0.142300
      4 C2A        -3.4720   -3.6320   -0.3980 cc        1 H02     -0.169300
      5 CMA        -3.5920   -5.0340   -0.7950 c3        1 H02     -0.006800
      6 C1A        -2.3050   -2.9870    0.0890 cd        1 H02     -0.028100
      7 CHA        -1.0120   -3.5700    0.3320 cf        1 H02     -0.191200
      8 NA         -2.6220   -1.6510    0.3250 na        1 H02     -0.147100
      9 C4A        -3.9590   -1.4240   -0.0050 cd        1 H02     -0.095100
     10 CHB        -4.6150   -0.1490    0.1310 cf        1 H02     -0.107200
     11 C1B        -4.0370    1.0650   -0.0010 cc        1 H02      0.068000
     12 NB         -2.6450    1.3200   -0.3260 na        1 H02     -0.476200
     13 CCB        -2.3100    0.9700   -1.6980 c3        1 H02      0.143100
     14 C2B        -4.6990    2.3600    0.3120 cc        1 H02     -0.123200
     15 CMB        -6.1310    2.4540    0.6050 c3        1 H02     -0.032900
     16 C3B        -3.7520    3.3460    0.2870 cd        1 H02     -0.063200
     17 CAB        -3.9220    4.7880    0.5390 c3        1 H02     -0.028200
     18 CBB        -3.5600    5.1710    1.9560 c3        1 H02     -0.090100
     19 C4B        -2.4400    2.7330   -0.0400 cd        1 H02     -0.003000
     20 CHC        -1.2430    3.3570    0.0440 ce        1 H02     -0.029200
     21 C1C         0.0550    2.7630   -0.0930 cc        1 H02     -0.149100
     22 NC          0.3550    1.4290    0.2010 na        1 H02     -0.159100
     23 C2C         1.2480    3.3990   -0.5230 cd        1 H02     -0.084300
     24 CMC         1.3730    4.7860   -0.9750 c3        1 H02     -0.061800
     25 C3C         2.2990    2.4260   -0.4630 cd        1 H02     -0.090300
     26 CAC         3.7000    2.6750   -0.8440 c3        1 H02     -0.014100
     27 CBC         4.4020    3.6560    0.0780 c3        1 H02     -0.190400
     28 CGC         5.0720    4.8200   -0.6700 c         1 H02      0.904600
     29 O1C         6.1390    5.2950   -0.1850 o         1 H02     -0.855800
     30 O2C         4.5190    5.2840   -1.7130 o         1 H02     -0.855800
     31 C4C         1.7210    1.2110    0.0010 cc        1 H02     -0.085100
     32 CHD         2.3800   -0.0490    0.2320 ce        1 H02     -0.088200
     33 C1D         1.7950   -1.2680    0.3030 cd        1 H02      0.048000
     34 ND          0.3780   -1.5150    0.1720 na        1 H02     -0.612800
     35 C4D         0.1760   -2.9220    0.3570 cc        1 H02      0.125000
     36 C3D         1.4910   -3.5400    0.6640 cc        1 H02     -0.121200
     37 CMD         1.6500   -4.9620    0.9740 c3        1 H02     -0.067900
     38 C2D         2.4560   -2.5660    0.6220 cd        1 H02     -0.024200
     39 CAD         3.8950   -2.7430    0.8850 c3        1 H02     -0.037200
     40 CBD         4.5750   -3.6690   -0.1080 c3        1 H02     -0.191400
     41 CGD         5.2620   -4.8760    0.5540 c         1 H02      0.905600
     42 O1D         6.2150   -5.4210   -0.0740 o         1 H02     -0.852300
     43 O2D         4.8370   -5.2960    1.6730 o         1 H02     -0.852300
     44 HBA1       -6.8530   -2.5230    1.0010 hc        1 H02      0.026700
     45 HBA2       -7.8460   -3.4610   -0.1930 hc        1 H02      0.026700
     46 HBA3       -6.4500   -4.2530    0.6530 hc        1 H02      0.026700
     47 HAA1       -5.8910   -3.6450   -1.7220 hc        1 H02      0.035200
     48 HAA2       -6.2880   -1.9130   -1.3700 hc        1 H02      0.035200
     49 HMA1       -3.4870   -5.1380   -1.9060 hc        1 H02      0.029033
     50 HMA2       -2.8010   -5.6600   -0.3110 hc        1 H02      0.029033
     51 HMA3       -4.5950   -5.4390   -0.5040 hc        1 H02      0.029033
     52 HHA        -1.0150   -4.6590    0.5080 ha        1 H02      0.147000
     53 HNA        -2.0220   -0.9780    0.7330 hn        1 H02      0.319700
     54 HHB        -5.6900   -0.2050    0.3720 ha        1 H02      0.131000
     55 HCB1       -2.4630   -0.1310   -1.8390 h1        1 H02      0.048033
     56 HCB2       -2.9380    1.5140   -2.4550 h1        1 H02      0.048033
     57 HCB3       -1.2350    1.2260   -1.8840 h1        1 H02      0.048033
     58 HMB1       -6.7290    1.9980   -0.2240 hc        1 H02      0.037367
     59 HMB2       -6.3690    1.9000    1.5490 hc        1 H02      0.037367
     60 HMB3       -6.4510    3.5180    0.7310 hc        1 H02      0.037367
     61 HAB1       -3.2760    5.3660   -0.1780 hc        1 H02      0.045200
     62 HAB2       -4.9880    5.0830    0.3360 hc        1 H02      0.045200
     63 HBB1       -4.2150    4.6400    2.6880 hc        1 H02      0.036700
     64 HBB2       -2.4980    4.9000    2.1740 hc        1 H02      0.036700
     65 HBB3       -3.6850    6.2710    2.0980 hc        1 H02      0.036700
     66 HHC        -1.2240    4.4460    0.2340 ha        1 H02      0.139000
     67 HNC        -0.2520    0.8270    0.6960 hn        1 H02      0.303700
     68 HMC1        1.0050    5.4890   -0.1860 hc        1 H02      0.057367
     69 HMC2        2.4500    5.0310   -1.2080 hc        1 H02      0.057367
     70 HMC3        0.7630    4.9540   -1.8980 hc        1 H02      0.057367
     71 HAC1        4.2650    1.7050   -0.8680 hc        1 H02      0.054200
     72 HAC2        3.7140    3.1000   -1.8890 hc        1 H02      0.054200
     73 HBC1        3.6710    4.1110    0.7940 hc        1 H02      0.030700
     74 HBC2        5.1790    3.1230    0.6820 hc        1 H02      0.030700
     75 HHD         3.4760    0.0260    0.3480 ha        1 H02      0.166000
     76 HND        -0.0130   -1.1590   -0.6790 hn        1 H02      0.396800
     77 HMD1        1.3690   -5.5870    0.0880 hc        1 H02      0.061033
     78 HMD2        2.7210   -5.1880    1.2480 hc        1 H02      0.061033
     79 HMD3        0.9880   -5.2520    1.8280 hc        1 H02      0.061033
     80 HAD1        4.4120   -1.7480    0.8920 hc        1 H02      0.064200
     81 HAD2        4.0110   -3.1920    1.9170 hc        1 H02      0.064200
     82 HBD1        3.8300   -4.0820   -0.8360 hc        1 H02      0.033700
     83 HBD2        5.3400   -3.1020   -0.6940 hc        1 H02      0.033700
@<TRIPOS>BOND
     1    1    2 1   
     2    1   44 1   
     3    1   45 1   
     4    1   46 1   
     5    2    3 1   
     6    2   47 1   
     7    2   48 1   
     8    3    4 1   
     9    3    9 2   
    10    4    5 1   
    11    4    6 2   
    12    5   49 1   
    13    5   50 1   
    14    5   51 1   
    15    6    7 1   
    16    6    8 1   
    17    7   35 2   
    18    7   52 1   
    19    8    9 1   
    20    8   53 1   
    21    9   10 1   
    22   10   11 2   
    23   10   54 1   
    24   11   12 1   
    25   11   14 1   
    26   12   13 1   
    27   12   19 1   
    28   13   55 1   
    29   13   56 1   
    30   13   57 1   
    31   14   15 1   
    32   14   16 2   
    33   15   58 1   
    34   15   59 1   
    35   15   60 1   
    36   16   17 1   
    37   16   19 1   
    38   17   18 1   
    39   17   61 1   
    40   17   62 1   
    41   18   63 1   
    42   18   64 1   
    43   18   65 1   
    44   19   20 2   
    45   20   21 1   
    46   20   66 1   
    47   21   22 1   
    48   21   23 2   
    49   22   31 1   
    50   22   67 1   
    51   23   24 1   
    52   23   25 1   
    53   24   68 1   
    54   24   69 1   
    55   24   70 1   
    56   25   26 1   
    57   25   31 2   
    58   26   27 1   
    59   26   71 1   
    60   26   72 1   
    61   27   28 1   
    62   27   73 1   
    63   27   74 1   
    64   28   29 1   
    65   28   30 1   
    66   31   32 1   
    67   32   33 2   
    68   32   75 1   
    69   33   34 1   
    70   33   38 1   
    71   34   35 1   
    72   34   76 1   
    73   35   36 1   
    74   36   37 1   
    75   36   38 2   
    76   37   77 1   
    77   37   78 1   
    78   37   79 1   
    79   38   39 1   
    80   39   40 1   
    81   39   80 1   
    82   39   81 1   
    83   40   41 1   
    84   40   82 1   
    85   40   83 1   
    86   41   42 1   
    87   41   43 1   
@<TRIPOS>SUBSTRUCTURE
     1 H02         1 TEMP              0 ****  ****    0 ROOT
