@<TRIPOS>MOLECULE
H02
   83    87     1     0     0
SMALL
bcc


@<TRIPOS>ATOM
      1 CBA         0.4940   -0.2440   -0.3970 c3        1 H02     -0.086100
      2 CAA         1.9630   -0.0030   -0.1320 c3        1 H02      0.000900
      3 C3A         2.2880   -0.0400    1.3010 cc        1 H02     -0.142300
      4 C2A         2.6580   -1.1980    2.0590 cc        1 H02     -0.169300
      5 CMA         2.7840   -2.5610    1.5420 c3        1 H02     -0.006800
      6 C1A         2.9030   -0.7730    3.3910 cd        1 H02     -0.028100
      7 CHA         3.2850   -1.5810    4.5180 cf        1 H02     -0.191200
      8 NA          2.6870    0.6020    3.4460 na        1 H02     -0.147100
      9 C4A         2.3190    1.0680    2.1820 cd        1 H02     -0.095100
     10 CHB         2.0110    2.4440    1.8910 cf        1 H02     -0.107200
     11 C1B         2.5490    3.5280    2.4910 cc        1 H02      0.068000
     12 NB          3.5600    3.5150    3.5340 na        1 H02     -0.476200
     13 CCB         4.8650    3.0860    3.0540 c3        1 H02      0.143100
     14 C2B         2.0900    4.9280    2.2890 cc        1 H02     -0.123200
     15 CMB         1.1250    5.2900    1.2480 c3        1 H02     -0.032900
     16 C3B         2.6980    5.7210    3.2220 cd        1 H02     -0.063200
     17 CAB         2.5550    7.1730    3.4250 c3        1 H02     -0.028200
     18 CBB         1.5680    7.5070    4.5200 c3        1 H02     -0.090100
     19 C4B         3.5740    4.8700    4.0670 cd        1 H02     -0.003000
     20 CHC         4.1760    5.2630    5.2130 ce        1 H02     -0.029200
     21 C1C         4.8840    4.4380    6.1460 cc        1 H02     -0.149100
     22 NC          4.6380    3.0770    6.3510 na        1 H02     -0.159100
     23 C2C         5.9260    4.8340    7.0250 cd        1 H02     -0.084300
     24 CMC         6.5270    6.1660    7.1040 c3        1 H02     -0.061800
     25 C3C         6.2980    3.6850    7.7950 cd        1 H02     -0.090300
     26 CAC         7.3600    3.6630    8.8160 c3        1 H02     -0.014100
     27 CBC         7.0340    4.5130   10.0320 c3        1 H02     -0.190400
     28 CGC         8.1410    5.5210   10.3830 c         1 H02      0.904600
     29 O1C         8.3180    5.7980   11.6040 o         1 H02     -0.855800
     30 O2C         8.8050    6.0620    9.4470 o         1 H02     -0.855800
     31 C4C         5.4760    2.6060    7.3660 cc        1 H02     -0.085100
     32 CHD         5.4730    1.2500    7.8520 ce        1 H02     -0.088200
     33 C1D         4.9830    0.1620    7.2140 cd        1 H02      0.048000
     34 ND          4.3510    0.1780    5.9150 na        1 H02     -0.612800
     35 C4D         3.9360   -1.1630    5.6300 cc        1 H02      0.125000
     36 C3D         4.2690   -2.0080    6.8040 cc        1 H02     -0.121200
     37 CMD         3.9290   -3.4300    6.8850 c3        1 H02     -0.067900
     38 C2D         4.9010   -1.2310    7.7410 cd        1 H02     -0.024200
     39 CAD         5.3840   -1.6670    9.0630 c3        1 H02     -0.037200
     40 CBD         6.4760   -2.7190    8.9830 c3        1 H02     -0.191400
     41 CGD         6.1240   -4.0210    9.7250 c         1 H02      0.905600
     42 O1D         7.0830   -4.7430   10.1210 o         1 H02     -0.852300
     43 O2D         4.9060   -4.3360    9.8820 o         1 H02     -0.852300
     44 HBA1        0.1850   -1.2410    0.0010 hc        1 H02      0.026700
     45 HBA2       -0.1270    0.5400    0.1000 hc        1 H02      0.026700
     46 HBA3        0.2900   -0.2190   -1.4950 hc        1 H02      0.026700
     47 HAA1        2.5670   -0.7860   -0.6660 hc        1 H02      0.035200
     48 HAA2        2.2560    0.9950   -0.5590 hc        1 H02      0.035200
     49 HMA1        1.9830   -2.7680    0.7880 hc        1 H02      0.029033
     50 HMA2        3.7760   -2.7010    1.0400 hc        1 H02      0.029033
     51 HMA3        2.7010   -3.3140    2.3650 hc        1 H02      0.029033
     52 HHA         3.0130   -2.6470    4.4440 ha        1 H02      0.147000
     53 HNA         2.7160    1.1590    4.2630 hn        1 H02      0.319700
     54 HHB         1.2550    2.5920    1.1010 ha        1 H02      0.131000
     55 HCB1        4.7870    2.0310    2.6870 h1        1 H02      0.048033
     56 HCB2        5.5960    3.1360    3.9030 h1        1 H02      0.048033
     57 HCB3        5.2540    3.7240    2.2160 h1        1 H02      0.048033
     58 HMB1        1.4810    4.9390    0.2470 hc        1 H02      0.037367
     59 HMB2        0.9720    6.3970    1.2030 hc        1 H02      0.037367
     60 HMB3        0.1360    4.8060    1.4530 hc        1 H02      0.037367
     61 HAB1        2.2220    7.6580    2.4660 hc        1 H02      0.045200
     62 HAB2        3.5580    7.6100    3.6850 hc        1 H02      0.045200
     63 HBB1        1.8880    7.0480    5.4870 hc        1 H02      0.036700
     64 HBB2        0.5520    7.1190    4.2670 hc        1 H02      0.036700
     65 HBB3        1.5040    8.6140    4.6530 hc        1 H02      0.036700
     66 HHC         4.1430    6.3330    5.4890 ha        1 H02      0.139000
     67 HNC         3.8420    2.6050    6.0060 hn        1 H02      0.303700
     68 HMC1        5.7440    6.9390    7.3070 hc        1 H02      0.057367
     69 HMC2        7.0280    6.4280    6.1380 hc        1 H02      0.057367
     70 HMC3        7.2980    6.2040    7.9280 hc        1 H02      0.057367
     71 HAC1        7.5600    2.6060    9.1350 hc        1 H02      0.054200
     72 HAC2        8.3090    4.0610    8.3510 hc        1 H02      0.054200
     73 HBC1        6.1020    5.1080    9.8540 hc        1 H02      0.030700
     74 HBC2        6.8520    3.8560   10.9190 hc        1 H02      0.030700
     75 HHD         5.9360    1.1220    8.8470 ha        1 H02      0.166000
     76 HND         4.9200    0.5870    5.1980 hn        1 H02      0.396800
     77 HMD1        2.8320   -3.5780    6.7250 hc        1 H02      0.061033
     78 HMD2        4.4760   -4.0070    6.0970 hc        1 H02      0.061033
     79 HMD3        4.2110   -3.8460    7.8960 hc        1 H02      0.061033
     80 HAD1        4.5100   -2.1120    9.6270 hc        1 H02      0.064200
     81 HAD2        5.7500   -0.7840    9.6520 hc        1 H02      0.064200
     82 HBD1        6.6760   -2.9990    7.9180 hc        1 H02      0.033700
     83 HBD2        7.4260   -2.3130    9.4110 hc        1 H02      0.033700
@<TRIPOS>BOND
     1    1    2 1   
     2    1   44 1   
     3    1   45 1   
     4    1   46 1   
     5    2    3 1   
     6    2   47 1   
     7    2   48 1   
     8    3    4 1   
     9    3    9 2   
    10    4    5 1   
    11    4    6 2   
    12    5   49 1   
    13    5   50 1   
    14    5   51 1   
    15    6    7 1   
    16    6    8 1   
    17    7   35 2   
    18    7   52 1   
    19    8    9 1   
    20    8   53 1   
    21    9   10 1   
    22   10   11 2   
    23   10   54 1   
    24   11   12 1   
    25   11   14 1   
    26   12   13 1   
    27   12   19 1   
    28   13   55 1   
    29   13   56 1   
    30   13   57 1   
    31   14   15 1   
    32   14   16 2   
    33   15   58 1   
    34   15   59 1   
    35   15   60 1   
    36   16   17 1   
    37   16   19 1   
    38   17   18 1   
    39   17   61 1   
    40   17   62 1   
    41   18   63 1   
    42   18   64 1   
    43   18   65 1   
    44   19   20 2   
    45   20   21 1   
    46   20   66 1   
    47   21   22 1   
    48   21   23 2   
    49   22   31 1   
    50   22   67 1   
    51   23   24 1   
    52   23   25 1   
    53   24   68 1   
    54   24   69 1   
    55   24   70 1   
    56   25   26 1   
    57   25   31 2   
    58   26   27 1   
    59   26   71 1   
    60   26   72 1   
    61   27   28 1   
    62   27   73 1   
    63   27   74 1   
    64   28   29 1   
    65   28   30 1   
    66   31   32 1   
    67   32   33 2   
    68   32   75 1   
    69   33   34 1   
    70   33   38 1   
    71   34   35 1   
    72   34   76 1   
    73   35   36 1   
    74   36   37 1   
    75   36   38 2   
    76   37   77 1   
    77   37   78 1   
    78   37   79 1   
    79   38   39 1   
    80   39   40 1   
    81   39   80 1   
    82   39   81 1   
    83   40   41 1   
    84   40   82 1   
    85   40   83 1   
    86   41   42 1   
    87   41   43 1   
@<TRIPOS>SUBSTRUCTURE
     1 H02         1 TEMP              0 ****  ****    0 ROOT
