@<TRIPOS>MOLECULE
H02
   83    75     1     0     0
SMALL
bcc


@<TRIPOS>ATOM
      1 CBA        -0.7340    2.9180   -6.1800 c3        1 H02     -0.208000
      2 CAA        -1.4880    2.0900   -5.1610 c3        1 H02     -0.100000
      3 C3A        -0.7840    2.1710   -3.8240 c2        1 H02     -0.120000
      4 C2A        -0.9100    3.1720   -2.9140 c1        1 H02     -0.049000
      5 CMA        -1.7820    4.4010   -3.0590 c2        1 H02     -0.178500
      6 C1A        -0.0480    2.9100   -1.8730 c1        1 H02     -0.072000
      7 CHA         0.2020    3.8030   -0.6810 c1        1 H02     -0.062000
      8 NA          0.5700    1.7200   -2.1260 n2        1 H02     -0.218000
      9 C4A         0.1630    1.2870   -3.3530 c1        1 H02      0.029000
     10 CHB         0.7280    0.1020   -4.1100 c1        1 H02     -0.171000
     11 C1B         0.8610   -1.2460   -3.4220 c1        1 H02     -0.056000
     12 NB         -0.2520   -2.0270   -2.7870 n2        1 H02     -0.109000
     13 CCB        -1.5530   -2.2230   -3.3310 c3        1 H02     -0.072000
     14 C2B         2.0490   -1.7610   -2.7900 c2        1 H02     -0.136000
     15 CMB         3.2810   -0.8910   -2.6710 c3        1 H02     -0.133000
     16 C3B         1.8480   -2.5920   -2.0070 c1        1 H02     -0.155000
     17 CAB         2.9110   -3.6270   -1.7120 c3        1 H02     -0.085000
     18 CBB         3.1460   -4.4740   -2.9440 c3        1 H02     -0.202000
     19 C4B         0.4380   -2.9270   -1.8400 c1        1 H02     -0.002000
     20 CHC        -0.1820   -3.5920   -0.6300 c1        1 H02     -0.219000
     21 C1C        -0.3320   -2.8200    0.6640 c1        1 H02      0.021000
     22 NC          0.4590   -1.7900    1.0800 n2        1 H02     -0.247000
     23 C2C        -1.2580   -3.0870    1.6790 c1        1 H02     -0.068500
     24 CMC        -2.1250   -4.3230    1.7650 c2        1 H02     -0.178500
     25 C3C        -1.0450   -2.2070    2.6900 c1        1 H02     -0.068500
     26 CAC        -1.7630   -2.1910    4.0210 c2        1 H02     -0.117000
     27 CBC        -1.2280   -3.3020    4.8970 c3        1 H02     -0.222000
     28 CGC        -2.1520   -3.5040    6.0770 c2        1 H02      0.324000
     29 O1C        -1.9510   -2.8740    7.1480 o         1 H02     -0.587000
     30 O2C        -3.1060   -4.3210    5.9970 o         1 H02     -0.587000
     31 C4C         0.0100   -1.3810    2.3220 c1        1 H02      0.021000
     32 CHD         0.5120   -0.1800    3.0970 c1        1 H02     -0.115000
     33 C1D         0.6620    1.1550    2.4060 c1        1 H02     -0.045000
     34 ND          1.2120    1.3940    0.8730 n3        1 H02     -0.169000
     35 C4D         0.6750    3.2070    0.6220 c2        1 H02     -0.112000
     36 C3D         0.0690    3.4310    1.9040 c2        1 H02     -0.071000
     37 CMD        -0.8620    4.6070    2.1060 c3        1 H02     -0.188000
     38 C2D         0.0650    2.3770    2.8130 c1        1 H02     -0.083000
     39 CAD        -0.1840    2.6450    4.2820 c3        1 H02     -0.100000
     40 CBD         1.0380    3.2990    4.8890 c3        1 H02     -0.219000
     41 CGD         0.7610    3.6360    6.3380 c2        1 H02      0.324000
     42 O1D         0.2790    4.7590    6.6420 o         1 H02     -0.591500
     43 O2D         0.9960    2.7880    7.2380 o         1 H02     -0.591500
     44 HBA1       -1.3550    3.5290   -6.6300 hc        1 H02      0.072333
     45 HBA2       -0.3220    2.3240   -6.8430 hc        1 H02      0.072333
     46 HBA3       -0.0360    3.4370   -5.7270 hc        1 H02      0.072333
     47 HAA1       -1.5200    1.1590   -5.4570 hc        1 H02      0.080500
     48 HAA2       -2.4000    2.4360   -5.0710 hc        1 H02      0.080500
     49 HMA1       -1.8890    4.6160   -4.0100 ha        1 H02      0.092333
     50 HMA2       -1.3610    5.1570   -2.5990 ha        1 H02      0.092333
     51 HMA3       -2.6620    4.2260   -2.6630 ha        1 H02      0.092333
     52 HHA         0.0360    4.7620   -0.7470 ha        1 H02      0.140000
     53 HNA         1.1720    1.3020   -1.5820 DU        1 H02      0.209000
     54 HHB         0.9890    0.2000   -5.0450 ha        1 H02      0.133000
     55 HCB1       -2.1910   -1.6340   -2.8740 h1        1 H02      0.094000
     56 HCB2       -1.5420   -2.0120   -4.2900 h1        1 H02      0.094000
     57 HCB3       -1.8230   -3.1580   -3.2050 h1        1 H02      0.094000
     58 HMB1        3.4330   -0.6670   -1.7280 hc        1 H02      0.066667
     59 HMB2        3.1500   -0.0670   -3.1850 hc        1 H02      0.066667
     60 HMB3        4.0580   -1.3750   -3.0210 hc        1 H02      0.066667
     61 HAB1        3.7430   -3.1780   -1.4620 hc        1 H02      0.081000
     62 HAB2        2.6150   -4.1980   -0.9760 hc        1 H02      0.081000
     63 HBB1        2.2910   -4.8350   -3.2590 hc        1 H02      0.064000
     64 HBB2        3.5470   -3.9220   -3.6480 hc        1 H02      0.064000
     65 HBB3        3.7510   -5.2120   -2.7220 hc        1 H02      0.064000
     66 HHC        -0.4740   -4.5220   -0.6800 ha        1 H02      0.145000
     67 HNC         1.1800   -1.4550    0.6320 DU        1 H02      0.209000
     68 HMC1       -2.4000   -4.5930    0.8640 ha        1 H02      0.092333
     69 HMC2       -2.9200   -4.1270    2.3040 ha        1 H02      0.092333
     70 HMC3       -1.6180   -5.0500    2.1840 ha        1 H02      0.092333
     71 HAC1       -2.7220   -2.3230    3.8760 ha        1 H02      0.101500
     72 HAC2       -1.6160   -1.3290    4.4610 ha        1 H02      0.101500
     73 HBC1       -1.1760   -4.1300    4.3780 hc        1 H02      0.073500
     74 HBC2       -0.3360   -3.0630    5.2190 hc        1 H02      0.073500
     75 HHD         0.7060   -0.2610    4.0500 ha        1 H02      0.163000
     76 HND         1.9590    1.0110    0.5160 hn        1 H02      0.249000
     77 HMD1       -0.6960    5.2780    1.4110 hc        1 H02      0.097667
     78 HMD2       -1.7910    4.3010    2.0500 hc        1 H02      0.097667
     79 HMD3       -0.7010    5.0030    2.9880 hc        1 H02      0.097667
     80 HAD1       -0.3640    1.8000    4.7410 hc        1 H02      0.093500
     81 HAD2       -0.9540    3.2390    4.3790 hc        1 H02      0.093500
     82 HBD1        1.7970    2.6840    4.8370 hc        1 H02      0.070000
     83 HBD2        1.2470    4.1180    4.3980 hc        1 H02      0.070000
@<TRIPOS>BOND
     1    1    2 1   
     2    1   44 1   
     3    1   45 1   
     4    1   46 1   
     5    2    3 1   
     6    2   47 1   
     7    2   48 1   
     8    3    4 1   
     9    3    9 1   
    10    4    6 1   
    11    5   49 1   
    12    5   50 1   
    13    5   51 1   
    14    6    8 1   
    15    7   35 1   
    16    7   52 1   
    17    8    9 1   
    18   10   11 1   
    19   10   54 1   
    20   11   14 1   
    21   12   13 1   
    22   12   19 1   
    23   13   55 1   
    24   13   56 1   
    25   13   57 1   
    26   14   15 1   
    27   14   16 1   
    28   15   58 1   
    29   15   59 1   
    30   15   60 1   
    31   16   17 1   
    32   17   18 1   
    33   17   61 1   
    34   17   62 1   
    35   18   63 1   
    36   18   64 1   
    37   18   65 1   
    38   19   20 1   
    39   20   66 1   
    40   21   22 1   
    41   21   23 1   
    42   22   31 1   
    43   23   25 1   
    44   24   68 1   
    45   24   69 1   
    46   24   70 1   
    47   25   31 1   
    48   26   27 1   
    49   26   71 1   
    50   26   72 1   
    51   27   28 1   
    52   27   73 1   
    53   27   74 1   
    54   28   29 1   
    55   28   30 1   
    56   32   33 1   
    57   32   75 1   
    58   33   34 1   
    59   34   35 1   
    60   34   76 1   
    61   35   36 1   
    62   36   37 1   
    63   36   38 1   
    64   37   77 1   
    65   37   78 1   
    66   37   79 1   
    67   38   39 1   
    68   39   40 1   
    69   39   80 1   
    70   39   81 1   
    71   40   41 1   
    72   40   82 1   
    73   40   83 1   
    74   41   42 1   
    75   41   43 1   
@<TRIPOS>SUBSTRUCTURE
     1 H02         1 TEMP              0 ****  ****    0 ROOT
