@<TRIPOS>MOLECULE
H02
   83    87     1     0     0
SMALL
bcc


@<TRIPOS>ATOM
      1 CBA         0.5080   -0.2290   -0.4120 c3        1 H02     -0.086100
      2 CAA         1.9760    0.0130   -0.1430 c3        1 H02      0.000900
      3 C3A         2.2980   -0.0290    1.2910 cc        1 H02     -0.142300
      4 C2A         2.6690   -1.1900    2.0450 cc        1 H02     -0.169300
      5 CMA         2.7970   -2.5500    1.5230 c3        1 H02     -0.006800
      6 C1A         2.9110   -0.7680    3.3790 cd        1 H02     -0.028100
      7 CHA         3.2920   -1.5800    4.5040 cf        1 H02     -0.191200
      8 NA          2.6930    0.6060    3.4390 na        1 H02     -0.147100
      9 C4A         2.3260    1.0760    2.1750 cd        1 H02     -0.095100
     10 CHB         2.0170    2.4520    1.8890 cf        1 H02     -0.107200
     11 C1B         2.5520    3.5350    2.4940 cc        1 H02      0.068000
     12 NB          3.5610    3.5200    3.5390 na        1 H02     -0.476200
     13 CCB         4.8670    3.0950    3.0600 c3        1 H02      0.143100
     14 C2B         2.0910    4.9350    2.2960 cc        1 H02     -0.123200
     15 CMB         1.1280    5.2990    1.2540 c3        1 H02     -0.032900
     16 C3B         2.6960    5.7260    3.2330 cd        1 H02     -0.063200
     17 CAB         2.5500    7.1770    3.4400 c3        1 H02     -0.028200
     18 CBB         1.5600    7.5050    4.5350 c3        1 H02     -0.090100
     19 C4B         3.5720    4.8730    4.0770 cd        1 H02     -0.003000
     20 CHC         4.1700    5.2630    5.2250 ce        1 H02     -0.029200
     21 C1C         4.8780    4.4350    6.1570 cc        1 H02     -0.149100
     22 NC          4.6340    3.0730    6.3560 na        1 H02     -0.159100
     23 C2C         5.9170    4.8300    7.0400 cd        1 H02     -0.084300
     24 CMC         6.5160    6.1630    7.1250 c3        1 H02     -0.061800
     25 C3C         6.2900    3.6790    7.8060 cd        1 H02     -0.090300
     26 CAC         7.3490    3.6550    8.8300 c3        1 H02     -0.014100
     27 CBC         7.0190    4.5000   10.0480 c3        1 H02     -0.190400
     28 CGC         8.1230    5.5090   10.4060 c         1 H02      0.904600
     29 O1C         8.2970    5.7820   11.6280 o         1 H02     -0.855800
     30 O2C         8.7880    6.0540    9.4730 o         1 H02     -0.855800
     31 C4C         5.4700    2.6000    7.3720 cc        1 H02     -0.085100
     32 CHD         5.4680    1.2420    7.8520 ce        1 H02     -0.088200
     33 C1D         4.9810    0.1550    7.2090 cd        1 H02      0.048000
     34 ND          4.3520    0.1760    5.9090 na        1 H02     -0.612800
     35 C4D         3.9400   -1.1650    5.6180 cc        1 H02      0.125000
     36 C3D         4.2720   -2.0140    6.7900 cc        1 H02     -0.121200
     37 CMD         3.9340   -3.4370    6.8650 c3        1 H02     -0.067900
     38 C2D         4.9010   -1.2390    7.7310 cd        1 H02     -0.024200
     39 CAD         5.3820   -1.6790    9.0530 c3        1 H02     -0.037200
     40 CBD         6.4760   -2.7290    8.9710 c3        1 H02     -0.191400
     41 CGD         6.1250   -4.0350    9.7070 c         1 H02      0.905600
     42 O1D         7.0850   -4.7560   10.1020 o         1 H02     -0.852300
     43 O2D         4.9070   -4.3520    9.8600 o         1 H02     -0.852300
     44 HBA1        0.1990   -1.2280   -0.0180 hc        1 H02      0.026700
     45 HBA2       -0.1140    0.5520    0.0860 hc        1 H02      0.026700
     46 HBA3        0.3060   -0.2000   -1.5100 hc        1 H02      0.026700
     47 HAA1        2.5830   -0.7680   -0.6790 hc        1 H02      0.035200
     48 HAA2        2.2690    1.0120   -0.5660 hc        1 H02      0.035200
     49 HMA1        1.9980   -2.7560    0.7670 hc        1 H02      0.029033
     50 HMA2        3.7900   -2.6870    1.0220 hc        1 H02      0.029033
     51 HMA3        2.7160   -3.3060    2.3440 hc        1 H02      0.029033
     52 HHA         3.0220   -2.6460    4.4250 ha        1 H02      0.147000
     53 HNA         2.7200    1.1600    4.2580 hn        1 H02      0.319700
     54 HHB         1.2620    2.6020    1.0980 ha        1 H02      0.131000
     55 HCB1        5.5960    3.1420    3.9110 h1        1 H02      0.048033
     56 HCB2        5.2580    3.7370    2.2250 h1        1 H02      0.048033
     57 HCB3        4.7920    2.0410    2.6890 h1        1 H02      0.048033
     58 HMB1        1.4870    4.9520    0.2530 hc        1 H02      0.037367
     59 HMB2        0.9740    6.4060    1.2130 hc        1 H02      0.037367
     60 HMB3        0.1390    4.8130    1.4550 hc        1 H02      0.037367
     61 HAB1        2.2190    7.6640    2.4830 hc        1 H02      0.045200
     62 HAB2        3.5530    7.6140    3.7040 hc        1 H02      0.045200
     63 HBB1        1.8790    7.0440    5.5010 hc        1 H02      0.036700
     64 HBB2        0.5460    7.1170    4.2780 hc        1 H02      0.036700
     65 HBB3        1.4950    8.6110    4.6710 hc        1 H02      0.036700
     66 HHC         4.1360    6.3320    5.5050 ha        1 H02      0.139000
     67 HNC         3.8390    2.6020    6.0080 hn        1 H02      0.303700
     68 HMC1        5.7310    6.9340    7.3290 hc        1 H02      0.057367
     69 HMC2        7.0190    6.4290    6.1610 hc        1 H02      0.057367
     70 HMC3        7.2850    6.1990    7.9510 hc        1 H02      0.057367
     71 HAC1        7.5500    2.5970    9.1450 hc        1 H02      0.054200
     72 HAC2        8.2980    4.0570    8.3680 hc        1 H02      0.054200
     73 HBC1        6.0860    5.0940    9.8700 hc        1 H02      0.030700
     74 HBC2        6.8350    3.8390   10.9320 hc        1 H02      0.030700
     75 HHD         5.9300    1.1120    8.8480 ha        1 H02      0.166000
     76 HND         4.9220    0.5880    5.1950 hn        1 H02      0.396800
     77 HMD1        2.8370   -3.5860    6.7030 hc        1 H02      0.061033
     78 HMD2        4.4840   -4.0100    6.0760 hc        1 H02      0.061033
     79 HMD3        4.2150   -3.8560    7.8750 hc        1 H02      0.061033
     80 HAD1        4.5080   -2.1280    9.6130 hc        1 H02      0.064200
     81 HAD2        5.7450   -0.7980    9.6450 hc        1 H02      0.064200
     82 HBD1        6.6790   -3.0050    7.9050 hc        1 H02      0.033700
     83 HBD2        7.4250   -2.3230    9.4020 hc        1 H02      0.033700
@<TRIPOS>BOND
     1    1    2 1   
     2    1   44 1   
     3    1   45 1   
     4    1   46 1   
     5    2    3 1   
     6    2   47 1   
     7    2   48 1   
     8    3    4 1   
     9    3    9 2   
    10    4    5 1   
    11    4    6 2   
    12    5   49 1   
    13    5   50 1   
    14    5   51 1   
    15    6    7 1   
    16    6    8 1   
    17    7   35 2   
    18    7   52 1   
    19    8    9 1   
    20    8   53 1   
    21    9   10 1   
    22   10   11 2   
    23   10   54 1   
    24   11   12 1   
    25   11   14 1   
    26   12   13 1   
    27   12   19 1   
    28   13   55 1   
    29   13   56 1   
    30   13   57 1   
    31   14   15 1   
    32   14   16 2   
    33   15   58 1   
    34   15   59 1   
    35   15   60 1   
    36   16   17 1   
    37   16   19 1   
    38   17   18 1   
    39   17   61 1   
    40   17   62 1   
    41   18   63 1   
    42   18   64 1   
    43   18   65 1   
    44   19   20 2   
    45   20   21 1   
    46   20   66 1   
    47   21   22 1   
    48   21   23 2   
    49   22   31 1   
    50   22   67 1   
    51   23   24 1   
    52   23   25 1   
    53   24   68 1   
    54   24   69 1   
    55   24   70 1   
    56   25   26 1   
    57   25   31 2   
    58   26   27 1   
    59   26   71 1   
    60   26   72 1   
    61   27   28 1   
    62   27   73 1   
    63   27   74 1   
    64   28   29 1   
    65   28   30 1   
    66   31   32 1   
    67   32   33 2   
    68   32   75 1   
    69   33   34 1   
    70   33   38 1   
    71   34   35 1   
    72   34   76 1   
    73   35   36 1   
    74   36   37 1   
    75   36   38 2   
    76   37   77 1   
    77   37   78 1   
    78   37   79 1   
    79   38   39 1   
    80   39   40 1   
    81   39   80 1   
    82   39   81 1   
    83   40   41 1   
    84   40   82 1   
    85   40   83 1   
    86   41   42 1   
    87   41   43 1   
@<TRIPOS>SUBSTRUCTURE
     1 H02         1 TEMP              0 ****  ****    0 ROOT
