@<TRIPOS>MOLECULE
H02
   83    87     1     0     0
SMALL
bcc


@<TRIPOS>ATOM
      1 CBA         0.5470   -0.2370   -0.4340 c3        1 H02     -0.086100
      2 CAA         2.0130    0.0030   -0.1540 c3        1 H02      0.000900
      3 C3A         2.3240   -0.0360    1.2820 cc        1 H02     -0.142300
      4 C2A         2.6860   -1.1950    2.0430 cc        1 H02     -0.169300
      5 CMA         2.8140   -2.5580    1.5260 c3        1 H02     -0.006800
      6 C1A         2.9180   -0.7700    3.3770 cd        1 H02     -0.028100
      7 CHA         3.2870   -1.5800    4.5080 cf        1 H02     -0.191200
      8 NA          2.7040    0.6050    3.4310 na        1 H02     -0.147100
      9 C4A         2.3480    1.0720    2.1630 cd        1 H02     -0.095100
     10 CHB         2.0450    2.4480    1.8700 cf        1 H02     -0.107200
     11 C1B         2.5790    3.5310    2.4770 cc        1 H02      0.068000
     12 NB          3.5790    3.5160    3.5300 na        1 H02     -0.476200
     13 CCB         4.8880    3.0870    3.0630 c3        1 H02      0.143100
     14 C2B         2.1230    4.9320    2.2700 cc        1 H02     -0.123200
     15 CMB         1.1700    5.2960    1.2200 c3        1 H02     -0.032900
     16 C3B         2.7230    5.7240    3.2100 cd        1 H02     -0.063200
     17 CAB         2.5800    7.1760    3.4120 c3        1 H02     -0.028200
     18 CBB         1.5820    7.5110    4.4970 c3        1 H02     -0.090100
     19 C4B         3.5890    4.8710    4.0630 cd        1 H02     -0.003000
     20 CHC         4.1790    5.2630    5.2150 ce        1 H02     -0.029200
     21 C1C         4.8770    4.4360    6.1560 cc        1 H02     -0.149100
     22 NC          4.6270    3.0750    6.3570 na        1 H02     -0.159100
     23 C2C         5.9090    4.8310    7.0460 cd        1 H02     -0.084300
     24 CMC         6.5110    6.1630    7.1320 c3        1 H02     -0.061800
     25 C3C         6.2730    3.6810    7.8190 cd        1 H02     -0.090300
     26 CAC         7.3240    3.6580    8.8520 c3        1 H02     -0.014100
     27 CBC         6.9850    4.5060   10.0650 c3        1 H02     -0.190400
     28 CGC         8.0880    5.5130   10.4290 c         1 H02      0.904600
     29 O1C         8.2520    5.7890   11.6520 o         1 H02     -0.855800
     30 O2C         8.7630    6.0550    9.5010 o         1 H02     -0.855800
     31 C4C         5.4540    2.6030    7.3810 cc        1 H02     -0.085100
     32 CHD         5.4450    1.2460    7.8650 ce        1 H02     -0.088200
     33 C1D         4.9600    0.1590    7.2210 cd        1 H02      0.048000
     34 ND          4.3410    0.1770    5.9160 na        1 H02     -0.612800
     35 C4D         3.9280   -1.1640    5.6260 cc        1 H02      0.125000
     36 C3D         4.2490   -2.0100    6.8030 cc        1 H02     -0.121200
     37 CMD         3.9060   -3.4310    6.8790 c3        1 H02     -0.067900
     38 C2D         4.8710   -1.2340    7.7470 cd        1 H02     -0.024200
     39 CAD         5.3410   -1.6710    9.0740 c3        1 H02     -0.037200
     40 CBD         6.4330   -2.7240    9.0040 c3        1 H02     -0.191400
     41 CGD         6.0730   -4.0270    9.7400 c         1 H02      0.905600
     42 O1D         7.0270   -4.7500   10.1450 o         1 H02     -0.852300
     43 O2D         4.8530   -4.3410    9.8850 o         1 H02     -0.852300
     44 HBA1       -0.0770    0.5480    0.0570 hc        1 H02      0.026700
     45 HBA2        0.3530   -0.2100   -1.5330 hc        1 H02      0.026700
     46 HBA3        0.2320   -1.2330   -0.0400 hc        1 H02      0.026700
     47 HAA1        2.6220   -0.7820   -0.6830 hc        1 H02      0.035200
     48 HAA2        2.3120    1.0000   -0.5780 hc        1 H02      0.035200
     49 HMA1        3.8100   -2.6990    1.0340 hc        1 H02      0.029033
     50 HMA2        2.0200   -2.7640    0.7640 hc        1 H02      0.029033
     51 HMA3        2.7230   -3.3110    2.3480 hc        1 H02      0.029033
     52 HHA         3.0150   -2.6460    4.4300 ha        1 H02      0.147000
     53 HNA         2.7250    1.1610    4.2480 hn        1 H02      0.319700
     54 HHB         1.2980    2.5980    1.0730 ha        1 H02      0.131000
     55 HCB1        4.8120    2.0310    2.6940 h1        1 H02      0.048033
     56 HCB2        5.2870    3.7250    2.2290 h1        1 H02      0.048033
     57 HCB3        5.6100    3.1340    3.9190 h1        1 H02      0.048033
     58 HMB1        1.0190    6.4030    1.1730 hc        1 H02      0.037367
     59 HMB2        0.1780    4.8130    1.4130 hc        1 H02      0.037367
     60 HMB3        1.5360    4.9450    0.2220 hc        1 H02      0.037367
     61 HAB1        3.5810    7.6110    3.6830 hc        1 H02      0.045200
     62 HAB2        2.2580    7.6610    2.4500 hc        1 H02      0.045200
     63 HBB1        1.5190    8.6170    4.6290 hc        1 H02      0.036700
     64 HBB2        0.5680    7.1250    4.2330 hc        1 H02      0.036700
     65 HBB3        1.8920    7.0510    5.4670 hc        1 H02      0.036700
     66 HHC         4.1450    6.3330    5.4920 ha        1 H02      0.139000
     67 HNC         3.8340    2.6050    6.0030 hn        1 H02      0.303700
     68 HMC1        7.2730    6.1990    7.9650 hc        1 H02      0.057367
     69 HMC2        5.7260    6.9360    7.3280 hc        1 H02      0.057367
     70 HMC3        7.0220    6.4250    6.1720 hc        1 H02      0.057367
     71 HAC1        7.5190    2.6000    9.1710 hc        1 H02      0.054200
     72 HAC2        8.2770    4.0560    8.3970 hc        1 H02      0.054200
     73 HBC1        6.0550    5.1020    9.8770 hc        1 H02      0.030700
     74 HBC2        6.7930    3.8480   10.9490 hc        1 H02      0.030700
     75 HHD         5.8980    1.1180    8.8650 ha        1 H02      0.166000
     76 HND         4.9180    0.5850    5.2060 hn        1 H02      0.396800
     77 HMD1        4.4600   -4.0080    6.0960 hc        1 H02      0.061033
     78 HMD2        2.8100   -3.5780    6.7090 hc        1 H02      0.061033
     79 HMD3        4.1780   -3.8480    7.8930 hc        1 H02      0.061033
     80 HAD1        5.7010   -0.7890    9.6660 hc        1 H02      0.064200
     81 HAD2        4.4620   -2.1160    9.6280 hc        1 H02      0.064200
     82 HBD1        6.6440   -3.0030    7.9400 hc        1 H02      0.033700
     83 HBD2        7.3790   -2.3190    9.4410 hc        1 H02      0.033700
@<TRIPOS>BOND
     1    1    2 1   
     2    1   44 1   
     3    1   45 1   
     4    1   46 1   
     5    2    3 1   
     6    2   47 1   
     7    2   48 1   
     8    3    4 1   
     9    3    9 2   
    10    4    5 1   
    11    4    6 2   
    12    5   49 1   
    13    5   50 1   
    14    5   51 1   
    15    6    7 1   
    16    6    8 1   
    17    7   35 2   
    18    7   52 1   
    19    8    9 1   
    20    8   53 1   
    21    9   10 1   
    22   10   11 2   
    23   10   54 1   
    24   11   12 1   
    25   11   14 1   
    26   12   13 1   
    27   12   19 1   
    28   13   55 1   
    29   13   56 1   
    30   13   57 1   
    31   14   15 1   
    32   14   16 2   
    33   15   58 1   
    34   15   59 1   
    35   15   60 1   
    36   16   17 1   
    37   16   19 1   
    38   17   18 1   
    39   17   61 1   
    40   17   62 1   
    41   18   63 1   
    42   18   64 1   
    43   18   65 1   
    44   19   20 2   
    45   20   21 1   
    46   20   66 1   
    47   21   22 1   
    48   21   23 2   
    49   22   31 1   
    50   22   67 1   
    51   23   24 1   
    52   23   25 1   
    53   24   68 1   
    54   24   69 1   
    55   24   70 1   
    56   25   26 1   
    57   25   31 2   
    58   26   27 1   
    59   26   71 1   
    60   26   72 1   
    61   27   28 1   
    62   27   73 1   
    63   27   74 1   
    64   28   29 1   
    65   28   30 1   
    66   31   32 1   
    67   32   33 2   
    68   32   75 1   
    69   33   34 1   
    70   33   38 1   
    71   34   35 1   
    72   34   76 1   
    73   35   36 1   
    74   36   37 1   
    75   36   38 2   
    76   37   77 1   
    77   37   78 1   
    78   37   79 1   
    79   38   39 1   
    80   39   40 1   
    81   39   80 1   
    82   39   81 1   
    83   40   41 1   
    84   40   82 1   
    85   40   83 1   
    86   41   42 1   
    87   41   43 1   
@<TRIPOS>SUBSTRUCTURE
     1 H02         1 TEMP              0 ****  ****    0 ROOT
