@<TRIPOS>MOLECULE
H05
   31    33     1     0     0
SMALL
bcc


@<TRIPOS>ATOM
      1 C1         -0.0930    0.0070   -0.0370 cc        1 H05      0.050700
      2 N2          1.3470    0.0100   -0.0320 na        1 H05      0.005200
      3 N3         -0.5430    0.0130    1.2490 nd        1 H05     -0.339300
      4 N4          1.8160    0.0180    1.2060 nc        1 H05     -0.476100
      5 C5          2.0690    0.0050   -1.2920 cc        1 H05      0.579800
      6 N6          1.4160   -0.0020   -2.4210 nd        1 H05     -0.630000
      7 C7          0.6650    0.0190    1.9880 cd        1 H05      0.466200
      8 C8         -0.7910   -0.0020   -1.3010 ca        1 H05     -0.140300
      9 C9          0.0190   -0.0060   -2.4770 ca        1 H05      0.406600
     10 N10         0.6730    0.0270    3.4450 n4        1 H05     -0.731600
     11 C11        -2.1910   -0.0050   -1.3900 ca        1 H05     -0.075000
     12 C12         3.5780    0.0090   -1.1870 c3        1 H05     -0.126700
     13 C13        -0.6280   -0.0140   -3.7380 ca        1 H05     -0.150300
     14 C14         4.2710    0.0040   -2.5350 c3        1 H05     -0.076400
     15 C15        -2.7940   -0.0130   -2.6390 ca        1 H05     -0.108000
     16 C16        -2.0130   -0.0180   -3.8040 ca        1 H05     -0.085000
     17 C17         5.7680    0.0090   -2.3500 c3        1 H05     -0.100100
     18 HN10        0.1830   -0.8120    3.7840 hn        1 H05      0.481133
     19 HN1A        1.6400    0.0310    3.7940 hn        1 H05      0.481133
     20 H11        -2.8010   -0.0020   -0.4730 ha        1 H05      0.162000
     21 H12         3.8930   -0.8970   -0.6000 hc        1 H05      0.080700
     22 H12A        3.8880    0.9230   -0.6090 hc        1 H05      0.080700
     23 H13        -0.0250   -0.0180   -4.6620 ha        1 H05      0.174000
     24 H14         3.9660   -0.9040   -3.1190 hc        1 H05      0.063700
     25 H14A        3.9620    0.9040   -3.1290 hc        1 H05      0.063700
     26 H15        -3.8940   -0.0170   -2.7190 ha        1 H05      0.162000
     27 H16        -2.5100   -0.0240   -4.7890 ha        1 H05      0.163000
     28 H17         6.2720    0.0050   -3.3480 hc        1 H05      0.045033
     29 H17A        6.0990    0.9180   -1.7930 hc        1 H05      0.045033
     30 H17B        6.1030   -0.8940   -1.7840 hc        1 H05      0.045033
     31 H103        0.1800    0.8680    3.7750 hn        1 H05      0.481133
@<TRIPOS>BOND
     1    1    2 1   
     2    1    3 2   
     3    1    8 1   
     4    2    4 1   
     5    2    5 1   
     6    3    7 1   
     7    4    7 2   
     8    5    6 2   
     9    5   12 1   
    10    6    9 1   
    11    7   10 1   
    12    8    9 ar  
    13    8   11 ar  
    14    9   13 ar  
    15   10   18 1   
    16   10   19 1   
    17   10   31 1   
    18   11   15 ar  
    19   11   20 1   
    20   12   14 1   
    21   12   21 1   
    22   12   22 1   
    23   13   16 ar  
    24   13   23 1   
    25   14   17 1   
    26   14   24 1   
    27   14   25 1   
    28   15   16 ar  
    29   15   26 1   
    30   16   27 1   
    31   17   28 1   
    32   17   29 1   
    33   17   30 1   
@<TRIPOS>SUBSTRUCTURE
     1 H05         1 TEMP              0 ****  ****    0 ROOT
