@<TRIPOS>MOLECULE
H05
   30    32     1     0     0
SMALL
bcc


@<TRIPOS>ATOM
      1 C1         -0.0780   -0.0190   -0.0290 cc        1 H05      0.027700
      2 N2          1.3570   -0.0110   -0.0400 na        1 H05     -0.022800
      3 N3         -0.5180   -0.0320    1.2500 nd        1 H05     -0.405300
      4 N4          1.8400   -0.0220    1.2160 nc        1 H05     -0.607100
      5 C5          2.0620   -0.0030   -1.2740 cc        1 H05      0.591800
      6 N6          1.4250    0.0070   -2.4270 nd        1 H05     -0.700000
      7 C7          0.6980   -0.0450    2.0150 cd        1 H05      0.687200
      8 C8         -0.7770   -0.0090   -1.2950 ca        1 H05     -0.132300
      9 C9          0.0280    0.0050   -2.4710 ca        1 H05      0.413600
     10 N10         0.7120   -0.1730    3.4060 nh        1 H05     -0.845800
     11 C11        -2.1780   -0.0150   -1.3790 ca        1 H05     -0.076000
     12 C12         3.5740   -0.0070   -1.1840 c3        1 H05     -0.124700
     13 C13        -0.6290    0.0160   -3.7300 ca        1 H05     -0.174300
     14 C14         4.2660   -0.0010   -2.5300 c3        1 H05     -0.075400
     15 C15        -2.7890   -0.0040   -2.6220 ca        1 H05     -0.139000
     16 C16        -2.0110    0.0110   -3.7910 ca        1 H05     -0.108000
     17 C17         5.7640   -0.0050   -2.3520 c3        1 H05     -0.097100
     18 HN10        1.5370    0.1850    3.8370 hn        1 H05      0.409800
     19 HN1A       -0.1340    0.1190    3.8450 hn        1 H05      0.409800
     20 H11        -2.7770   -0.0280   -0.4550 ha        1 H05      0.158000
     21 H12         3.8860   -0.9180   -0.6040 hc        1 H05      0.077700
     22 H12A        3.8890    0.8970   -0.5930 hc        1 H05      0.077700
     23 H13        -0.0300    0.0270   -4.6540 ha        1 H05      0.153000
     24 H14         3.9550   -0.9000   -3.1240 hc        1 H05      0.056200
     25 H14A        3.9590    0.9070   -3.1150 hc        1 H05      0.056200
     26 H15        -3.8860   -0.0090   -2.6990 ha        1 H05      0.140000
     27 H16        -2.5130    0.0190   -4.7710 ha        1 H05      0.138000
     28 H17         6.2670   -0.0010   -3.3490 hc        1 H05      0.036033
     29 H17A        6.0990    0.8970   -1.7840 hc        1 H05      0.036033
     30 H17B        6.0940   -0.9140   -1.7940 hc        1 H05      0.036033
@<TRIPOS>BOND
     1    1    2 1   
     2    1    3 2   
     3    1    8 1   
     4    2    4 1   
     5    2    5 1   
     6    3    7 1   
     7    4    7 2   
     8    5    6 2   
     9    5   12 1   
    10    6    9 1   
    11    7   10 1   
    12    8    9 ar  
    13    8   11 ar  
    14    9   13 ar  
    15   10   18 1   
    16   10   19 1   
    17   11   15 ar  
    18   11   20 1   
    19   12   14 1   
    20   12   21 1   
    21   12   22 1   
    22   13   16 ar  
    23   13   23 1   
    24   14   17 1   
    25   14   24 1   
    26   14   25 1   
    27   15   16 ar  
    28   15   26 1   
    29   16   27 1   
    30   17   28 1   
    31   17   29 1   
    32   17   30 1   
@<TRIPOS>SUBSTRUCTURE
     1 H05         1 TEMP              0 ****  ****    0 ROOT
