@<TRIPOS>MOLECULE
H06
   35    36     1     0     0
SMALL
bcc


@<TRIPOS>ATOM
      1 O           2.1180   -1.3100   -0.8280 o         1 H06     -0.254000
      2 N1         -3.1340   -0.2180   -7.8660 n1        1 H06      0.054000
      3 C2         -0.9130   -0.2260   -6.7380 ca        1 H06     -0.105000
      4 N2         -1.0810    0.3350   -9.1540 n4        1 H06     -0.150000
      5 C3          0.0090   -1.2300   -6.4240 ca        1 H06     -0.104500
      6 N3          1.2730    0.9580   -2.2980 n2        1 H06     -0.150000
      7 C4          0.7770   -1.1220   -5.2660 ca        1 H06     -0.060500
      8 N4          2.0100    1.0290   -1.1210 n4        1 H06     -0.056000
      9 C5          0.6260   -0.0120   -4.4170 ca        1 H06     -0.060000
     10 N5          2.0740    2.1320    2.3930 n2        1 H06     -0.154000
     11 C6          1.4440    0.0240   -3.1940 c2        1 H06      0.044000
     12 C7          2.2460   -0.2400   -0.2420 c2        1 H06      0.331000
     13 C8          2.5850    0.0590    1.1180 c2        1 H06     -0.329000
     14 C9          2.7490    1.4650    1.5470 c2        1 H06     -0.060000
     15 C10         3.1290   -1.4030    3.3020 cu        1 H06     -0.027000
     16 C11         2.8820   -2.3280    2.3410 cu        1 H06     -0.027000
     17 C12         2.7970   -0.9520    1.9940 cu        1 H06      0.069000
     18 C13        -0.2900    0.9960   -4.7480 ca        1 H06     -0.060500
     19 C14        -1.0600    0.8890   -5.9100 ca        1 H06     -0.104500
     20 HN1        -1.8590   -1.5290   -8.2520 hx        1 H06      0.279000
     21 HN2        -1.6370    0.2760  -10.0110 hn        1 H06      0.248667
     22 HN2A       -0.9420    1.3210   -8.9250 hn        1 H06      0.248667
     23 H3          0.1270   -2.1180   -7.0670 ha        1 H06      0.165000
     24 H4          1.4940   -1.9240   -5.0170 ha        1 H06      0.179000
     25 HN4         2.9410    1.4370   -1.3080 hn        1 H06      0.270500
     26 H6          2.1820   -0.8120   -3.1130 h4        1 H06      0.181000
     27 H9          3.6160    1.9860    1.0790 h4        1 H06      0.155000
     28 H10         1.3140    1.6850    2.8630 hn        1 H06      0.166000
     29 H11         3.3920   -1.1390    4.3150 ha        1 H06      0.244500
     30 H12         2.7980   -3.3540    2.0170 ha        1 H06      0.244500
     31 H13        -0.4280    1.8780   -4.0980 ha        1 H06      0.179000
     32 H14        -1.7920    1.6810   -6.1430 ha        1 H06      0.165000
     33 H23        -0.1700   -0.0960   -9.3080 hn        1 H06      0.248667
     34 H42         1.4780    1.7100   -0.5430 hn        1 H06      0.270500
     35 C1         -1.8100   -0.3890   -7.9440 c3        1 H06     -0.041000
@<TRIPOS>BOND
     1    1   12 1   
     2    2   35 1   
     3    3    5 1   
     4    3   19 1   
     5    3   35 1   
     6    4   21 1   
     7    4   22 1   
     8    4   33 1   
     9    4   35 1   
    10    5    7 1   
    11    5   23 1   
    12    6    8 1   
    13    6   11 1   
    14    7    9 1   
    15    7   24 1   
    16    8   12 1   
    17    8   25 1   
    18    8   34 1   
    19    9   11 1   
    20    9   18 1   
    21   10   14 1   
    22   10   28 1   
    23   11   26 1   
    24   12   13 1   
    25   13   14 1   
    26   13   17 1   
    27   14   27 1   
    28   15   16 1   
    29   15   17 1   
    30   15   29 1   
    31   16   17 1   
    32   16   30 1   
    33   18   19 1   
    34   18   31 1   
    35   19   32 1   
    36   20   35 1   
@<TRIPOS>SUBSTRUCTURE
     1 H06         1 TEMP              0 ****  ****    0 ROOT
