@<TRIPOS>MOLECULE
H06
   33    34     1     0     0
SMALL
bcc


@<TRIPOS>ATOM
      1 O           2.5360    2.0510   -0.2930 o         1 H06     -0.531100
      2 N1         -6.8290   -0.3820    1.0430 n2        1 H06     -0.827100
      3 C2         -4.6250   -0.0000    0.1600 ca        1 H06     -0.132900
      4 N2         -6.5360    1.2050   -0.7730 nh        1 H06     -0.959800
      5 C3         -4.1370   -1.3120    0.1730 ca        1 H06     -0.105000
      6 N3          0.4720    0.1580   -0.0430 n2        1 H06     -0.416300
      7 C4         -2.7650   -1.5420    0.1660 ca        1 H06     -0.114000
      8 N4          1.7690   -0.1430   -0.0540 n         1 H06     -0.339900
      9 C5         -1.8630   -0.4670    0.1490 ca        1 H06     -0.111900
     10 N5          5.7980   -1.3370   -0.8680 nb        1 H06     -0.666000
     11 C6         -0.4290   -0.7710    0.1450 ce        1 H06      0.360800
     12 C7          2.7740    0.8420   -0.1840 c         1 H06      0.702700
     13 C8          4.1640    0.3110   -0.1660 ca        1 H06     -0.270900
     14 C9          4.5400   -0.8590   -0.8580 ca        1 H06      0.421200
     15 C10         6.7310   -0.6500   -0.1800 ca        1 H06      0.416200
     16 C11         6.4570    0.5340    0.5290 ca        1 H06     -0.251300
     17 C12         5.1510    1.0220    0.5320 ca        1 H06     -0.040000
     18 C13        -2.3570    0.8440    0.1470 ca        1 H06     -0.114000
     19 C14        -3.7320    1.0750    0.1540 ca        1 H06     -0.105000
     20 HN1        -7.8100   -0.1990    1.0210 hn        1 H06      0.382400
     21 HN2        -7.4940    1.1800   -1.0330 hn        1 H06      0.400300
     22 HN2A       -5.9110    1.3850   -1.5240 hn        1 H06      0.400300
     23 H3         -4.8370   -2.1610    0.2010 ha        1 H06      0.148500
     24 H4         -2.3880   -2.5760    0.1770 ha        1 H06      0.146000
     25 HN4         2.0750   -1.0840    0.1180 hn        1 H06      0.298500
     26 H6         -0.1930   -1.8460    0.3110 h4        1 H06     -0.010200
     27 H9          3.8090   -1.4370   -1.4530 h4        1 H06      0.028100
     28 H10         7.7520   -1.0720   -0.2060 h4        1 H06      0.029100
     29 H11         7.2580    1.0620    1.0640 ha        1 H06      0.153000
     30 H12         4.8880    1.9540    1.0590 ha        1 H06      0.163000
     31 H13        -1.6650    1.7020    0.1430 ha        1 H06      0.146000
     32 H14        -4.1070    2.1100    0.1690 ha        1 H06      0.148500
     33 C1         -6.1030    0.2420    0.1650 ce        1 H06      0.651800
@<TRIPOS>BOND
     1    1   12 2   
     2    2   20 1   
     3    2   33 2   
     4    3    5 ar  
     5    3   19 ar  
     6    3   33 1   
     7    4   21 1   
     8    4   22 1   
     9    4   33 1   
    10    5    7 ar  
    11    5   23 1   
    12    6    8 1   
    13    6   11 2   
    14    7    9 ar  
    15    7   24 1   
    16    8   12 1   
    17    8   25 1   
    18    9   11 1   
    19    9   18 ar  
    20   10   14 ar  
    21   10   15 ar  
    22   11   26 1   
    23   12   13 1   
    24   13   14 ar  
    25   13   17 ar  
    26   14   27 1   
    27   15   16 ar  
    28   15   28 1   
    29   16   17 ar  
    30   16   29 1   
    31   17   30 1   
    32   18   19 ar  
    33   18   31 1   
    34   19   32 1   
@<TRIPOS>SUBSTRUCTURE
     1 H06         1 TEMP              0 ****  ****    0 ROOT
