@<TRIPOS>MOLECULE
H06
   35    36     1     0     0
SMALL
bcc


@<TRIPOS>ATOM
      1 O           0.6960    0.3110   -0.2590 o         1 H06     -0.495100
      2 N1         -0.7100    0.3110   -9.2800 nh        1 H06     -0.455100
      3 C2         -0.7540    0.0970   -6.8450 ca        1 H06     -0.209900
      4 N2         -2.6880   -0.4740   -8.2270 nh        1 H06     -0.439200
      5 C3          0.4740   -0.5330   -6.6170 ca        1 H06     -0.090500
      6 N3          2.1120   -0.2130   -2.6510 n2        1 H06     -0.523400
      7 C4          1.0880   -0.4190   -5.3690 ca        1 H06     -0.065500
      8 N4          2.7190   -0.0940   -1.4060 n4        1 H06     -0.377900
      9 C5          0.4820    0.3320   -4.3520 ca        1 H06     -0.135900
     10 N5          5.0890    0.0210    1.3420 n2        1 H06     -0.687100
     11 C6          1.0840    0.5010   -3.0190 ce        1 H06      0.544800
     12 C7          1.8740    0.0090   -0.0980 c         1 H06      0.588300
     13 C8          2.6300   -0.2470    1.0930 ce        1 H06     -0.437800
     14 C9          4.0550   -0.6350    0.9990 ce        1 H06      0.442500
     15 C10         2.0750   -0.3030    3.7180 cd        1 H06     -0.026500
     16 C11         0.8910    0.0210    3.1400 cd        1 H06     -0.026500
     17 C12         2.0210   -0.1830    2.3010 cd        1 H06      0.070000
     18 C13        -0.7490    0.9650   -4.5930 ca        1 H06     -0.065500
     19 C14        -1.3700    0.8450   -5.8340 ca        1 H06     -0.090500
     20 HN1         0.2210    0.6590   -9.1740 hn        1 H06      0.334700
     21 HN2        -1.0810    0.2490  -10.2060 hn        1 H06      0.334700
     22 HN2A       -3.1980   -0.5790   -9.0800 hn        1 H06      0.334700
     23 H3          0.9590   -1.1350   -7.4040 ha        1 H06      0.170000
     24 H4          2.0540   -0.9290   -5.2020 ha        1 H06      0.179500
     25 HN4         3.3680    0.7120   -1.4070 hn        1 H06      0.475800
     26 H6          0.5730    1.2650   -2.3820 h4        1 H06      0.052800
     27 H9          4.2240   -1.6650    0.6060 h4        1 H06      0.031800
     28 H10         4.9730    0.9300    1.7410 hn        1 H06      0.409400
     29 H11         2.6760   -0.5140    4.5900 ha        1 H06      0.244500
     30 H12        -0.1580    0.2610    3.2090 ha        1 H06      0.244500
     31 H13        -1.2380    1.5600   -3.8010 ha        1 H06      0.179500
     32 H14        -2.3320    1.3550   -6.0100 ha        1 H06      0.170000
     33 H23        -3.1450   -0.7330   -7.3760 hn        1 H06      0.334700
     34 H42         3.2930   -0.9580   -1.3330 hn        1 H06      0.475800
     35 C1         -1.4150   -0.0280   -8.1810 ce        1 H06      0.508400
@<TRIPOS>BOND
     1    1   12 2   
     2    2   20 1   
     3    2   21 1   
     4    2   35 2   
     5    3    5 ar  
     6    3   19 ar  
     7    3   35 1   
     8    4   22 1   
     9    4   33 1   
    10    4   35 1   
    11    5    7 ar  
    12    5   23 1   
    13    6    8 1   
    14    6   11 2   
    15    7    9 ar  
    16    7   24 1   
    17    8   12 1   
    18    8   25 1   
    19    8   34 1   
    20    9   11 1   
    21    9   18 ar  
    22   10   14 2   
    23   10   28 1   
    24   11   26 1   
    25   12   13 1   
    26   13   14 1   
    27   13   17 2   
    28   14   27 1   
    29   15   16 2   
    30   15   17 1   
    31   15   29 1   
    32   16   17 1   
    33   16   30 1   
    34   18   19 ar  
    35   18   31 1   
    36   19   32 1   
@<TRIPOS>SUBSTRUCTURE
     1 H06         1 TEMP              0 ****  ****    0 ROOT
