@<TRIPOS>MOLECULE
H06
   35    36     1     0     0
SMALL
bcc


@<TRIPOS>ATOM
      1 O           1.4350   -1.2680   -0.6010 o         1 H06     -0.494100
      2 N1         -0.6320    0.3550   -9.4380 n2        1 H06     -0.680100
      3 C2         -0.5360    0.0160   -6.9500 ca        1 H06     -0.215900
      4 N2         -2.6070   -0.2680   -8.2910 nz        1 H06     -0.821600
      5 C3         -0.2370   -1.2220   -6.3680 ca        1 H06     -0.099500
      6 N3          1.6960    0.8590   -2.4500 n2        1 H06     -0.525400
      7 C4          0.4070   -1.2660   -5.1330 ca        1 H06     -0.064000
      8 N4          2.3720    0.8040   -1.2370 ny        1 H06     -0.377900
      9 C5          0.7500   -0.0750   -4.4710 ca        1 H06     -0.143900
     10 N5          3.0570    2.2560    2.0660 n2        1 H06     -0.686100
     11 C6          1.4550   -0.1930   -3.1840 ce        1 H06      0.545800
     12 C7          2.0580   -0.2980   -0.1790 c         1 H06      0.587300
     13 C8          2.5610    0.0060    1.1290 ce        1 H06     -0.435800
     14 C9          3.3410    1.2440    1.3500 ce        1 H06      0.442500
     15 C10         2.5270   -1.2280    3.5110 cd        1 H06     -0.027500
     16 C11         1.8550   -2.0760    2.6930 cd        1 H06     -0.027500
     17 C12         2.3570   -0.8630    2.1470 cd        1 H06      0.069000
     18 C13         0.4350    1.1600   -5.0540 ca        1 H06     -0.064000
     19 C14        -0.2060    1.2060   -6.2940 ca        1 H06     -0.099500
     20 HN1         0.3390    0.5850   -9.5040 hn        1 H06      0.499400
     21 HN2        -3.0020   -0.2980   -9.2430 hn        1 H06      0.476800
     22 HN2A       -2.7240   -1.1840   -7.8450 hn        1 H06      0.476800
     23 H3         -0.4800   -2.1640   -6.8860 ha        1 H06      0.166000
     24 H4          0.6470   -2.2460   -4.6840 ha        1 H06      0.177000
     25 HN4         3.3930    0.7730   -1.4040 hn        1 H06      0.476300
     26 H6          1.7420   -1.2390   -2.9160 h4        1 H06      0.051800
     27 H9          4.3310    1.2570    0.8380 h4        1 H06      0.026800
     28 H10         2.1950    2.2610    2.5720 hn        1 H06      0.410400
     29 H11         2.9300   -0.9670    4.4780 ha        1 H06      0.244500
     30 H12         1.3190   -2.9960    2.5230 ha        1 H06      0.244500
     31 H13         0.6920    2.1090   -4.5520 ha        1 H06      0.177000
     32 H14        -0.4360    2.1840   -6.7480 ha        1 H06      0.166000
     33 H23        -3.1040    0.4430   -7.7430 hn        1 H06      0.476800
     34 H42         2.1570    1.7200   -0.7950 hn        1 H06      0.476300
     35 C1         -1.1410    0.0730   -8.3030 ce        1 H06      0.571800
@<TRIPOS>BOND
     1    1   12 2   
     2    2   20 1   
     3    2   35 2   
     4    3    5 ar  
     5    3   19 ar  
     6    3   35 1   
     7    4   21 1   
     8    4   22 1   
     9    4   33 1   
    10    4   35 1   
    11    5    7 ar  
    12    5   23 1   
    13    6    8 1   
    14    6   11 2   
    15    7    9 ar  
    16    7   24 1   
    17    8   12 1   
    18    8   25 1   
    19    8   34 1   
    20    9   11 1   
    21    9   18 ar  
    22   10   14 2   
    23   10   28 1   
    24   11   26 1   
    25   12   13 1   
    26   13   14 1   
    27   13   17 2   
    28   14   27 1   
    29   15   16 2   
    30   15   17 1   
    31   15   29 1   
    32   16   17 1   
    33   16   30 1   
    34   18   19 ar  
    35   18   31 1   
    36   19   32 1   
@<TRIPOS>SUBSTRUCTURE
     1 H06         1 TEMP              0 ****  ****    0 ROOT
