@<TRIPOS>MOLECULE
H07
   48    52     1     0     0
SMALL
bcc


@<TRIPOS>ATOM
      1 CL1         0.3740   -1.0100    0.9970 cl        1 H07     -0.082400
      2 C12         2.0080   -0.5530    0.9380 ca        1 H07      0.043400
      3 C11         2.7710   -0.5490    2.1110 ca        1 H07     -0.136500
      4 C10         4.1070   -0.1630    2.0580 ca        1 H07     -0.064500
      5 C13         2.5820   -0.1800   -0.2820 ca        1 H07     -0.136500
      6 C14         3.9260    0.1870   -0.3270 ca        1 H07     -0.064500
      7 C9          4.6960    0.1950    0.8390 ca        1 H07     -0.051100
      8 S2          6.3720    0.4870    0.8640 ss        1 H07     -0.055100
      9 C8          6.6120    1.9990    0.1150 cc        1 H07      0.377700
     10 N7          5.6480    2.7950   -0.3880 nd        1 H07     -0.544100
     11 C5          6.3030    3.9420   -0.8490 ca        1 H07     -0.223200
     12 C6          5.8310    5.1460   -1.4740 ca        1 H07      0.761200
     13 N6          4.4990    5.3100   -1.7450 nh        1 H07     -0.957500
     14 N1          6.7480    6.1180   -1.8090 nb        1 H07     -0.788000
     15 C2          8.0530    5.8720   -1.5290 ca        1 H07      0.689900
     16 N3          8.6350    4.7930   -0.9480 nb        1 H07     -0.732000
     17 C4          7.7330    3.8270   -0.6130 ca        1 H07      0.474800
     18 N9          7.9170    2.5900    0.0500 na        1 H07     -0.253000
     19 C1'         9.2040    1.9610    0.1560 c3        1 H07      0.209800
     20 C2'         9.3910    1.0130    1.4090 c3        1 H07      0.121100
     21 O2'        10.6180    1.3440    2.0290 os        1 H07     -0.388600
     22 C6'        10.4810    2.2540    3.1130 c3        1 H07      0.109700
     23 O4'         9.4780    1.1680   -1.0440 os        1 H07     -0.400600
     24 C4'        10.1490   -0.0150   -0.6190 c3        1 H07      0.045100
     25 C3'         9.5050   -0.3650    0.7430 c3        1 H07      0.115100
     26 O3'        10.2590   -1.3470    1.3940 os        1 H07     -0.505200
     27 C5'         9.9680   -1.2100   -1.5480 c3        1 H07      0.180400
     28 O5'        10.6400   -2.3020   -0.9520 os        1 H07     -0.557200
     29 P          10.3000   -2.7330    0.5550 p5        1 H07      1.613500
     30 O1P         8.7460   -3.0780    0.4410 oh        1 H07     -0.785400
     31 O2P        11.0660   -3.8240    1.1230 o         1 H07     -0.767300
     32 H1          2.3180   -0.8400    3.0710 ha        1 H07      0.154000
     33 H2          4.7040   -0.1400    2.9840 ha        1 H07      0.152500
     34 H3          1.9810   -0.1800   -1.2040 ha        1 H07      0.154000
     35 H4          4.3760    0.4760   -1.2900 ha        1 H07      0.152500
     36 H5          3.8590    4.6290   -1.4210 hn        1 H07      0.449300
     37 H6          4.1620    6.1630   -2.1170 hn        1 H07      0.449300
     38 H7          8.7530    6.6850   -1.8230 h5        1 H07      0.055100
     39 H8          9.9930    2.7740    0.1790 h2        1 H07      0.126700
     40 H9          8.5310    1.0620    2.1260 h1        1 H07      0.089700
     41 H10        10.0490    3.2220    2.7600 h1        1 H07      0.044700
     42 H11        11.5310    2.3970    3.4750 h1        1 H07      0.044700
     43 H12         9.8440    1.8140    3.9190 h1        1 H07      0.044700
     44 H13        11.2420    0.2370   -0.5010 h1        1 H07      0.093700
     45 H14         8.4520   -0.7650    0.5950 h1        1 H07      0.089700
     46 H15        10.4560   -1.0420   -2.5430 h1        1 H07      0.079700
     47 H16         8.8850   -1.4710   -1.6840 h1        1 H07      0.079700
     48 H17         8.4780   -3.9530    0.7110 ho        1 H07      0.490000
@<TRIPOS>BOND
     1    1    2 1   
     2    2    3 ar  
     3    2    5 ar  
     4    3    4 ar  
     5    3   32 1   
     6    4    7 ar  
     7    4   33 1   
     8    5    6 ar  
     9    5   34 1   
    10    6    7 ar  
    11    6   35 1   
    12    7    8 1   
    13    8    9 1   
    14    9   10 2   
    15    9   18 1   
    16   10   11 1   
    17   11   12 ar  
    18   11   17 ar  
    19   12   13 1   
    20   12   14 ar  
    21   13   36 1   
    22   13   37 1   
    23   14   15 ar  
    24   15   16 ar  
    25   15   38 1   
    26   16   17 ar  
    27   17   18 1   
    28   18   19 1   
    29   19   20 1   
    30   19   23 1   
    31   19   39 1   
    32   20   21 1   
    33   20   25 1   
    34   20   40 1   
    35   21   22 1   
    36   22   41 1   
    37   22   42 1   
    38   22   43 1   
    39   23   24 1   
    40   24   25 1   
    41   24   27 1   
    42   24   44 1   
    43   25   26 1   
    44   25   45 1   
    45   26   29 1   
    46   27   28 1   
    47   27   46 1   
    48   27   47 1   
    49   28   29 1   
    50   29   30 1   
    51   29   31 2   
    52   30   48 1   
@<TRIPOS>SUBSTRUCTURE
     1 H07         1 TEMP              0 ****  ****    0 ROOT
