@<TRIPOS>MOLECULE
H07
   48    52     1     0     0
SMALL
bcc


@<TRIPOS>ATOM
      1 Cl1         0.3680   -1.0000    0.9580 cl        1 H07     -0.082400
      2 C12         2.0030   -0.5450    0.9090 ca        1 H07      0.043400
      3 C11         2.7600   -0.5480    2.0860 ca        1 H07     -0.136500
      4 C10         4.0970   -0.1630    2.0410 ca        1 H07     -0.064500
      5 C13         2.5830   -0.1670   -0.3060 ca        1 H07     -0.136500
      6 C14         3.9270    0.1980   -0.3430 ca        1 H07     -0.064500
      7 C9          4.6930    0.1990    0.8270 ca        1 H07     -0.051100
      8 S2          6.3690    0.4890    0.8610 ss        1 H07     -0.055100
      9 C8          6.6140    2.0040    0.1190 cc        1 H07      0.377700
     10 N7          5.6540    2.8040   -0.3840 nd        1 H07     -0.544100
     11 C5          6.3130    3.9520   -0.8370 ca        1 H07     -0.223200
     12 C6          5.8460    5.1590   -1.4590 ca        1 H07      0.761200
     13 N6          4.5160    5.3270   -1.7340 nv        1 H07     -0.957500
     14 N1          6.7660    6.1310   -1.7850 nb        1 H07     -0.788000
     15 C2          8.0700    5.8810   -1.5010 ca        1 H07      0.689900
     16 N3          8.6480    4.7990   -0.9220 nb        1 H07     -0.732000
     17 C4          7.7420    3.8330   -0.5950 ca        1 H07      0.474800
     18 N9          7.9210    2.5930    0.0620 na        1 H07     -0.253000
     19 C1'         9.2060    1.9610    0.1710 c3        1 H07      0.209800
     20 C2'         9.3860    1.0070    1.4210 c3        1 H07      0.121100
     21 O2'        10.6120    1.3320    2.0470 os        1 H07     -0.388600
     22 C6'        10.4720    2.2390    3.1340 c3        1 H07      0.109700
     23 O4'         9.4840    1.1720   -1.0310 os        1 H07     -0.400600
     24 C4'        10.1500   -0.0140   -0.6090 c3        1 H07      0.045100
     25 C3'         9.5000   -0.3690    0.7490 c3        1 H07      0.115100
     26 O3'        10.2500   -1.3550    1.3990 os        1 H07     -0.505200
     27 C5'         9.9710   -1.2050   -1.5430 c3        1 H07      0.180400
     28 O5'        10.6390   -2.3010   -0.9500 os        1 H07     -0.557200
     29 P          10.2920   -2.7370    0.5540 p5        1 H07      1.613500
     30 O1P         8.7370   -3.0780    0.4320 oh        1 H07     -0.785400
     31 O2P        11.0530   -3.8320    1.1200 o         1 H07     -0.767300
     32 H1          2.3020   -0.8430    3.0420 ha        1 H07      0.154000
     33 H2          4.6900   -0.1450    2.9700 ha        1 H07      0.152500
     34 H3          1.9860   -0.1610   -1.2310 ha        1 H07      0.154000
     35 H4          4.3830    0.4910   -1.3030 ha        1 H07      0.152500
     36 H5          3.8730    4.6460   -1.4160 hn        1 H07      0.449300
     37 H6          4.1820    6.1830   -2.1040 hn        1 H07      0.449300
     38 H7          8.7720    6.6940   -1.7890 h5        1 H07      0.055100
     39 H8          9.9960    2.7720    0.2010 h2        1 H07      0.126700
     40 H9          8.5230    1.0540    2.1350 h1        1 H07      0.089700
     41 H10        10.0430    3.2090    2.7840 h1        1 H07      0.044700
     42 H11        11.5200    2.3780    3.5010 h1        1 H07      0.044700
     43 H12         9.8310    1.7970    3.9350 h1        1 H07      0.044700
     44 H13        11.2440    0.2360   -0.4860 h1        1 H07      0.093700
     45 H14         8.4470   -0.7660    0.5950 h1        1 H07      0.089700
     46 H15         8.8880   -1.4630   -1.6850 h1        1 H07      0.079700
     47 H16        10.4630   -1.0330   -2.5360 h1        1 H07      0.079700
     48 H17         8.4670   -3.9550    0.6970 ho        1 H07      0.490000
@<TRIPOS>BOND
     1    1    2 1   
     2    2    3 ar  
     3    2    5 ar  
     4    3    4 ar  
     5    3   32 1   
     6    4    7 ar  
     7    4   33 1   
     8    5    6 ar  
     9    5   34 1   
    10    6    7 ar  
    11    6   35 1   
    12    7    8 1   
    13    8    9 1   
    14    9   10 2   
    15    9   18 1   
    16   10   11 1   
    17   11   12 ar  
    18   11   17 ar  
    19   12   13 1   
    20   12   14 ar  
    21   13   36 1   
    22   13   37 1   
    23   14   15 ar  
    24   15   16 ar  
    25   15   38 1   
    26   16   17 ar  
    27   17   18 1   
    28   18   19 1   
    29   19   20 1   
    30   19   23 1   
    31   19   39 1   
    32   20   21 1   
    33   20   25 1   
    34   20   40 1   
    35   21   22 1   
    36   22   41 1   
    37   22   42 1   
    38   22   43 1   
    39   23   24 1   
    40   24   25 1   
    41   24   27 1   
    42   24   44 1   
    43   25   26 1   
    44   25   45 1   
    45   26   29 1   
    46   27   28 1   
    47   27   46 1   
    48   27   47 1   
    49   28   29 1   
    50   29   30 1   
    51   29   31 2   
    52   30   48 1   
@<TRIPOS>SUBSTRUCTURE
     1 H07         1 TEMP              0 ****  ****    0 ROOT
