@<TRIPOS>MOLECULE
H07
   48    52     1     0     0
SMALL
bcc


@<TRIPOS>ATOM
      1 CL1         0.3640   -0.9880    0.9550 cl        1 H07     -0.082400
      2 C12         2.0000   -0.5360    0.9070 ca        1 H07      0.043400
      3 C11         2.7570   -0.5420    2.0840 ca        1 H07     -0.136500
      4 C10         4.0950   -0.1590    2.0400 ca        1 H07     -0.064500
      5 C13         2.5810   -0.1560   -0.3080 ca        1 H07     -0.136500
      6 C14         3.9260    0.2070   -0.3440 ca        1 H07     -0.064500
      7 C9          4.6910    0.2040    0.8260 ca        1 H07     -0.051100
      8 S2          6.3670    0.4910    0.8610 ss        1 H07     -0.055100
      9 C8          6.6160    2.0060    0.1210 cc        1 H07      0.377700
     10 N7          5.6570    2.8100   -0.3790 nd        1 H07     -0.544100
     11 C5          6.3180    3.9570   -0.8310 ca        1 H07     -0.223200
     12 C6          5.8540    5.1670   -1.4500 ca        1 H07      0.761200
     13 N6          4.5230    5.3380   -1.7240 nh        1 H07     -0.957500
     14 N1          6.7760    6.1370   -1.7760 nb        1 H07     -0.788000
     15 C2          8.0790    5.8840   -1.4930 ca        1 H07      0.689900
     16 N3          8.6550    4.7990   -0.9170 nb        1 H07     -0.732000
     17 C4          7.7470    3.8350   -0.5910 ca        1 H07      0.474800
     18 N9          7.9240    2.5920    0.0650 na        1 H07     -0.253000
     19 C1'         9.2080    1.9580    0.1720 c3        1 H07      0.209800
     20 C2'         9.3870    1.0020    1.4210 c3        1 H07      0.121100
     21 O2'        10.6130    1.3250    2.0460 os        1 H07     -0.388600
     22 C6'        10.4760    2.2310    3.1340 c3        1 H07      0.109700
     23 O4'         9.4830    1.1690   -1.0310 os        1 H07     -0.400600
     24 C4'        10.1470   -0.0190   -0.6100 c3        1 H07      0.045100
     25 C3'         9.4970   -0.3730    0.7470 c3        1 H07      0.115100
     26 O3'        10.2450   -1.3610    1.3960 os        1 H07     -0.505200
     27 C5'         9.9640   -1.2080   -1.5460 c3        1 H07      0.180400
     28 O5'        10.6300   -2.3060   -0.9530 os        1 H07     -0.557200
     29 P          10.2830   -2.7430    0.5510 p5        1 H07      1.613500
     30 O1P         8.7280   -3.0810    0.4300 oh        1 H07     -0.785400
     31 O2P        11.0420   -3.8400    1.1150 o         1 H07     -0.767300
     32 H1          2.2990   -0.8380    3.0400 ha        1 H07      0.154000
     33 H2          4.6880   -0.1440    2.9680 ha        1 H07      0.152500
     34 H3          1.9840   -0.1480   -1.2320 ha        1 H07      0.154000
     35 H4          4.3810    0.5010   -1.3030 ha        1 H07      0.152500
     36 H5          3.8790    4.6580   -1.4070 hn        1 H07      0.449300
     37 H6          4.1910    6.1950   -2.0920 hn        1 H07      0.449300
     38 H7          8.7830    6.6960   -1.7800 h5        1 H07      0.055100
     39 H8         10.0000    2.7670    0.2020 h2        1 H07      0.126700
     40 H9          8.5240    1.0510    2.1350 h1        1 H07      0.089700
     41 H10        10.0490    3.2020    2.7840 h1        1 H07      0.044700
     42 H11         9.8340    1.7900    3.9350 h1        1 H07      0.044700
     43 H12        11.5250    2.3680    3.5000 h1        1 H07      0.044700
     44 H13        11.2410    0.2290   -0.4880 h1        1 H07      0.093700
     45 H14         8.4430   -0.7680    0.5940 h1        1 H07      0.089700
     46 H15         8.8810   -1.4640   -1.6870 h1        1 H07      0.079700
     47 H16        10.4570   -1.0370   -2.5390 h1        1 H07      0.079700
     48 H17         8.4560   -3.9560    0.6940 ho        1 H07      0.490000
@<TRIPOS>BOND
     1    1    2 1   
     2    2    3 ar  
     3    2    5 ar  
     4    3    4 ar  
     5    3   32 1   
     6    4    7 ar  
     7    4   33 1   
     8    5    6 ar  
     9    5   34 1   
    10    6    7 ar  
    11    6   35 1   
    12    7    8 1   
    13    8    9 1   
    14    9   10 2   
    15    9   18 1   
    16   10   11 1   
    17   11   12 ar  
    18   11   17 ar  
    19   12   13 1   
    20   12   14 ar  
    21   13   36 1   
    22   13   37 1   
    23   14   15 ar  
    24   15   16 ar  
    25   15   38 1   
    26   16   17 ar  
    27   17   18 1   
    28   18   19 1   
    29   19   20 1   
    30   19   23 1   
    31   19   39 1   
    32   20   21 1   
    33   20   25 1   
    34   20   40 1   
    35   21   22 1   
    36   22   41 1   
    37   22   42 1   
    38   22   43 1   
    39   23   24 1   
    40   24   25 1   
    41   24   27 1   
    42   24   44 1   
    43   25   26 1   
    44   25   45 1   
    45   26   29 1   
    46   27   28 1   
    47   27   46 1   
    48   27   47 1   
    49   28   29 1   
    50   29   30 1   
    51   29   31 2   
    52   30   48 1   
@<TRIPOS>SUBSTRUCTURE
     1 H07         1 TEMP              0 ****  ****    0 ROOT
