@<TRIPOS>MOLECULE
H0E
   61    65     1     0     0
SMALL
bcc


@<TRIPOS>ATOM
      1 C22         1.0640   -4.7480   -2.9670 ca        1 H0E     -0.097500
      2 O1         -2.3010   -0.8270   -1.8310 oh        1 H0E     -0.556800
      3 C15         4.5050   -1.6920    1.1870 c3        1 H0E     -0.080400
      4 C14         4.0840   -0.9100    2.4250 c3        1 H0E     -0.079400
      5 C20         0.0110   -5.2230   -0.8460 ca        1 H0E     -0.097500
      6 N1         -4.6330   -0.1620    0.0940 n2        1 H0E     -0.587900
      7 S1          2.7590    1.5170   -0.4380 sy        1 H0E      1.531200
      8 C16         4.0380   -0.8640   -0.0320 c3        1 H0E      0.254500
      9 C17         3.2820   -1.7460   -1.0430 c3        1 H0E      0.093400
     10 C11        -1.6470    1.7500    0.3560 ca        1 H0E      0.249600
     11 C5         -2.1710   -0.4440   -0.4890 c3        1 H0E      0.186100
     12 C4         -3.4330    0.3110    0.0320 c2        1 H0E      0.552200
     13 C3         -5.6710    0.6700    0.6470 c3        1 H0E      0.107800
     14 C6         -1.0770    0.5640   -0.2260 ca        1 H0E     -0.244300
     15 C2         -5.2220    1.7950    1.6090 c3        1 H0E     -0.091000
     16 C9          0.5440    2.7070    0.4650 ca        1 H0E      0.038000
     17 C8          1.1130    1.5610   -0.1060 ca        1 H0E     -0.444500
     18 C7          0.2770    0.4780   -0.4460 ca        1 H0E      0.065000
     19 C10        -0.8220    2.8260    0.7070 ca        1 H0E     -0.223000
     20 N2         -3.0240    1.6200    0.4580 nh        1 H0E     -0.664000
     21 C12        -3.9640    2.5180    1.0620 c3        1 H0E      0.229800
     22 O2          2.9640    1.2060   -1.8020 o         1 H0E     -0.663800
     23 O3          3.3210    2.7380   -0.0000 o         1 H0E     -0.663800
     24 N3          3.3080    0.2870    0.4690 n3        1 H0E     -0.821500
     25 C13         3.2310    0.2620    1.9150 c3        1 H0E      0.228800
     26 O4          2.1470   -2.3180   -0.3850 os        1 H0E     -0.337900
     27 C18         1.5540   -3.3810   -1.0460 ca        1 H0E      0.114100
     28 C19         0.6850   -4.1580   -0.2580 ca        1 H0E     -0.176000
     29 C21         0.2000   -5.5230   -2.1970 ca        1 H0E     -0.158000
     30 C23         1.7470   -3.6710   -2.4020 ca        1 H0E     -0.176000
     31 H22         1.2080   -4.9800   -4.0330 ha        1 H0E      0.133000
     32 HO1        -2.3740   -0.0250   -2.3650 ho        1 H0E      0.412000
     33 H15         5.6130   -1.8300    1.1510 hc        1 H0E      0.058700
     34 H15A        4.0240   -2.7010    1.1730 hc        1 H0E      0.058700
     35 H14         3.4900   -1.5480    3.1230 hc        1 H0E      0.052200
     36 H14A        4.9760   -0.5280    2.9800 hc        1 H0E      0.052200
     37 H20        -0.6740   -5.8330   -0.2390 ha        1 H0E      0.133000
     38 H16         4.9430   -0.4830   -0.6000 h1        1 H0E      0.058700
     39 H17         2.9300   -1.1390   -1.9210 h1        1 H0E      0.064200
     40 H17A        3.9760   -2.5560   -1.3900 h1        1 H0E      0.064200
     41 H5         -2.0280   -1.4030    0.0800 h1        1 H0E      0.116700
     42 H3         -6.2440    1.1290   -0.2090 h1        1 H0E      0.069700
     43 H3A        -6.3730   -0.0180    1.1990 h1        1 H0E      0.069700
     44 H1         -4.0980    0.4470    2.9020 hc        1 H0E      0.042700
     45 H1A        -4.5950    2.0070    3.6830 hc        1 H0E      0.042700
     46 H1B        -5.8230    0.7070    3.3920 hc        1 H0E      0.042700
     47 H9          1.2080    3.5530    0.7300 ha        1 H0E      0.164000
     48 H7          0.7140   -0.4390   -0.8830 ha        1 H0E      0.165000
     49 H10        -1.2350    3.7400    1.1530 ha        1 H0E      0.147000
     50 H12        -4.2870    3.2690    0.2840 h1        1 H0E      0.053200
     51 H12A       -3.4660    3.0800    1.9020 h1        1 H0E      0.053200
     52 H13         2.1600    0.1310    2.2370 h1        1 H0E      0.046200
     53 H13A        3.6110    1.2380    2.3280 h1        1 H0E      0.046200
     54 H19         0.5470   -3.9090    0.8030 ha        1 H0E      0.142500
     55 H21        -0.3370   -6.3680   -2.6510 ha        1 H0E      0.134000
     56 H23         2.4160   -3.0600   -3.0230 ha        1 H0E      0.142500
     57 H24        -7.2560    2.3260    2.1440 hc        1 H0E      0.042700
     58 H24A       -6.0340    3.6360    2.4290 hc        1 H0E      0.042700
     59 H24B       -6.5850    3.2610    0.7430 hc        1 H0E      0.042700
     60 C24        -6.3380    2.8160    1.7360 c3        1 H0E     -0.089100
     61 C1         -4.9140    1.2040    2.9750 c3        1 H0E     -0.089100
@<TRIPOS>BOND
     1    1   29 ar  
     2    1   30 ar  
     3    1   31 1   
     4    2   11 1   
     5    2   32 1   
     6    3    4 1   
     7    3    8 1   
     8    3   33 1   
     9    3   34 1   
    10    4   25 1   
    11    4   35 1   
    12    4   36 1   
    13    5   28 ar  
    14    5   29 ar  
    15    5   37 1   
    16    6   12 2   
    17    6   13 1   
    18    7   17 1   
    19    7   22 2   
    20    7   23 2   
    21    7   24 1   
    22    8    9 1   
    23    8   24 1   
    24    8   38 1   
    25    9   26 1   
    26    9   39 1   
    27    9   40 1   
    28   10   14 ar  
    29   10   19 ar  
    30   10   20 1   
    31   11   12 1   
    32   11   14 1   
    33   11   41 1   
    34   12   20 1   
    35   13   15 1   
    36   13   42 1   
    37   13   43 1   
    38   14   18 ar  
    39   15   21 1   
    40   15   60 1   
    41   15   61 1   
    42   16   17 ar  
    43   16   19 ar  
    44   16   47 1   
    45   17   18 ar  
    46   18   48 1   
    47   19   49 1   
    48   20   21 1   
    49   21   50 1   
    50   21   51 1   
    51   24   25 1   
    52   25   52 1   
    53   25   53 1   
    54   26   27 1   
    55   27   28 ar  
    56   27   30 ar  
    57   28   54 1   
    58   29   55 1   
    59   30   56 1   
    60   44   61 1   
    61   45   61 1   
    62   46   61 1   
    63   57   60 1   
    64   58   60 1   
    65   59   60 1   
@<TRIPOS>SUBSTRUCTURE
     1 H0E         1 TEMP              0 ****  ****    0 ROOT
