@<TRIPOS>MOLECULE
H0E
   61    58     1     0     0
SMALL
bcc


@<TRIPOS>ATOM
      1 C22        -6.3020    1.9540    5.4300 c1        1 H0E     -0.104000
      2 O1         -0.1750   -2.1730   -4.0890 oh        1 H0E     -0.298000
      3 C15        -0.8250    3.8910    2.9770 c3        1 H0E     -0.158000
      4 C14         0.3390    4.3970    2.1440 c3        1 H0E     -0.166000
      5 C20        -5.8720    0.3620    3.6710 c1        1 H0E     -0.133000
      6 N1          2.8740   -3.0930   -4.1690 n1        1 H0E     -0.201000
      7 S1         -1.2930    1.7920   -0.3060 ss        1 H0E      2.863000
      8 C16        -1.3900    2.6300    2.1950 c3        1 H0E      0.017000
      9 C17        -2.9500    2.7360    2.0460 c3        1 H0E     -0.045000
     10 C11         1.1610   -1.6700   -1.6390 c1        1 H0E      0.153000
     11 C5          0.7920   -1.2680   -3.3170 c3        1 H0E      0.137000
     12 C4          2.2900   -2.1210   -3.0430 c2        1 H0E      0.038000
     13 C3          4.0950   -4.1620   -3.5390 c2        1 H0E     -0.092000
     14 C6          0.4310   -1.1240   -2.3400 c1        1 H0E     -0.173000
     15 C1          5.0420   -2.9560   -4.2060 c3        1 H0E     -0.207500
     16 C2          4.3010   -3.9700   -3.3330 c3        1 H0E     -0.084000
     17 C9          0.6680   -0.1350    0.1920 c1        1 H0E      0.032000
     18 C8         -0.1550    0.4820   -0.5960 c1        1 H0E     -0.887000
     19 C7         -0.3210    0.0500   -1.8570 c2        1 H0E      0.051000
     20 C10         1.3500   -1.2050   -0.2570 c1        1 H0E     -0.208000
     21 N2          2.2430   -2.4090   -2.5630 n3        1 H0E     -0.249000
     22 C12         3.5020   -3.1320   -2.1080 c3        1 H0E     -0.018000
     23 O2         -1.4160    2.6480   -1.4670 o         1 H0E     -0.936500
     24 O3         -2.6350    1.2980   -0.1790 o         1 H0E     -0.936500
     25 N3         -0.8340    2.6700    1.0570 n2        1 H0E     -0.838000
     26 C13         0.5710    3.4410    1.2680 c3        1 H0E     -0.005000
     27 O4         -3.5300    3.2120    3.2980 os        1 H0E     -0.213000
     28 C18        -4.5600    2.3710    3.8140 c2        1 H0E      0.071000
     29 C19        -4.8550    1.1730    3.1830 c1        1 H0E     -0.210000
     30 C21        -6.5960    0.7530    4.7960 c1        1 H0E     -0.133000
     31 C23        -5.2870    2.7630    4.9430 c2        1 H0E     -0.157000
     32 C24         5.3180   -4.8760   -2.6960 c3        1 H0E     -0.207500
     33 H22        -6.8000    2.2220    6.2030 ha        1 H0E      0.132000
     34 HO1        -0.5140   -1.7160   -4.8090 ho        1 H0E      0.223000
     35 H15        -0.5110    3.6240    3.8810 hc        1 H0E      0.099000
     36 H15A       -1.5400    4.6060    3.0520 hc        1 H0E      0.099000
     37 H14         1.1270    4.5380    2.7080 hc        1 H0E      0.092000
     38 H14A        0.0990    5.2100    1.6940 hc        1 H0E      0.092000
     39 H20        -6.0830   -0.4990    3.2160 ha        1 H0E      0.132000
     40 H16        -1.1430    1.7900    2.6700 h1        1 H0E      0.093000
     41 H17        -3.1760    3.3870    1.2980 h1        1 H0E      0.118000
     42 H17A       -3.3130    1.8640    1.8350 h1        1 H0E      0.118000
     43 H5          0.8240   -0.4800   -3.9060 h1        1 H0E      0.113000
     44 H3          4.5030   -4.6680   -4.2580 ha        1 H0E      0.109500
     45 H3A         3.6900   -4.9320   -2.9580 ha        1 H0E      0.109500
     46 H1          5.6350   -2.4080   -3.6440 hc        1 H0E      0.082167
     47 H1A         5.5860   -3.4420   -4.8910 hc        1 H0E      0.082167
     48 H1B         4.3940   -2.3770   -4.6560 hc        1 H0E      0.082167
     49 H9          0.8190    0.1980    1.0970 ha        1 H0E      0.153000
     50 H7         -0.9480    0.4710   -2.4180 ha        1 H0E      0.167000
     51 H10         1.9910   -1.6880    0.3540 ha        1 H0E      0.148000
     52 H12         4.1180   -2.4740   -1.7300 h1        1 H0E      0.092500
     53 H12A        3.2540   -3.7730   -1.4010 h1        1 H0E      0.092500
     54 H13         1.2400    2.8250    1.6140 h1        1 H0E      0.086500
     55 H13A        0.8700    3.8210    0.4340 h1        1 H0E      0.086500
     56 H19        -4.3630    0.9050    2.4170 ha        1 H0E      0.172000
     57 H21        -7.3040    0.1880    5.1350 ha        1 H0E      0.132000
     58 H23        -5.0660    3.6630    5.4170 ha        1 H0E      0.146000
     59 H24         5.7870   -4.3850   -1.9600 hc        1 H0E      0.082167
     60 H24A        5.9660   -5.1550   -3.3660 hc        1 H0E      0.082167
     61 H24B        4.8800   -5.6440   -2.3360 hc        1 H0E      0.082167
@<TRIPOS>BOND
     1    1   31 1   
     2    1   33 1   
     3    2   11 1   
     4    2   34 1   
     5    3    4 1   
     6    3    8 1   
     7    3   35 1   
     8    3   36 1   
     9    4   26 1   
    10    4   37 1   
    11    4   38 1   
    12    5   30 1   
    13    5   39 1   
    14    6   12 1   
    15    7   23 1   
    16    7   24 1   
    17    8    9 1   
    18    8   25 1   
    19    8   40 1   
    20    9   27 1   
    21    9   41 1   
    22    9   42 1   
    23   10   20 1   
    24   10   21 1   
    25   11   12 1   
    26   11   14 1   
    27   11   43 1   
    28   12   21 1   
    29   13   16 1   
    30   13   44 1   
    31   13   45 1   
    32   14   19 1   
    33   15   16 1   
    34   15   46 1   
    35   15   47 1   
    36   15   48 1   
    37   16   22 1   
    38   16   32 1   
    39   17   18 1   
    40   17   49 1   
    41   18   19 1   
    42   19   50 1   
    43   20   51 1   
    44   21   22 1   
    45   22   52 1   
    46   22   53 1   
    47   25   26 1   
    48   26   54 1   
    49   26   55 1   
    50   27   28 1   
    51   28   29 1   
    52   28   31 1   
    53   29   56 1   
    54   30   57 1   
    55   31   58 1   
    56   32   59 1   
    57   32   60 1   
    58   32   61 1   
@<TRIPOS>SUBSTRUCTURE
     1 H0E         1 TEMP              0 ****  ****    0 ROOT
