@<TRIPOS>MOLECULE
H0E
   61    57     1     0     0
SMALL
bcc


@<TRIPOS>ATOM
      1 C22         0.0360   -0.8310   -0.1000 c2        1 H0E     -0.401000
      2 O1         -1.7960   -4.3840   -0.7150 oh        1 H0E     -0.269000
      3 C15        -1.1140    4.7640    7.3680 c3        1 H0E     -0.275000
      4 C14        -0.8340    0.1100    5.5190 c1        1 H0E      0.167000
      5 C20         2.0210   -1.6830    1.1170 c1        1 H0E      0.190000
      6 N1          1.0460   -5.1520   -0.9680 n2        1 H0E     -0.222000
      7 S1         -2.9010   -3.2040    4.9490 s6        1 H0E      2.880000
      8 C16        -2.6140   -1.1250    3.3360 c2        1 H0E     -0.011000
      9 C17        -2.0810   -0.0390    2.7360 c2        1 H0E     -0.165000
     10 C11        -0.3080   -5.6550    2.2780 c2        1 H0E      0.178000
     11 C5         -0.9050   -4.3110    0.3580 c3        1 H0E      0.107000
     12 C4          0.3810   -5.1710    0.1220 c2        1 H0E      0.043000
     13 C3          3.8550   -7.2120   -0.5100 c2        1 H0E     -0.097000
     14 C6         -1.4670   -4.8720    1.6840 c3        1 H0E     -0.168000
     15 C2          3.7070   -7.3740    0.8780 c1        1 H0E     -0.142000
     16 C9         -1.1420   -5.1940    4.4750 c2        1 H0E      0.185000
     17 C8         -1.9860   -4.1940    3.9800 c2        1 H0E     -1.006000
     18 C7         -2.1280   -3.9560    2.6110 c1        1 H0E     -0.063000
     19 C10        -0.2780   -5.9190    3.6470 c2        1 H0E     -0.331000
     20 N2          0.6340   -5.9230    1.3330 n3        1 H0E     -0.288000
     21 C12         3.5850   -7.5360    2.0600 c1        1 H0E     -0.210000
     22 O2         -4.2640   -3.3020    4.6360 o         1 H0E     -0.935500
     23 O3         -2.5770   -3.4910    6.2990 o         1 H0E     -0.935500
     24 N3         -2.3420   -1.6730    4.5830 n3        1 H0E     -0.647000
     25 C13        -1.5820   -0.9900    5.5360 c2        1 H0E     -0.350000
     26 O4         -1.0400    0.6850    3.3170 os        1 H0E     -0.191000
     27 C18        -1.2170    2.0740    3.2410 c2        1 H0E     -0.051000
     28 C19        -0.6260    2.8370    4.1620 c2        1 H0E     -0.250000
     29 C21         0.8870   -1.0210    1.0480 c2        1 H0E     -0.401000
     30 C23        -1.1190   -0.1930   -0.1100 c1        1 H0E      0.190000
     31 H22         0.3940   -1.2580   -1.0620 ha        1 H0E      0.209500
     32 HO1        -2.0410   -5.3090   -0.8490 ho        1 H0E      0.205000
     33 H15        -0.8730    5.8220    7.1260 hc        1 H0E      0.068500
     34 H15A       -0.9580    4.1310    6.4660 hc        1 H0E      0.068500
     35 H14        -2.1750    4.6910    7.6920 hc        1 H0E      0.068500
     36 H14A       -0.4520    4.4100    8.1880 hc        1 H0E      0.068500
     37 H20        -0.6660    3.9310    4.0990 ha        1 H0E      0.140000
     38 H16        -1.6090   -1.4660    6.5580 h4        1 H0E      0.208000
     39 H17        -2.4130    0.3140    1.7470 h4        1 H0E      0.169000
     40 H17A       -3.3500   -1.7290    2.7520 h4        1 H0E      0.193000
     41 H5         -0.6310   -3.2210    0.4440 h1        1 H0E      0.179000
     42 H3          5.4300   -3.0140   -0.6370 hc        1 H0E      0.068500
     43 H3A         1.8670   -5.7190   -1.0440 hn        1 H0E      0.172000
     44 H1          6.0450   -2.0060    0.7390 hc        1 H0E      0.068500
     45 H1A         4.3010   -2.5140    0.6990 hc        1 H0E      0.068500
     46 H1B         5.6040   -3.7430    1.0180 hc        1 H0E      0.068500
     47 H9          0.4530   -6.6130    4.0820 ha        1 H0E      0.154000
     48 H7         -2.3040   -5.6100    1.4440 hc        1 H0E      0.187000
     49 H10        -1.1120   -5.3840    5.5680 ha        1 H0E      0.165000
     50 H12         1.4920   -6.3960    1.5160 hn        1 H0E      0.263000
     51 H12A        3.5010   -7.6890    3.1070 ha        1 H0E      0.230000
     52 H13         1.1370    0.5850    4.1880 ha        1 H0E      0.002000
     53 H13A        1.5650    0.3030    3.7420 ha        1 H0E      0.002000
     54 H19        -0.0760    2.4070    5.0120 ha        1 H0E      0.140000
     55 H21         0.5380   -0.5350    1.9980 ha        1 H0E      0.209500
     56 H23        -1.8060    2.4270    2.3830 h4        1 H0E      0.139000
     57 H24         4.4280   -6.0240   -2.1800 ha        1 H0E      0.132000
     58 H24A        4.6210   -5.2060   -0.5240 ha        1 H0E      0.132000
     59 H24B        3.5750   -8.0980   -1.1120 ha        1 H0E      0.144000
     60 C24         4.3190   -6.1000   -1.0900 c2        1 H0E     -0.179000
     61 C1          5.3440   -2.8200    0.4540 c3        1 H0E     -0.275000
@<TRIPOS>BOND
     1    1   29 1   
     2    1   30 1   
     3    1   31 1   
     4    2   11 1   
     5    2   32 1   
     6    3   33 1   
     7    3   34 1   
     8    3   35 1   
     9    3   36 1   
    10    4   25 1   
    11    5   29 1   
    12    6   12 1   
    13    6   43 1   
    14    7   17 1   
    15    7   22 1   
    16    7   23 1   
    17    7   24 1   
    18    8    9 1   
    19    8   24 1   
    20    8   40 1   
    21    9   26 1   
    22    9   39 1   
    23   10   14 1   
    24   10   19 1   
    25   10   20 1   
    26   11   12 1   
    27   11   14 1   
    28   11   41 1   
    29   12   20 1   
    30   13   15 1   
    31   13   59 1   
    32   13   60 1   
    33   14   18 1   
    34   14   48 1   
    35   15   21 1   
    36   16   17 1   
    37   16   19 1   
    38   16   49 1   
    39   17   18 1   
    40   19   47 1   
    41   20   50 1   
    42   21   51 1   
    43   24   25 1   
    44   25   38 1   
    45   26   27 1   
    46   27   28 1   
    47   27   56 1   
    48   28   37 1   
    49   28   54 1   
    50   29   55 1   
    51   42   61 1   
    52   44   61 1   
    53   45   61 1   
    54   46   61 1   
    55   52   53 1   
    56   57   60 1   
    57   58   60 1   
@<TRIPOS>SUBSTRUCTURE
     1 H0E         1 TEMP              0 ****  ****    0 ROOT
