@<TRIPOS>MOLECULE
H0E
   61    58     1     0     0
SMALL
bcc


@<TRIPOS>ATOM
      1 C22         0.7170    0.7500   -0.1850 c1        1 H0E     -0.077000
      2 O1         -0.0700   -3.4240   -0.3200 oh        1 H0E     -0.282000
      3 C15        -1.6980    1.2310    5.9030 c3        1 H0E     -0.215000
      4 C14        -0.9980   -1.0920    6.4680 c1        1 H0E      0.159000
      5 C20         1.1090    2.3800    1.5420 c1        1 H0E     -0.052000
      6 N1          1.6000   -5.7380   -1.3130 n2        1 H0E     -0.218000
      7 S1         -1.4940   -3.1410    4.7130 s4        1 H0E      1.466000
      8 C16        -4.0380   -0.1250    4.5000 c2        1 H0E     -0.101000
      9 C17        -3.9940    0.9990    3.7670 c2        1 H0E     -0.226000
     10 C11         0.6730   -5.7370    2.1000 c2        1 H0E      0.221000
     11 C5          0.9360   -4.0450    0.4330 c3        1 H0E      0.149000
     12 C4          1.2360   -5.4920   -0.1120 c2        1 H0E      0.039000
     13 C3          1.4000   -9.2170    0.6360 c1        1 H0E     -0.020000
     14 C6          0.5860   -4.3150    1.8740 c2        1 H0E     -0.320000
     15 C2          0.5260  -10.0360    1.2740 c1        1 H0E     -0.203000
     16 C9          0.0460   -5.4160    4.4000 c2        1 H0E     -0.006000
     17 C8          0.0180   -3.9560    4.2140 c3        1 H0E     -0.558000
     18 C7          0.2740   -3.4380    2.8640 c1        1 H0E     -0.197000
     19 C10         0.3690   -6.2750    3.4030 c2        1 H0E     -0.225000
     20 N2          1.0390   -6.4180    0.9880 n3        1 H0E     -0.300000
     21 C12        -0.3180  -10.6520    1.8900 c1        1 H0E     -0.081000
     22 O2         -2.2360   -4.1040    5.5060 o         1 H0E     -0.749000
     23 O3         -0.7490   -2.2780    6.0860 os        1 H0E     -0.368000
     24 N3         -2.9900   -0.7900    5.1370 n2        1 H0E     -0.196000
     25 C13        -1.9980   -0.2210    5.7460 c2        1 H0E     -0.096000
     26 O4          0.2780   -0.7860    3.1030 oh        1 H0E     -0.363000
     27 C18         0.4320    0.0780    2.0770 c2        1 H0E      0.146000
     28 C19         0.4330    1.5130    2.5150 c3        1 H0E     -0.217000
     29 C21         0.8760    1.6660   -0.9480 c1        1 H0E     -0.228000
     30 C23         0.5280   -0.2620    0.7640 c2        1 H0E     -0.242000
     31 H22         1.0400    2.4520   -1.6380 ha        1 H0E      0.221000
     32 HO1        -0.9200   -3.7880   -0.0440 ho        1 H0E      0.205000
     33 H15        -2.6330    1.8450    5.9180 hc        1 H0E      0.102667
     34 H15A        0.3050   -1.7700    2.7840 ho        1 H0E      0.311000
     35 H14        -1.1310    1.4060    6.8510 hc        1 H0E      0.102667
     36 H14A       -1.0640    1.5670    5.0420 hc        1 H0E      0.102667
     37 H20        -0.6330    1.7910    2.7580 hc        1 H0E      0.103500
     38 H16        -4.9850   -0.6950    4.6090 h4        1 H0E      0.150000
     39 H17        -3.0780    1.5840    3.6060 ha        1 H0E      0.124000
     40 H17A       -4.8880    1.3740    3.2530 ha        1 H0E      0.124000
     41 H5          1.8470   -3.3980    0.3090 h1        1 H0E      0.160000
     42 H3          5.0440    3.4450    1.1810 hc        1 H0E      0.069750
     43 H3A         1.7720   -6.6890   -1.5630 hn        1 H0E      0.145000
     44 H1          3.3580    3.0830    1.7600 hc        1 H0E      0.069750
     45 H1A         4.1570    4.6620    2.1920 hc        1 H0E      0.069750
     46 H1B         4.7450    3.1170    2.9390 hc        1 H0E      0.069750
     47 H9          0.3960   -7.3630    3.5570 ha        1 H0E      0.147000
     48 H7          0.8430   -3.5160    4.8670 h1        1 H0E      0.218000
     49 H10        -0.2190   -5.7900    5.4060 ha        1 H0E      0.160000
     50 H12         1.1480   -7.4390    0.9110 hn        1 H0E      0.309000
     51 H12A       -1.0620  -11.1820    2.4330 ha        1 H0E      0.239000
     52 H13         1.1200   -0.3820    5.3940 ha        1 H0E      0.005000
     53 H13A        0.7490    0.1840    5.3300 ha        1 H0E      0.005000
     54 H19         1.0240    1.6040    3.4760 hc        1 H0E      0.103500
     55 H21         0.5030    3.2280    1.1790 ha        1 H0E      0.026000
     56 H23         0.4770   -1.3070    0.4190 ha        1 H0E      0.170000
     57 H24         2.4440   -9.0270   -1.1670 hc        1 H0E      0.123667
     58 H24A        3.4460   -9.3280    0.3080 hc        1 H0E      0.123667
     59 H24B        2.5410  -10.7090   -0.4650 hc        1 H0E      0.123667
     60 C24         2.4900   -9.6200   -0.2130 c3        1 H0E     -0.243000
     61 C1          4.3260    3.5770    2.0180 c3        1 H0E     -0.283000
@<TRIPOS>BOND
     1    1   29 1   
     2    1   30 1   
     3    2   11 1   
     4    2   32 1   
     5    3   25 1   
     6    3   33 1   
     7    3   35 1   
     8    3   36 1   
     9    4   23 1   
    10    4   25 1   
    11    5   28 1   
    12    5   55 1   
    13    6   12 1   
    14    6   43 1   
    15    7   17 1   
    16    7   22 1   
    17    7   23 1   
    18    8    9 1   
    19    8   24 1   
    20    8   38 1   
    21    9   39 1   
    22    9   40 1   
    23   10   14 1   
    24   10   19 1   
    25   10   20 1   
    26   11   12 1   
    27   11   14 1   
    28   11   41 1   
    29   12   20 1   
    30   13   15 1   
    31   13   60 1   
    32   14   18 1   
    33   15   21 1   
    34   16   17 1   
    35   16   19 1   
    36   16   49 1   
    37   17   18 1   
    38   17   48 1   
    39   19   47 1   
    40   20   50 1   
    41   21   51 1   
    42   24   25 1   
    43   26   27 1   
    44   26   34 1   
    45   27   28 1   
    46   27   30 1   
    47   28   37 1   
    48   28   54 1   
    49   29   31 1   
    50   30   56 1   
    51   42   61 1   
    52   44   61 1   
    53   45   61 1   
    54   46   61 1   
    55   52   53 1   
    56   57   60 1   
    57   58   60 1   
    58   59   60 1   
@<TRIPOS>SUBSTRUCTURE
     1 H0E         1 TEMP              0 ****  ****    0 ROOT
