@<TRIPOS>MOLECULE
H0K
   45    49     1     0     0
SMALL
bcc


@<TRIPOS>ATOM
      1 O2         -0.0920   -0.0220   -0.2270 oh        1 H0K     -0.495100
      2 C19         1.2780   -0.0180   -0.1170 ca        1 H0K      0.130100
      3 C18         1.9430   -0.2560    1.0940 ca        1 H0K     -0.186000
      4 C17         3.3340   -0.2340    1.1250 ca        1 H0K     -0.080000
      5 C20         2.0010    0.2400   -1.2940 ca        1 H0K     -0.186000
      6 C21         3.3900    0.2540   -1.2450 ca        1 H0K     -0.080000
      7 C16         4.0710    0.0190   -0.0400 cp        1 H0K     -0.079000
      8 C13         5.5310    0.0370   -0.0020 cp        1 H0K     -0.021000
      9 C12         6.2080    0.6250    1.0770 ca        1 H0K     -0.119500
     10 C11         7.5980    0.6410    1.1150 ca        1 H0K     -0.115500
     11 C14         6.2790   -0.5300   -1.0430 ca        1 H0K     -0.119500
     12 C15         7.6700   -0.5160   -1.0070 ca        1 H0K     -0.115500
     13 C10         8.3460    0.0670    0.0740 ca        1 H0K     -0.017000
     14 C9          9.7910    0.1020    0.1450 cc        1 H0K     -0.019300
     15 C7         10.6480    0.9330    0.8620 cd        1 H0K     -0.249600
     16 C6         10.7380    2.0800    1.7970 c3        1 H0K      0.051200
     17 N2         10.6450   -0.7790   -0.5690 na        1 H0K     -0.035600
     18 N1         11.9470   -0.5790   -0.3450 nc        1 H0K     -0.461800
     19 C8         12.0070    0.4620    0.5130 cd        1 H0K      0.337800
     20 C22        12.9700    1.2900    1.2130 ca        1 H0K     -0.110500
     21 C5         12.2300    2.2520    1.9780 ca        1 H0K     -0.081300
     22 C4         12.9000    3.1790    2.7510 ca        1 H0K     -0.124000
     23 C3         14.3040    3.1610    2.7730 ca        1 H0K     -0.096000
     24 C23        14.3500    1.2740    1.2370 ca        1 H0K     -0.098000
     25 C2         15.0210    2.2260    2.0310 ca        1 H0K     -0.094300
     26 C1         16.5150    2.1900    2.0390 c3        1 H0K      0.176700
     27 O1         17.0120    3.2010    2.9050 oh        1 H0K     -0.599800
     28 H15        -0.4620   -0.2090    0.6480 ho        1 H0K      0.420000
     29 H14         1.3710   -0.4600    2.0100 ha        1 H0K      0.144500
     30 H13         3.8590   -0.4260    2.0730 ha        1 H0K      0.138000
     31 H16         1.4610    0.4270   -2.2330 ha        1 H0K      0.144500
     32 H17         3.9620    0.4620   -2.1620 ha        1 H0K      0.138000
     33 H10         5.6350    1.0840    1.8970 ha        1 H0K      0.138000
     34 H9          8.1230    1.1080    1.9630 ha        1 H0K      0.135500
     35 H11         5.7610   -0.9960   -1.8950 ha        1 H0K      0.138000
     36 H12         8.2290   -0.9580   -1.8450 ha        1 H0K      0.135500
     37 H7         10.2410    1.8590    2.7770 hc        1 H0K      0.069200
     38 H8         10.2770    3.0060    1.3660 hc        1 H0K      0.069200
     39 H1         10.3480   -1.5440   -1.1260 hn        1 H0K      0.319700
     40 H6         12.3520    3.9240    3.3440 ha        1 H0K      0.135000
     41 H5         14.8470    3.8970    3.3880 ha        1 H0K      0.154000
     42 H18        14.9180    0.5370    0.6520 ha        1 H0K      0.143000
     43 H3         16.9030    2.3620    0.9970 h1        1 H0K      0.032700
     44 H4         16.8680    1.1830    2.3950 h1        1 H0K      0.032700
     45 H2         17.9730    3.1350    2.8700 ho        1 H0K      0.403000
@<TRIPOS>BOND
     1    1    2 1   
     2    1   28 1   
     3    2    3 ar  
     4    2    5 ar  
     5    3    4 ar  
     6    3   29 1   
     7    4    7 ar  
     8    4   30 1   
     9    5    6 ar  
    10    5   31 1   
    11    6    7 ar  
    12    6   32 1   
    13    7    8 1   
    14    8    9 ar  
    15    8   11 ar  
    16    9   10 ar  
    17    9   33 1   
    18   10   13 ar  
    19   10   34 1   
    20   11   12 ar  
    21   11   35 1   
    22   12   13 ar  
    23   12   36 1   
    24   13   14 1   
    25   14   15 2   
    26   14   17 1   
    27   15   16 1   
    28   15   19 1   
    29   16   21 1   
    30   16   37 1   
    31   16   38 1   
    32   17   18 1   
    33   17   39 1   
    34   18   19 2   
    35   19   20 1   
    36   20   21 ar  
    37   20   24 ar  
    38   21   22 ar  
    39   22   23 ar  
    40   22   40 1   
    41   23   25 ar  
    42   23   41 1   
    43   24   25 ar  
    44   24   42 1   
    45   25   26 1   
    46   26   27 1   
    47   26   43 1   
    48   26   44 1   
    49   27   45 1   
@<TRIPOS>SUBSTRUCTURE
     1 H0K         1 TEMP              0 ****  ****    0 ROOT
