@<TRIPOS>MOLECULE
H0K
   45    49     1     0     0
SMALL
bcc


@<TRIPOS>ATOM
      1 O2         -9.0010   -0.8430    0.4040 oh        1 H0K     -0.495100
      2 C19        -7.6500   -0.6250    0.2620 ca        1 H0K      0.130100
      3 C18        -6.8640   -1.3160   -0.6710 ca        1 H0K     -0.186000
      4 C17        -5.5030   -1.0400   -0.7530 ca        1 H0K     -0.080000
      5 C20        -7.0780    0.3400    1.1090 ca        1 H0K     -0.186000
      6 C21        -5.7180    0.6050    1.0090 ca        1 H0K     -0.080000
      7 C16        -4.9160   -0.0790    0.0820 cp        1 H0K     -0.079000
      8 C13        -3.4870    0.2080   -0.0120 cp        1 H0K     -0.021000
      9 C12        -2.5620   -0.8300   -0.1970 ca        1 H0K     -0.119500
     10 C11        -1.2020   -0.5560   -0.2880 ca        1 H0K     -0.115500
     11 C14        -3.0170    1.5260    0.0830 ca        1 H0K     -0.119500
     12 C15        -1.6560    1.8020   -0.0100 ca        1 H0K     -0.115500
     13 C10        -0.7330    0.7640   -0.2000 ca        1 H0K     -0.017000
     14 C9          0.6900    1.0130   -0.2970 cc        1 H0K     -0.019300
     15 C7          1.7790    0.1710   -0.0860 cd        1 H0K     -0.249600
     16 C6          2.2100   -1.1930    0.3020 c3        1 H0K      0.051200
     17 N2          1.2560    2.2650   -0.6530 na        1 H0K     -0.035600
     18 N1          2.5920    2.2680   -0.6960 nc        1 H0K     -0.461800
     19 C8          2.9640    1.0180   -0.3480 cd        1 H0K      0.337800
     20 C22         4.1530    0.2140   -0.1360 ca        1 H0K     -0.110500
     21 C5          3.7190   -1.0970    0.2500 ca        1 H0K     -0.081300
     22 C4          4.6510   -2.0790    0.5170 ca        1 H0K     -0.124000
     23 C3          6.0170   -1.7720    0.4060 ca        1 H0K     -0.096000
     24 C23         5.4960    0.5140   -0.2440 ca        1 H0K     -0.098000
     25 C2          6.4370   -0.4980    0.0320 ca        1 H0K     -0.094300
     26 C1          7.8840   -0.1490   -0.0900 c3        1 H0K      0.176700
     27 O1          8.6770   -1.2910    0.2020 oh        1 H0K     -0.599800
     28 H15        -9.2620   -1.5250   -0.2320 ho        1 H0K      0.420000
     29 H14        -7.3190   -2.0680   -1.3310 ha        1 H0K      0.144500
     30 H13        -4.8830   -1.5770   -1.4880 ha        1 H0K      0.138000
     31 H16        -7.7120    0.8680    1.8350 ha        1 H0K      0.144500
     32 H17        -5.2620    1.3550    1.6740 ha        1 H0K      0.138000
     33 H10        -2.9150   -1.8700   -0.2620 ha        1 H0K      0.138000
     34 H9         -0.4800   -1.3770   -0.4280 ha        1 H0K      0.135500
     35 H11        -3.7320    2.3500    0.2260 ha        1 H0K      0.138000
     36 H12        -1.3170    2.8450    0.0810 ha        1 H0K      0.135500
     37 H7          1.8610   -1.4630    1.3320 hc        1 H0K      0.069200
     38 H8          1.8350   -1.9690   -0.4140 hc        1 H0K      0.069200
     39 H1          0.7480    3.0690   -0.9360 hn        1 H0K      0.319700
     40 H6          4.3400   -3.0910    0.8140 ha        1 H0K      0.135000
     41 H5          6.7680   -2.5500    0.6180 ha        1 H0K      0.154000
     42 H18         5.8300    1.5190   -0.5400 ha        1 H0K      0.143000
     43 H3          8.1020    0.2030   -1.1370 h1        1 H0K      0.032700
     44 H4          8.1360    0.6790    0.6290 h1        1 H0K      0.032700
     45 H2          9.5950   -1.0100    0.1100 ho        1 H0K      0.403000
@<TRIPOS>BOND
     1    1    2 1   
     2    1   28 1   
     3    2    3 ar  
     4    2    5 ar  
     5    3    4 ar  
     6    3   29 1   
     7    4    7 ar  
     8    4   30 1   
     9    5    6 ar  
    10    5   31 1   
    11    6    7 ar  
    12    6   32 1   
    13    7    8 1   
    14    8    9 ar  
    15    8   11 ar  
    16    9   10 ar  
    17    9   33 1   
    18   10   13 ar  
    19   10   34 1   
    20   11   12 ar  
    21   11   35 1   
    22   12   13 ar  
    23   12   36 1   
    24   13   14 1   
    25   14   15 2   
    26   14   17 1   
    27   15   16 1   
    28   15   19 1   
    29   16   21 1   
    30   16   37 1   
    31   16   38 1   
    32   17   18 1   
    33   17   39 1   
    34   18   19 2   
    35   19   20 1   
    36   20   21 ar  
    37   20   24 ar  
    38   21   22 ar  
    39   22   23 ar  
    40   22   40 1   
    41   23   25 ar  
    42   23   41 1   
    43   24   25 ar  
    44   24   42 1   
    45   25   26 1   
    46   26   27 1   
    47   26   43 1   
    48   26   44 1   
    49   27   45 1   
@<TRIPOS>SUBSTRUCTURE
     1 H0K         1 TEMP              0 ****  ****    0 ROOT
