@<TRIPOS>MOLECULE
H0K
   45    35     1     0     0
SMALL
bcc


@<TRIPOS>ATOM
      1 O2         -9.0880   -0.7310   -0.6540 oh        1 H0K     -0.249000
      2 C19        -7.6830   -0.7930   -0.6150 c1        1 H0K      0.085000
      3 C18        -7.0190   -1.8590   -1.2010 c1        1 H0K     -0.129750
      4 C17        -5.6360   -1.9280   -1.1490 c1        1 H0K     -0.129750
      5 C20        -6.9630    0.2050    0.0240 c1        1 H0K     -0.157000
      6 C21        -5.5790    0.1360    0.0760 c1        1 H0K     -0.105750
      7 C16        -4.9160   -0.9300   -0.5100 c1        1 H0K     -0.051000
      8 C13        -3.4030   -0.9560   -0.5350 c1        1 H0K     -0.051000
      9 C12        -2.7030   -1.5590    0.4990 c1        1 H0K     -0.129750
     10 C11        -1.3180   -1.5330    0.5060 c1        1 H0K     -0.129750
     11 C14        -2.7160   -0.3290   -1.5630 c1        1 H0K     -0.105750
     12 C15        -1.3300   -0.3030   -1.5560 c1        1 H0K     -0.105750
     13 C10        -0.6310   -0.9060   -0.5220 c1        1 H0K     -0.051000
     14 C9          0.8810   -0.9070   -0.5320 c1        1 H0K     -0.045500
     15 C7          1.8010   -0.0780    0.0600 c1        1 H0K     -0.177000
     16 C6          1.9610    1.1390    0.8610 c2        1 H0K     -0.043000
     17 N2          1.5610   -1.8880   -1.1900 n2        1 H0K     -0.104500
     18 N1          2.9170   -1.6690   -1.0070 n2        1 H0K     -0.104500
     19 C8          3.0640   -0.5590   -0.2400 c1        1 H0K     -0.045500
     20 C22         4.0740    0.3640    0.3760 c1        1 H0K     -0.003000
     21 C5          3.3860    1.3800    1.0330 c2        1 H0K     -0.074000
     22 C4          4.0950    2.3980    1.6780 c1        1 H0K     -0.123000
     23 C3          5.4850    2.3960    1.6620 c1        1 H0K     -0.105750
     24 C23         5.4710    0.3620    0.3600 c1        1 H0K     -0.098000
     25 C2          6.1740    1.3760    1.0020 c1        1 H0K     -0.051000
     26 C1          7.6820    1.4470    1.0900 c2        1 H0K      0.019000
     27 O1          8.1670    2.3570    0.1290 oh        1 H0K     -0.327000
     28 H15        -9.3490   -0.4310   -1.4500 ho        1 H0K      0.219000
     29 H14        -7.5260   -2.5610   -1.6510 ha        1 H0K      0.138250
     30 H13        -5.1680   -2.6790   -1.5620 ha        1 H0K      0.138250
     31 H16        -7.4300    0.9560    0.4360 ha        1 H0K      0.153000
     32 H17        -5.0730    0.8390    0.5260 ha        1 H0K      0.139750
     33 H10        -3.1870   -2.0010    1.2230 ha        1 H0K      0.138250
     34 H9         -0.8250   -1.9570    1.2340 ha        1 H0K      0.138250
     35 H11        -3.2080    0.0950   -2.2910 ha        1 H0K      0.139750
     36 H12        -0.8470    0.1390   -2.2800 ha        1 H0K      0.139750
     37 H7          1.5380    1.0180    1.7350 ha        1 H0K      0.108500
     38 H8          1.5510    1.8970    0.3980 ha        1 H0K      0.108500
     39 H1          1.1880   -2.5660   -1.6730 DU        1 H0K      0.270000
     40 H6          3.6140    3.1110    2.1390 ha        1 H0K      0.135000
     41 H5          5.9800    3.1070    2.1120 ha        1 H0K      0.139750
     42 H18         5.9530   -0.3500   -0.1010 ha        1 H0K      0.143000
     43 H3          7.9440    1.7470    1.9850 h4        1 H0K      0.072000
     44 H4          8.0610    0.5590    0.9200 h4        1 H0K      0.072000
     45 H2          9.0470    2.4450    0.2210 ho        1 H0K      0.202000
@<TRIPOS>BOND
     1    1    2 1   
     2    1   28 1   
     3    2    5 1   
     4    3    4 1   
     5    3   29 1   
     6    4   30 1   
     7    5   31 1   
     8    6    7 1   
     9    6   32 1   
    10    8   11 1   
    11    9   10 1   
    12    9   33 1   
    13   10   34 1   
    14   11   35 1   
    15   12   13 1   
    16   12   36 1   
    17   14   15 1   
    18   14   17 1   
    19   15   19 1   
    20   16   21 1   
    21   16   37 1   
    22   16   38 1   
    23   17   18 1   
    24   18   19 1   
    25   20   21 1   
    26   20   24 1   
    27   21   22 1   
    28   22   40 1   
    29   23   25 1   
    30   23   41 1   
    31   24   42 1   
    32   26   27 1   
    33   26   43 1   
    34   26   44 1   
    35   27   45 1   
@<TRIPOS>SUBSTRUCTURE
     1 H0K         1 TEMP              0 ****  ****    0 ROOT
