@<TRIPOS>MOLECULE
H0K
   45    49     1     0     0
SMALL
bcc


@<TRIPOS>ATOM
      1 O2         -0.1010   -0.1280    0.1040 oh        1 H0K     -0.495100
      2 C19         1.2710   -0.0750    0.0380 ca        1 H0K      0.130100
      3 C18         1.9690   -0.3890    1.2170 ca        1 H0K     -0.186000
      4 C17         3.3570   -0.3490    1.2110 ca        1 H0K     -0.080000
      5 C20         1.9610    0.2720   -1.1320 ca        1 H0K     -0.186000
      6 C21         3.3520    0.3030   -1.1200 ca        1 H0K     -0.080000
      7 C16         4.0650   -0.0060    0.0470 cp        1 H0K     -0.079000
      8 C13         5.5240    0.0310    0.0550 cp        1 H0K     -0.021000
      9 C12         6.2190    0.5520    1.1560 ca        1 H0K     -0.120000
     10 C11         7.6090    0.5860    1.1630 ca        1 H0K     -0.115500
     11 C14         6.2550   -0.4540   -1.0400 ca        1 H0K     -0.120000
     12 C15         7.6470   -0.4220   -1.0340 ca        1 H0K     -0.115500
     13 C10         8.3400    0.0950    0.0700 ca        1 H0K     -0.017000
     14 C9          9.7860    0.1470    0.1100 cc        1 H0K     -0.019300
     15 C7         10.6490    0.9440    0.8580 cd        1 H0K     -0.249600
     16 C6         10.7450    2.0310    1.8610 c3        1 H0K      0.051200
     17 N2         10.6340   -0.6740   -0.6790 na        1 H0K     -0.035600
     18 N1         11.9380   -0.4690   -0.4720 nc        1 H0K     -0.462800
     19 C8         12.0050    0.5150    0.4490 cd        1 H0K      0.338800
     20 C22        12.9730    1.3120    1.1780 ca        1 H0K     -0.110500
     21 C5         12.2390    2.2130    2.0180 ca        1 H0K     -0.081300
     22 C4         12.9150    3.0990    2.8330 ca        1 H0K     -0.124000
     23 C3         14.3190    3.1000    2.8220 ca        1 H0K     -0.096000
     24 C23        14.3540    1.3150    1.1690 ca        1 H0K     -0.098000
     25 C2         15.0310    2.2240    2.0060 ca        1 H0K     -0.094300
     26 C1         16.5240    2.2090    1.9780 c3        1 H0K      0.176700
     27 O1         17.0280    3.1790    2.8850 oh        1 H0K     -0.599800
     28 H15        -0.4520    0.1090   -0.7660 ho        1 H0K      0.420000
     29 H14         1.4090   -0.6610    2.1220 ha        1 H0K      0.144500
     30 H13         3.9110   -0.6000    2.1300 ha        1 H0K      0.138000
     31 H16         1.4090    0.5200   -2.0490 ha        1 H0K      0.144500
     32 H17         3.8970    0.5810   -2.0350 ha        1 H0K      0.138000
     33 H10         5.6590    0.9450    2.0180 ha        1 H0K      0.138000
     34 H9          8.1480    1.0020    2.0300 ha        1 H0K      0.135500
     35 H11         5.7230   -0.8680   -1.9100 ha        1 H0K      0.138000
     36 H12         8.1920   -0.7980   -1.9130 ha        1 H0K      0.135500
     37 H7         10.2750    1.7420    2.8370 hc        1 H0K      0.069200
     38 H8         10.2620    2.9750    1.5010 hc        1 H0K      0.069200
     39 H1         10.3340   -1.4100   -1.2730 hn        1 H0K      0.319700
     40 H6         12.3710    3.7980    3.4840 ha        1 H0K      0.135000
     41 H5         14.8670    3.8040    3.4690 ha        1 H0K      0.154000
     42 H18        14.9170    0.6250    0.5250 ha        1 H0K      0.143000
     43 H3         16.8860    2.4430    0.9380 h1        1 H0K      0.032700
     44 H4         16.8980    1.1890    2.2710 h1        1 H0K      0.032700
     45 H2         17.9890    3.1270    2.8270 ho        1 H0K      0.403000
@<TRIPOS>BOND
     1    1    2 1   
     2    1   28 1   
     3    2    3 ar  
     4    2    5 ar  
     5    3    4 ar  
     6    3   29 1   
     7    4    7 ar  
     8    4   30 1   
     9    5    6 ar  
    10    5   31 1   
    11    6    7 ar  
    12    6   32 1   
    13    7    8 1   
    14    8    9 ar  
    15    8   11 ar  
    16    9   10 ar  
    17    9   33 1   
    18   10   13 ar  
    19   10   34 1   
    20   11   12 ar  
    21   11   35 1   
    22   12   13 ar  
    23   12   36 1   
    24   13   14 1   
    25   14   15 2   
    26   14   17 1   
    27   15   16 1   
    28   15   19 1   
    29   16   21 1   
    30   16   37 1   
    31   16   38 1   
    32   17   18 1   
    33   17   39 1   
    34   18   19 2   
    35   19   20 1   
    36   20   21 ar  
    37   20   24 ar  
    38   21   22 ar  
    39   22   23 ar  
    40   22   40 1   
    41   23   25 ar  
    42   23   41 1   
    43   24   25 ar  
    44   24   42 1   
    45   25   26 1   
    46   26   27 1   
    47   26   43 1   
    48   26   44 1   
    49   27   45 1   
@<TRIPOS>SUBSTRUCTURE
     1 H0K         1 TEMP              0 ****  ****    0 ROOT
