@<TRIPOS>MOLECULE
H0V
   34    36     1     0     0
SMALL
bcc


@<TRIPOS>ATOM
      1 CAF        -0.0940    0.2250   -0.0320 ca        1 H0V     -0.130500
      2 CAD         1.2970    0.2150   -0.1230 ca        1 H0V     -0.127000
      3 CAC         2.0720   -0.0160    1.0130 ca        1 H0V     -0.132000
      4 CAE         1.4510   -0.2360    2.2430 ca        1 H0V     -0.127000
      5 CAG         0.0610   -0.2260    2.3370 ca        1 H0V     -0.130500
      6 CAN        -0.7230    0.0040    1.1990 ca        1 H0V     -0.081300
      7 CAI        -2.2080    0.0210    1.3000 c3        1 H0V     -0.043100
      8 CAJ        -2.7710   -1.3890    1.4160 c3        1 H0V     -0.007200
      9 CAQ        -4.2350   -1.4160    1.2790 cc        1 H0V     -0.090400
     10 C5         -5.0220   -1.3060    0.0740 ca        1 H0V     -0.404400
     11 C6         -4.7820   -1.1380   -1.3250 ca        1 H0V      0.760200
     12 NAB        -3.4940   -0.9550   -1.7970 nv        1 H0V     -0.956500
     13 N1         -5.8190   -1.1130   -2.2110 nb        1 H0V     -0.839000
     14 C2         -7.1140   -1.1910   -1.7020 ca        1 H0V      0.909900
     15 NAA        -8.1550   -1.0180   -2.6300 nv        1 H0V     -0.922500
     16 N3         -7.4780   -1.3700   -0.3830 nb        1 H0V     -0.800000
     17 C4         -6.4150   -1.4150    0.4720 ca        1 H0V      0.507800
     18 NAM        -6.4500   -1.5870    1.8590 na        1 H0V     -0.286100
     19 CAH        -5.1330   -1.5830    2.3340 cd        1 H0V     -0.137100
     20 HAF        -0.7030    0.4140   -0.9290 ha        1 H0V      0.131000
     21 HAD         1.7830    0.3930   -1.0940 ha        1 H0V      0.131000
     22 HAC         3.1690   -0.0230    0.9400 ha        1 H0V      0.131000
     23 HAE         2.0600   -0.4170    3.1410 ha        1 H0V      0.131000
     24 HAG        -0.4270   -0.3980    3.3070 ha        1 H0V      0.131000
     25 HAI1       -2.5160    0.6140    2.2020 hc        1 H0V      0.059200
     26 HAI2       -2.6500    0.5340    0.4050 hc        1 H0V      0.059200
     27 HAJ1       -2.4780   -1.8130    2.4160 hc        1 H0V      0.045200
     28 HAJ2       -2.3030   -2.0530    0.6390 hc        1 H0V      0.045200
     29 HAH        -4.9330   -1.7050    3.3990 h4        1 H0V      0.168000
     30 HAB1       -2.7550   -1.2150   -1.1890 hn        1 H0V      0.428800
     31 HAB2       -3.3280   -1.0180   -2.7730 hn        1 H0V      0.428800
     32 HAA1       -9.0470   -1.3580   -2.3520 hn        1 H0V      0.419800
     33 HAA2       -7.9170   -1.1690   -3.5840 hn        1 H0V      0.419800
     34 HAM        -7.2670   -1.6710    2.4040 hn        1 H0V      0.309700
@<TRIPOS>BOND
     1    1    2 ar  
     2    1    6 ar  
     3    1   20 1   
     4    2    3 ar  
     5    2   21 1   
     6    3    4 ar  
     7    3   22 1   
     8    4    5 ar  
     9    4   23 1   
    10    5    6 ar  
    11    5   24 1   
    12    6    7 1   
    13    7    8 1   
    14    7   25 1   
    15    7   26 1   
    16    8    9 1   
    17    8   27 1   
    18    8   28 1   
    19    9   10 1   
    20    9   19 2   
    21   10   11 ar  
    22   10   17 ar  
    23   11   12 1   
    24   11   13 ar  
    25   12   30 1   
    26   12   31 1   
    27   13   14 ar  
    28   14   15 1   
    29   14   16 ar  
    30   15   32 1   
    31   15   33 1   
    32   16   17 ar  
    33   17   18 1   
    34   18   19 1   
    35   18   34 1   
    36   19   29 1   
@<TRIPOS>SUBSTRUCTURE
     1 H0V         1 TEMP              0 ****  ****    0 ROOT
