@<TRIPOS>MOLECULE
H0V
   34    36     1     0     0
SMALL
bcc


@<TRIPOS>ATOM
      1 CAF        -0.0900    0.2040   -0.0440 ca        1 H0V     -0.130500
      2 CAD         1.3000    0.1880   -0.1380 ca        1 H0V     -0.127000
      3 CAC         2.0760   -0.0330    0.9990 ca        1 H0V     -0.132000
      4 CAE         1.4570   -0.2350    2.2330 ca        1 H0V     -0.127000
      5 CAG         0.0670   -0.2180    2.3290 ca        1 H0V     -0.130500
      6 CAN        -0.7180    0.0010    1.1900 ca        1 H0V     -0.081300
      7 CAI        -2.2020    0.0250    1.2930 c3        1 H0V     -0.043100
      8 CAJ        -2.7720   -1.3810    1.4220 c3        1 H0V     -0.007200
      9 CAQ        -4.2360   -1.4030    1.2870 cc        1 H0V     -0.090400
     10 C5         -5.0240   -1.3000    0.0830 ca        1 H0V     -0.404400
     11 C6         -4.7860   -1.1450   -1.3180 ca        1 H0V      0.760200
     12 NAB        -3.4970   -0.9720   -1.7940 nh        1 H0V     -0.956500
     13 N1         -5.8240   -1.1230   -2.2020 nb        1 H0V     -0.839000
     14 C2         -7.1190   -1.1900   -1.6910 ca        1 H0V      0.909900
     15 NAA        -8.1600   -1.0200   -2.6190 nh        1 H0V     -0.922500
     16 N3         -7.4810   -1.3570   -0.3690 nb        1 H0V     -0.800000
     17 C4         -6.4170   -1.4000    0.4840 ca        1 H0V      0.507800
     18 NAM        -6.4510   -1.5590    1.8720 na        1 H0V     -0.286100
     19 CAH        -5.1330   -1.5570    2.3450 cd        1 H0V     -0.137100
     20 HAF        -0.7000    0.3850   -0.9430 ha        1 H0V      0.131000
     21 HAD         1.7860    0.3520   -1.1110 ha        1 H0V      0.131000
     22 HAC         3.1730   -0.0440    0.9250 ha        1 H0V      0.131000
     23 HAE         2.0670   -0.4070    3.1320 ha        1 H0V      0.131000
     24 HAG        -0.4200   -0.3760    3.3020 ha        1 H0V      0.131000
     25 HAI1       -2.6440    0.5330    0.3950 hc        1 H0V      0.059200
     26 HAI2       -2.5070    0.6270    2.1910 hc        1 H0V      0.059200
     27 HAJ1       -2.3070   -2.0540    0.6500 hc        1 H0V      0.045700
     28 HAJ2       -2.4790   -1.7980    2.4250 hc        1 H0V      0.045700
     29 HAH        -4.9320   -1.6710    3.4110 h4        1 H0V      0.168000
     30 HAB1       -3.3340   -1.0430   -2.7690 hn        1 H0V      0.428800
     31 HAB2       -2.7580   -1.2300   -1.1850 hn        1 H0V      0.428800
     32 HAA1       -7.9250   -1.1810   -3.5710 hn        1 H0V      0.419800
     33 HAA2       -9.0530   -1.3540   -2.3360 hn        1 H0V      0.419800
     34 HAM        -7.2670   -1.6360    2.4190 hn        1 H0V      0.309700
@<TRIPOS>BOND
     1    1    2 ar  
     2    1    6 ar  
     3    1   20 1   
     4    2    3 ar  
     5    2   21 1   
     6    3    4 ar  
     7    3   22 1   
     8    4    5 ar  
     9    4   23 1   
    10    5    6 ar  
    11    5   24 1   
    12    6    7 1   
    13    7    8 1   
    14    7   25 1   
    15    7   26 1   
    16    8    9 1   
    17    8   27 1   
    18    8   28 1   
    19    9   10 1   
    20    9   19 2   
    21   10   11 ar  
    22   10   17 ar  
    23   11   12 1   
    24   11   13 ar  
    25   12   30 1   
    26   12   31 1   
    27   13   14 ar  
    28   14   15 1   
    29   14   16 ar  
    30   15   32 1   
    31   15   33 1   
    32   16   17 ar  
    33   17   18 1   
    34   18   19 1   
    35   18   34 1   
    36   19   29 1   
@<TRIPOS>SUBSTRUCTURE
     1 H0V         1 TEMP              0 ****  ****    0 ROOT
