@<TRIPOS>MOLECULE
H0Y
   47    43     1     0     0
SMALL
bcc


@<TRIPOS>ATOM
      1 O82        -7.2760   -0.2440    0.0370 o         1 H0Y     -0.541000
      2 C28        -6.6260    0.6580    0.6310 c2        1 H0Y      0.385000
      3 O81        -6.9040    0.9520    1.8250 o         1 H0Y     -0.541000
      4 C24        -5.5490    1.4300   -0.1090 c2        1 H0Y     -0.028000
      5 N23        -4.3190    0.8720   -0.2980 n2        1 H0Y     -0.125000
      6 C25        -5.8180    2.7030   -0.5950 c1        1 H0Y     -0.161000
      7 C26        -4.8490    3.3970   -1.2630 c1        1 H0Y     -0.127500
      8 C27        -3.6170    2.8380   -1.4520 c1        1 H0Y     -0.127500
      9 C22        -3.3500    1.5640   -0.9650 c1        1 H0Y     -0.013000
     10 C19        -2.0210    0.9040   -1.2640 c2        1 H0Y     -0.012000
     11 C20        -1.8430    0.1930   -2.4860 c2        1 H0Y     -0.073000
     12 C21        -0.5710   -0.2850   -2.8440 c1        1 H0Y     -0.148000
     13 C16         0.5170   -0.0650   -2.0060 c1        1 H0Y     -0.063000
     14 C15         1.9690   -0.4410   -2.4350 c3        1 H0Y     -0.121000
     15 C14         3.0180   -0.1840   -1.4870 c3        1 H0Y     -0.148000
     16 C13         2.9260    1.0590   -0.6860 c3        1 H0Y     -0.157000
     17 C18        -0.9200    1.1290   -0.4120 c1        1 H0Y     -0.082000
     18 C17         0.3380    0.6570   -0.7640 c1        1 H0Y     -0.060000
     19 C12         1.6350    1.1770   -0.0030 c2        1 H0Y     -0.002000
     20 N11         1.5940    1.3880    1.3040 n1        1 H0Y     -0.103000
     21 N10         2.7810    1.4970    2.0310 n2        1 H0Y     -0.175000
     22 C8          3.2130    0.4120    2.8640 c2        1 H0Y     -0.108000
     23 S9          3.3780   -0.3540    1.5370 ss        1 H0Y      0.510000
     24 C4          3.1690   -1.8550    1.8390 c1        1 H0Y     -0.358000
     25 C3          3.0470   -2.9610    1.0000 c1        1 H0Y     -0.127500
     26 C2          2.6610   -4.2000    1.5260 c1        1 H0Y     -0.127500
     27 N7          2.9290   -0.5410    3.8870 n2        1 H0Y     -0.175000
     28 C5          2.9010   -1.9860    3.2340 c1        1 H0Y     -0.026000
     29 C6          2.5180   -3.2160    3.7540 c1        1 H0Y     -0.127500
     30 C1          2.3950   -4.3290    2.9090 c1        1 H0Y     -0.127500
     31 H25        -6.7110    3.0920   -0.4820 ha        1 H0Y      0.144000
     32 H26        -5.0510    4.2790   -1.6450 ha        1 H0Y      0.128500
     33 H27        -2.9260    3.3280   -1.9490 ha        1 H0Y      0.128500
     34 H20        -2.6160    0.0090   -3.0620 ha        1 H0Y      0.166000
     35 H18        -1.0500    1.5880    0.4470 ha        1 H0Y      0.151000
     36 H21        -0.4500   -0.7750   -3.6860 ha        1 H0Y      0.127000
     37 H151        2.1780    0.0540   -3.2580 hc        1 H0Y      0.088000
     38 H152        1.9810   -1.4040   -2.6460 hc        1 H0Y      0.088000
     39 H141        3.0510   -0.9410   -0.8620 hc        1 H0Y      0.085000
     40 H142        3.8700   -0.1610   -1.9810 hc        1 H0Y      0.085000
     41 H131        3.2190    1.8580   -1.1830 hc        1 H0Y      0.091000
     42 H132        3.6000    0.9980    0.0250 hc        1 H0Y      0.091000
     43 H10         3.2700    2.2720    1.9970 hn        1 H0Y      0.197000
     44 H3          3.2310   -2.8720    0.0410 ha        1 H0Y      0.128500
     45 H2          2.5880   -4.9820    0.9370 ha        1 H0Y      0.128500
     46 H1          2.1560   -5.2050    3.2830 ha        1 H0Y      0.128500
     47 H6          2.3330   -3.3070    4.7150 ha        1 H0Y      0.128500
@<TRIPOS>BOND
     1    1    2 1   
     2    2    3 1   
     3    2    4 1   
     4    4    5 1   
     5    4    6 1   
     6    5    9 1   
     7    6   31 1   
     8    7    8 1   
     9    7   32 1   
    10    8   33 1   
    11    9   10 1   
    12   10   11 1   
    13   10   17 1   
    14   11   12 1   
    15   11   34 1   
    16   12   36 1   
    17   13   14 1   
    18   13   18 1   
    19   14   15 1   
    20   14   37 1   
    21   14   38 1   
    22   15   16 1   
    23   15   39 1   
    24   15   40 1   
    25   16   19 1   
    26   16   41 1   
    27   16   42 1   
    28   17   35 1   
    29   18   19 1   
    30   19   20 1   
    31   21   22 1   
    32   21   43 1   
    33   22   23 1   
    34   22   27 1   
    35   23   24 1   
    36   24   28 1   
    37   25   26 1   
    38   25   44 1   
    39   26   45 1   
    40   27   28 1   
    41   29   30 1   
    42   29   47 1   
    43   30   46 1   
@<TRIPOS>SUBSTRUCTURE
     1 H0Y         1 TEMP              0 ****  ****    0 ROOT
