@<TRIPOS>MOLECULE
H0Y
   48    52     1     0     0
SMALL
bcc


@<TRIPOS>ATOM
      1 O82        -0.7510    0.5050    0.1380 o         1 H0Y     -0.810300
      2 C28         0.1570   -0.3690    0.0960 c         1 H0Y      0.824100
      3 O81         0.3450   -1.2690    0.9510 o         1 H0Y     -0.810300
      4 C24         1.1410   -0.3440   -1.0960 ca        1 H0Y      0.379800
      5 N23         0.6570   -0.2690   -2.3430 nb        1 H0Y     -0.658000
      6 C25         2.5340   -0.4310   -0.8310 ca        1 H0Y     -0.201300
      7 C26         3.4230   -0.4350   -1.8970 ca        1 H0Y     -0.119000
      8 C27         2.9290   -0.3560   -3.2070 ca        1 H0Y     -0.246300
      9 C22         1.5380   -0.2750   -3.3880 cp        1 H0Y      0.403800
     10 C19         0.9420   -0.1610   -4.7320 cp        1 H0Y     -0.117500
     11 C20         1.5790    0.5050   -5.7840 ca        1 H0Y     -0.070000
     12 C21         0.8990    0.7530   -6.9790 ca        1 H0Y     -0.148000
     13 C16        -0.4370    0.3810   -7.1400 ca        1 H0Y     -0.042300
     14 C15        -1.1790    0.8150   -8.3520 c3        1 H0Y     -0.045100
     15 C14        -2.6430    0.4180   -8.3690 c3        1 H0Y     -0.070400
     16 C13        -3.2590    0.3970   -6.9800 c3        1 H0Y     -0.177700
     17 C18        -0.3610   -0.6450   -4.9280 ca        1 H0Y     -0.017000
     18 C17        -1.0610   -0.3420   -6.1030 ca        1 H0Y     -0.208900
     19 C12        -2.5030   -0.6040   -6.1490 ce        1 H0Y      0.578900
     20 N11        -2.9670   -1.6370   -5.4770 n2        1 H0Y     -0.556400
     21 N10        -4.3090   -1.7770   -5.1060 n4        1 H0Y     -0.353100
     22 C8         -4.6570   -1.1200   -3.8280 cc        1 H0Y      0.292100
     23 S9         -6.2890   -0.6200   -3.4810 ss        1 H0Y     -0.022100
     24 C4         -5.7910   -0.0510   -1.9600 ca        1 H0Y     -0.050100
     25 C3         -6.5230    0.5530   -0.9450 ca        1 H0Y     -0.126000
     26 C2         -5.8640    0.9420    0.2200 ca        1 H0Y     -0.072000
     27 N7         -3.7550   -0.8900   -2.8730 nd        1 H0Y     -0.382100
     28 C5         -4.3750   -0.2720   -1.7910 ca        1 H0Y      0.045400
     29 C6         -3.7200    0.1360   -0.6080 ca        1 H0Y      0.005000
     30 C1         -4.4880    0.7390    0.3820 ca        1 H0Y     -0.129000
     31 H25         2.8680   -0.5130    0.2130 ha        1 H0Y      0.162000
     32 H26         4.5070   -0.5060   -1.7260 ha        1 H0Y      0.127000
     33 H27         3.6110   -0.3710   -4.0640 ha        1 H0Y      0.123000
     34 H20         2.6120    0.8660   -5.6600 ha        1 H0Y      0.150000
     35 H18        -0.8510   -1.2120   -4.1140 ha        1 H0Y      0.191000
     36 H21         1.4120    1.2880   -7.7930 ha        1 H0Y      0.139000
     37 H151       -0.6760    0.3970   -9.2670 hc        1 H0Y      0.067200
     38 H152       -1.1030    1.9370   -8.4220 hc        1 H0Y      0.067200
     39 H141       -2.7530   -0.5970   -8.8360 hc        1 H0Y      0.056200
     40 H142       -3.2160    1.1420   -9.0060 hc        1 H0Y      0.056200
     41 H131       -3.1620    1.4090   -6.4990 hc        1 H0Y      0.072200
     42 H132       -4.3510    0.1650   -7.0610 hc        1 H0Y      0.072200
     43 H10        -4.4170   -2.8000   -4.9600 hn        1 H0Y      0.447300
     44 H3         -7.6030    0.7240   -1.0570 ha        1 H0Y      0.143000
     45 H2         -6.4390    1.4220    1.0280 ha        1 H0Y      0.145000
     46 H1         -3.9860    1.0640    1.3110 ha        1 H0Y      0.177000
     47 H6         -2.6170   -0.0050   -0.4740 ha        1 H0Y      0.263000
     48 H102       -4.9950   -1.4560   -5.8070 hn        1 H0Y      0.447300
@<TRIPOS>BOND
     1    1    2 1   
     2    2    3 1   
     3    2    4 1   
     4    4    5 ar  
     5    4    6 ar  
     6    5    9 ar  
     7    6    7 ar  
     8    6   31 1   
     9    7    8 ar  
    10    7   32 1   
    11    8    9 ar  
    12    8   33 1   
    13    9   10 1   
    14   10   11 ar  
    15   10   17 ar  
    16   11   12 ar  
    17   11   34 1   
    18   12   13 ar  
    19   12   36 1   
    20   13   14 1   
    21   13   18 ar  
    22   14   15 1   
    23   14   37 1   
    24   14   38 1   
    25   15   16 1   
    26   15   39 1   
    27   15   40 1   
    28   16   19 1   
    29   16   41 1   
    30   16   42 1   
    31   17   18 ar  
    32   17   35 1   
    33   18   19 1   
    34   19   20 2   
    35   20   21 1   
    36   21   22 1   
    37   21   43 1   
    38   21   48 1   
    39   22   23 1   
    40   22   27 2   
    41   23   24 1   
    42   24   25 ar  
    43   24   28 ar  
    44   25   26 ar  
    45   25   44 1   
    46   26   30 ar  
    47   26   45 1   
    48   27   28 1   
    49   28   29 ar  
    50   29   30 ar  
    51   29   47 1   
    52   30   46 1   
@<TRIPOS>SUBSTRUCTURE
     1 H0Y         1 TEMP              0 ****  ****    0 ROOT
