@<TRIPOS>MOLECULE
H0Y
   47    51     1     0     0
SMALL
bcc


@<TRIPOS>ATOM
      1 O82         0.4480   -1.3600    0.4230 o         1 H0Y     -0.807300
      2 C28         1.3570   -1.9670   -0.1960 c         1 H0Y      0.826100
      3 O81         1.8430   -3.0890    0.0950 o         1 H0Y     -0.807300
      4 C24         1.9930   -1.2370   -1.4050 ca        1 H0Y      0.388800
      5 N23         1.3170   -1.1200   -2.5610 nb        1 H0Y     -0.646000
      6 C25         3.2970   -0.7030   -1.2280 ca        1 H0Y     -0.226300
      7 C26         3.8970   -0.0230   -2.2770 ca        1 H0Y     -0.121000
      8 C27         3.2010    0.1150   -3.4840 ca        1 H0Y     -0.272300
      9 C22         1.9150   -0.4500   -3.5860 cp        1 H0Y      0.424800
     10 C19         1.1730   -0.3000   -4.8530 cp        1 H0Y     -0.119500
     11 C20         1.8440   -0.3760   -6.0790 ca        1 H0Y     -0.110000
     12 C21         1.1420   -0.2110   -7.2680 ca        1 H0Y     -0.152000
     13 C16        -0.2370    0.0240   -7.2660 ca        1 H0Y     -0.071300
     14 C15        -0.9180    0.2240   -8.5730 c3        1 H0Y     -0.033100
     15 C14        -2.4180    0.0610   -8.4840 c3        1 H0Y     -0.069400
     16 C13        -2.9700    0.8300   -7.3030 c3        1 H0Y     -0.149700
     17 C18        -0.2100   -0.0770   -4.8420 ca        1 H0Y     -0.055000
     18 C17        -0.9240    0.0840   -6.0390 ca        1 H0Y     -0.133900
     19 C12        -2.3870    0.3110   -6.0160 ce        1 H0Y      0.424900
     20 N11        -3.0310    0.0540   -4.9030 n2        1 H0Y     -0.456400
     21 N10        -4.3650    0.1390   -4.7740 nu        1 H0Y     -0.439300
     22 C8         -4.8180    0.1850   -3.4280 cc        1 H0Y      0.515100
     23 S9         -3.9060   -0.5820   -2.1580 ss        1 H0Y      0.148900
     24 C4         -5.1110   -0.2070   -1.0500 ca        1 H0Y     -0.143100
     25 C3         -5.1770   -0.4750    0.3210 ca        1 H0Y     -0.068000
     26 C2         -6.2850   -0.0630    1.0410 ca        1 H0Y     -0.144000
     27 N7         -5.9940    0.7290   -3.0620 nd        1 H0Y     -0.605100
     28 C5         -6.1820    0.5000   -1.6970 ca        1 H0Y      0.104400
     29 C6         -7.3030    0.9080   -0.9420 ca        1 H0Y     -0.099000
     30 C1         -7.3400    0.6220    0.4100 ca        1 H0Y     -0.133000
     31 H25         3.8020   -0.8490   -0.2640 ha        1 H0Y      0.145000
     32 H26         4.9030    0.4060   -2.1720 ha        1 H0Y      0.111000
     33 H27         3.6420    0.6600   -4.3260 ha        1 H0Y      0.116000
     34 H20         2.9260   -0.5750   -6.1020 ha        1 H0Y      0.134000
     35 H18        -0.7290   -0.0400   -3.8680 ha        1 H0Y      0.180000
     36 H21         1.6750   -0.2710   -8.2280 ha        1 H0Y      0.120000
     37 H151       -0.6760    1.2580   -8.9440 hc        1 H0Y      0.044700
     38 H152       -0.5090   -0.5010   -9.3280 hc        1 H0Y      0.044700
     39 H141       -2.8950    0.4320   -9.4280 hc        1 H0Y      0.044700
     40 H142       -2.6780   -1.0250   -8.3770 hc        1 H0Y      0.044700
     41 H131       -2.6950    1.9160   -7.3940 hc        1 H0Y      0.050700
     42 H132       -4.0880    0.7640   -7.3300 hc        1 H0Y      0.050700
     43 H10        -4.8560    0.7840   -5.3790 hn        1 H0Y      0.396800
     44 H3         -4.3470   -1.0050    0.8160 ha        1 H0Y      0.156000
     45 H2         -6.3450   -0.2690    2.1190 ha        1 H0Y      0.129000
     46 H1         -8.2070    0.9360    1.0100 ha        1 H0Y      0.122000
     47 H6         -8.1260    1.4470   -1.4320 ha        1 H0Y      0.137000
@<TRIPOS>BOND
     1    1    2 1   
     2    2    3 1   
     3    2    4 1   
     4    4    5 ar  
     5    4    6 ar  
     6    5    9 ar  
     7    6    7 ar  
     8    6   31 1   
     9    7    8 ar  
    10    7   32 1   
    11    8    9 ar  
    12    8   33 1   
    13    9   10 1   
    14   10   11 ar  
    15   10   17 ar  
    16   11   12 ar  
    17   11   34 1   
    18   12   13 ar  
    19   12   36 1   
    20   13   14 1   
    21   13   18 ar  
    22   14   15 1   
    23   14   37 1   
    24   14   38 1   
    25   15   16 1   
    26   15   39 1   
    27   15   40 1   
    28   16   19 1   
    29   16   41 1   
    30   16   42 1   
    31   17   18 ar  
    32   17   35 1   
    33   18   19 1   
    34   19   20 2   
    35   20   21 1   
    36   21   22 1   
    37   21   43 1   
    38   22   23 1   
    39   22   27 2   
    40   23   24 1   
    41   24   25 ar  
    42   24   28 ar  
    43   25   26 ar  
    44   25   44 1   
    45   26   30 ar  
    46   26   45 1   
    47   27   28 1   
    48   28   29 ar  
    49   29   30 ar  
    50   29   47 1   
    51   30   46 1   
@<TRIPOS>SUBSTRUCTURE
     1 H0Y         1 TEMP              0 ****  ****    0 ROOT
