@<TRIPOS>MOLECULE
H0Y
   47    51     1     0     0
SMALL
bcc


@<TRIPOS>ATOM
      1 O82        -1.7060    4.4790   -0.1140 o         1 H0Y     -0.806300
      2 C28        -2.7710    4.0790   -0.6450 c         1 H0Y      0.826100
      3 O81        -3.3470    4.5780   -1.6450 o         1 H0Y     -0.806300
      4 C24        -3.4860    2.8860    0.0390 ca        1 H0Y      0.389800
      5 N23        -3.0810    1.6270   -0.1960 nb        1 H0Y     -0.648000
      6 C25        -4.5590    3.1930    0.9170 ca        1 H0Y     -0.227300
      7 C26        -5.2120    2.1590    1.5710 ca        1 H0Y     -0.120000
      8 C27        -4.7960    0.8420    1.3450 ca        1 H0Y     -0.273300
      9 C22        -3.7290    0.6170    0.4520 cp        1 H0Y      0.425800
     10 C19        -3.2830   -0.7700    0.2210 cp        1 H0Y     -0.119500
     11 C20        -4.2170   -1.8100    0.1690 ca        1 H0Y     -0.111000
     12 C21        -3.7920   -3.1220   -0.0260 ca        1 H0Y     -0.149000
     13 C16        -2.4360   -3.4190   -0.1700 ca        1 H0Y     -0.072300
     14 C15        -2.0110   -4.8260   -0.3900 c3        1 H0Y     -0.033100
     15 C14        -0.8020   -4.8690   -1.2990 c3        1 H0Y     -0.069400
     16 C13         0.3410   -4.0750   -0.7110 c3        1 H0Y     -0.150700
     17 C18        -1.9210   -1.0610    0.0620 ca        1 H0Y     -0.052000
     18 C17        -1.4850   -2.3820   -0.1200 ca        1 H0Y     -0.134900
     19 C12        -0.0450   -2.6940   -0.2460 ce        1 H0Y      0.425900
     20 N11         0.8170   -1.7620    0.0970 n2        1 H0Y     -0.458400
     21 N10         2.1420   -1.9730    0.1400 nh        1 H0Y     -0.439300
     22 C8          2.9380   -0.8030    0.0290 cc        1 H0Y      0.523100
     23 S9          2.3090    0.7550    0.4930 ss        1 H0Y      0.125900
     24 C4          3.8080    1.4600    0.2060 ca        1 H0Y     -0.139100
     25 C3          4.2060    2.7950    0.3310 ca        1 H0Y     -0.070000
     26 C2          5.5120    3.1440    0.0320 ca        1 H0Y     -0.142000
     27 N7          4.2300   -0.8250   -0.3480 nd        1 H0Y     -0.603100
     28 C5          4.7470    0.4680   -0.2400 ca        1 H0Y      0.106400
     29 C6          6.0740    0.8490   -0.5370 ca        1 H0Y     -0.097000
     30 C1          6.4380    2.1760   -0.3970 ca        1 H0Y     -0.132000
     31 H25        -4.8480    4.2430    1.0550 ha        1 H0Y      0.144000
     32 H26        -6.0430    2.3610    2.2610 ha        1 H0Y      0.111000
     33 H27        -5.2810    0.0050    1.8610 ha        1 H0Y      0.116000
     34 H20        -5.2910   -1.5900    0.2700 ha        1 H0Y      0.135000
     35 H18        -1.1980   -0.2270    0.0790 ha        1 H0Y      0.181000
     36 H21        -4.5330   -3.9330   -0.0730 ha        1 H0Y      0.121000
     37 H151       -1.7630   -5.3000    0.5980 hc        1 H0Y      0.046200
     38 H152       -2.8470   -5.4210   -0.8450 hc        1 H0Y      0.046200
     39 H141       -0.4750   -5.9310   -1.4490 hc        1 H0Y      0.045200
     40 H142       -1.0750   -4.4530   -2.3040 hc        1 H0Y      0.045200
     41 H131        0.7650   -4.6330    0.1690 hc        1 H0Y      0.050700
     42 H132        1.1520   -4.0040   -1.4880 hc        1 H0Y      0.050700
     43 H10         2.5140   -2.7530   -0.3890 hn        1 H0Y      0.396800
     44 H3          3.4800    3.5550    0.6550 ha        1 H0Y      0.151000
     45 H2          5.8330    4.1920    0.1250 ha        1 H0Y      0.129000
     46 H1          7.4680    2.4860   -0.6270 ha        1 H0Y      0.123000
     47 H6          6.7960    0.0940   -0.8770 ha        1 H0Y      0.139000
@<TRIPOS>BOND
     1    1    2 1   
     2    2    3 1   
     3    2    4 1   
     4    4    5 ar  
     5    4    6 ar  
     6    5    9 ar  
     7    6    7 ar  
     8    6   31 1   
     9    7    8 ar  
    10    7   32 1   
    11    8    9 ar  
    12    8   33 1   
    13    9   10 1   
    14   10   11 ar  
    15   10   17 ar  
    16   11   12 ar  
    17   11   34 1   
    18   12   13 ar  
    19   12   36 1   
    20   13   14 1   
    21   13   18 ar  
    22   14   15 1   
    23   14   37 1   
    24   14   38 1   
    25   15   16 1   
    26   15   39 1   
    27   15   40 1   
    28   16   19 1   
    29   16   41 1   
    30   16   42 1   
    31   17   18 ar  
    32   17   35 1   
    33   18   19 1   
    34   19   20 2   
    35   20   21 1   
    36   21   22 1   
    37   21   43 1   
    38   22   23 1   
    39   22   27 2   
    40   23   24 1   
    41   24   25 ar  
    42   24   28 ar  
    43   25   26 ar  
    44   25   44 1   
    45   26   30 ar  
    46   26   45 1   
    47   27   28 1   
    48   28   29 ar  
    49   29   30 ar  
    50   29   47 1   
    51   30   46 1   
@<TRIPOS>SUBSTRUCTURE
     1 H0Y         1 TEMP              0 ****  ****    0 ROOT
