@<TRIPOS>MOLECULE
H0Y
   47    51     1     0     0
SMALL
bcc


@<TRIPOS>ATOM
      1 O82         0.4260   -1.4020    0.4210 o         1 H0Y     -0.807300
      2 C28         1.3270   -2.0190   -0.1990 c         1 H0Y      0.826100
      3 O81         1.7970   -3.1490    0.0870 o         1 H0Y     -0.807300
      4 C24         1.9740   -1.2920   -1.4060 ca        1 H0Y      0.388800
      5 N23         1.3010   -1.1620   -2.5610 nb        1 H0Y     -0.646000
      6 C25         3.2860   -0.7770   -1.2240 ca        1 H0Y     -0.226300
      7 C26         3.8960   -0.1010   -2.2700 ca        1 H0Y     -0.121000
      8 C27         3.2030    0.0520   -3.4770 ca        1 H0Y     -0.272300
      9 C22         1.9100   -0.4960   -3.5830 cp        1 H0Y      0.424800
     10 C19         1.1710   -0.3300   -4.8500 cp        1 H0Y     -0.119500
     11 C20         1.8430   -0.4100   -6.0760 ca        1 H0Y     -0.110000
     12 C21         1.1440   -0.2320   -7.2650 ca        1 H0Y     -0.152000
     13 C16        -0.2320    0.0210   -7.2630 ca        1 H0Y     -0.071300
     14 C15        -0.9080    0.2350   -8.5710 c3        1 H0Y     -0.033100
     15 C14        -2.4110    0.0930   -8.4840 c3        1 H0Y     -0.069400
     16 C13        -2.9530    0.8660   -7.3000 c3        1 H0Y     -0.149700
     17 C18        -0.2090   -0.0890   -4.8400 ca        1 H0Y     -0.055000
     18 C17        -0.9190    0.0860   -6.0370 ca        1 H0Y     -0.133900
     19 C12        -2.3790    0.3320   -6.0150 ce        1 H0Y      0.424900
     20 N11        -3.0280    0.0800   -4.9040 n2        1 H0Y     -0.456400
     21 N10        -4.3610    0.1810   -4.7760 nh        1 H0Y     -0.439300
     22 C8         -4.8150    0.2280   -3.4310 cc        1 H0Y      0.515100
     23 S9         -3.9150   -0.5570   -2.1630 ss        1 H0Y      0.148900
     24 C4         -5.1160   -0.1700   -1.0550 ca        1 H0Y     -0.143100
     25 C3         -5.1870   -0.4440    0.3150 ca        1 H0Y     -0.068000
     26 C2         -6.2910   -0.0200    1.0350 ca        1 H0Y     -0.144000
     27 N7         -5.9840    0.7850   -3.0640 nd        1 H0Y     -0.605100
     28 C5         -6.1760    0.5530   -1.7000 ca        1 H0Y      0.104400
     29 C6         -7.2930    0.9740   -0.9440 ca        1 H0Y     -0.099000
     30 C1         -7.3350    0.6820    0.4060 ca        1 H0Y     -0.133000
     31 H25         3.7870   -0.9340   -0.2610 ha        1 H0Y      0.145000
     32 H26         4.9070    0.3140   -2.1620 ha        1 H0Y      0.111000
     33 H27         3.6530    0.5940   -4.3170 ha        1 H0Y      0.116000
     34 H20         2.9220   -0.6230   -6.0980 ha        1 H0Y      0.134000
     35 H18        -0.7280   -0.0480   -3.8660 ha        1 H0Y      0.180000
     36 H21         1.6780   -0.2950   -8.2250 ha        1 H0Y      0.120000
     37 H151       -0.6510    1.2680   -8.9380 hc        1 H0Y      0.044700
     38 H152       -0.5090   -0.4920   -9.3280 hc        1 H0Y      0.044700
     39 H141       -2.8810    0.4750   -9.4270 hc        1 H0Y      0.044700
     40 H142       -2.6850   -0.9900   -8.3820 hc        1 H0Y      0.044700
     41 H131       -4.0720    0.8150   -7.3290 hc        1 H0Y      0.050700
     42 H132       -2.6630    1.9480   -7.3860 hc        1 H0Y      0.050700
     43 H10        -4.8420    0.8350   -5.3800 hn        1 H0Y      0.396800
     44 H3         -4.3650   -0.9860    0.8090 ha        1 H0Y      0.156000
     45 H2         -6.3550   -0.2300    2.1130 ha        1 H0Y      0.129000
     46 H1         -8.1990    1.0050    1.0070 ha        1 H0Y      0.122000
     47 H6         -8.1080    1.5250   -1.4330 ha        1 H0Y      0.137000
@<TRIPOS>BOND
     1    1    2 1   
     2    2    3 1   
     3    2    4 1   
     4    4    5 ar  
     5    4    6 ar  
     6    5    9 ar  
     7    6    7 ar  
     8    6   31 1   
     9    7    8 ar  
    10    7   32 1   
    11    8    9 ar  
    12    8   33 1   
    13    9   10 1   
    14   10   11 ar  
    15   10   17 ar  
    16   11   12 ar  
    17   11   34 1   
    18   12   13 ar  
    19   12   36 1   
    20   13   14 1   
    21   13   18 ar  
    22   14   15 1   
    23   14   37 1   
    24   14   38 1   
    25   15   16 1   
    26   15   39 1   
    27   15   40 1   
    28   16   19 1   
    29   16   41 1   
    30   16   42 1   
    31   17   18 ar  
    32   17   35 1   
    33   18   19 1   
    34   19   20 2   
    35   20   21 1   
    36   21   22 1   
    37   21   43 1   
    38   22   23 1   
    39   22   27 2   
    40   23   24 1   
    41   24   25 ar  
    42   24   28 ar  
    43   25   26 ar  
    44   25   44 1   
    45   26   30 ar  
    46   26   45 1   
    47   27   28 1   
    48   28   29 ar  
    49   29   30 ar  
    50   29   47 1   
    51   30   46 1   
@<TRIPOS>SUBSTRUCTURE
     1 H0Y         1 TEMP              0 ****  ****    0 ROOT
