@<TRIPOS>MOLECULE
H10
   54    58     1     0     0
SMALL
bcc


@<TRIPOS>ATOM
      1 C1          0.0000    0.0000    0.0000 c3        1 H10      0.025000
      2 O2         -0.4760   -0.0000   -1.3470 os        1 H10     -0.155000
      3 C3         -0.0330   -0.9970   -2.1580 ca        1 H10      0.134000
      4 C4         -0.3600   -0.9920   -3.5040 ca        1 H10     -0.104000
      5 C5          0.0960   -2.0160   -4.3320 ca        1 H10      0.010000
      6 C6         -0.2380   -2.0170   -5.7250 c1        1 H10      0.111000
      7 C7         -0.5280   -2.0060   -6.8620 c1        1 H10     -0.332000
      8 C8         -0.9390   -1.9920   -8.3590 c3        1 H10      0.092000
      9 N9         -0.1410   -3.0120   -9.0170 nx        1 H10      0.517000
     10 C10         1.3750   -3.2350   -8.3470 c2        1 H10     -0.115000
     11 O11         1.3450   -2.4960   -7.4240 o         1 H10     -0.048000
     12 N12         2.4270   -3.7330   -9.2560 nz        1 H10      0.745000
     13 O13        -0.5680   -4.3980   -8.7740 oh        1 H10     -0.307000
     14 C14        -0.6040   -0.7710   -9.2240 c3        1 H10     -0.207000
     15 C15         0.8810   -3.0410   -3.7990 ca        1 H10     -0.122000
     16 C16         1.2010   -3.0370   -2.4570 ca        1 H10     -0.020000
     17 C17         0.7530   -2.0170   -1.6380 ca        1 H10     -0.238000
     18 C18         1.5300    0.0000    0.0000 c3        1 H10     -0.255000
     19 C19         2.0400    0.0000    1.4420 DU        1 H10      0.026000
     20 C20         1.5300    1.2500    2.1630 c3        1 H10     -0.330000
     21 C21         0.0000    1.2500    2.1630 c3        1 H10     -0.033000
     22 C22        -0.5100    0.0010    2.8850 c3        1 H10     -0.126000
     23 C23        -0.0000   -1.2480    2.1640 c3        1 H10     -0.102000
     24 C24         1.5290   -1.2490    2.1640 c3        1 H10     -0.198000
     25 C25        -0.5110   -1.2480    0.7210 c3        1 H10     -0.186000
     26 C26        -0.5100    1.2500    0.7210 c3        1 H10     -0.116000
     27 H4         -1.1750   -0.3370   -3.7880 ha        1 H10      0.137000
     28 H8         -1.8790   -2.5200   -8.4610 hx        1 H10      0.129000
     29 HN12        3.0900   -3.3010   -8.6440 hn        1 H10      0.057000
     30 HN1A        2.5980   -4.7170   -9.3120 hn        1 H10      0.057000
     31 HO13       -0.0780   -4.8820   -8.1300 ho        1 H10      0.262000
     32 H14        -0.5780   -0.6880  -10.3030 hc        1 H10      0.105333
     33 H14A       -1.5260   -0.2280   -9.0550 hc        1 H10      0.105333
     34 H14B        0.2980   -0.4100   -8.7440 hc        1 H10      0.105333
     35 H15         1.5540   -3.4050   -4.5660 ha        1 H10      0.093000
     36 H16         1.8250   -3.8170   -2.0370 ha        1 H10      0.119000
     37 H17         1.3330   -1.8610   -0.7370 ha        1 H10      0.182000
     38 H18         1.8550    1.0120   -0.2070 hc        1 H10      0.130500
     39 H18A        1.6650   -0.6970   -0.8180 hc        1 H10      0.130500
     40 H19         3.1240   -0.0000    1.4430 ha        1 H10      0.127000
     41 H20         1.2880    0.2060    2.0040 DU        1 H10      0.298000
     42 H20A        2.0100    1.6080    3.0650 hc        1 H10      0.154000
     43 H21        -0.3600    2.1350    2.6730 hc        1 H10      0.112000
     44 H22         0.0610    0.0430    3.8050 hc        1 H10      0.104000
     45 H22A       -1.5590   -0.1500    2.6600 hc        1 H10      0.104000
     46 H23        -0.3620   -2.1320    2.6750 hc        1 H10      0.107000
     47 H24         1.6820   -1.1740    3.2340 hc        1 H10      0.098000
     48 H24A        2.0490   -2.0970    1.7370 hc        1 H10      0.098000
     49 H25         0.0820   -1.9390    0.1330 hc        1 H10      0.096000
     50 H25A       -1.5390   -1.4110    0.4230 hc        1 H10      0.096000
     51 H26        -1.5450    1.0400    0.4800 hc        1 H10      0.086500
     52 H26A       -0.3810    2.0080   -0.0420 hc        1 H10      0.086500
     53 H91        -0.1520   -2.8980  -10.0110 hn        1 H10      0.096000
     54 H123        2.4090   -3.2960  -10.1560 hn        1 H10      0.057000
@<TRIPOS>BOND
     1    1    2 1   
     2    1   18 1   
     3    1   25 1   
     4    1   26 1   
     5    2    3 1   
     6    3    4 1   
     7    3   17 1   
     8    4    5 1   
     9    4   27 1   
    10    5    6 1   
    11    5   15 1   
    12    6    7 1   
    13    7    8 1   
    14    8    9 1   
    15    8   14 1   
    16    8   28 1   
    17    9   10 1   
    18    9   13 1   
    19    9   53 1   
    20   10   11 1   
    21   10   12 1   
    22   12   29 1   
    23   12   30 1   
    24   12   54 1   
    25   13   31 1   
    26   14   32 1   
    27   14   33 1   
    28   14   34 1   
    29   15   16 1   
    30   15   35 1   
    31   16   17 1   
    32   16   36 1   
    33   17   37 1   
    34   18   19 1   
    35   18   38 1   
    36   18   39 1   
    37   19   20 1   
    38   19   24 1   
    39   19   40 1   
    40   19   41 1   
    41   20   21 1   
    42   20   41 1   
    43   20   42 1   
    44   21   22 1   
    45   21   26 1   
    46   21   43 1   
    47   22   23 1   
    48   22   44 1   
    49   22   45 1   
    50   23   24 1   
    51   23   25 1   
    52   23   46 1   
    53   24   47 1   
    54   24   48 1   
    55   25   49 1   
    56   25   50 1   
    57   26   51 1   
    58   26   52 1   
@<TRIPOS>SUBSTRUCTURE
     1 H10         1 TEMP              0 ****  ****    0 ROOT
