@<TRIPOS>MOLECULE
H10
   54    56     1     0     0
SMALL
bcc


@<TRIPOS>ATOM
      1 C1        169.0380   32.0190   36.7070 c3        1 H10      0.082000
      2 O2        169.7490   32.0350   35.4430 os        1 H10     -0.221000
      3 C3        169.2620   31.2020   34.4580 ca        1 H10      0.047000
      4 C4        169.8390   29.9440   34.2800 ca        1 H10     -0.034000
      5 C5        169.4570   29.1530   33.1640 ca        1 H10     -0.097000
      6 C6        170.0310   27.9250   32.9610 c1        1 H10      0.210000
      7 C7        170.5550   26.8210   32.7790 c1        1 H10     -0.256000
      8 C8        171.1360   25.6310   32.5960 c2        1 H10      0.242000
      9 N9       -746.1810 -142.1430 -171.7300 n         1 H10     -0.119000
     10 C10      -745.3730 -141.1360 -171.1370 c2        1 H10      0.288000
     11 O11      -745.6830 -140.4270 -170.1850 o         1 H10     -0.172000
     12 N12      -744.0660 -140.7550 -171.8220 n4        1 H10     -0.126000
     13 O13      -745.5110 -142.9800 -172.5210 oh        1 H10     -0.259000
     14 C14       170.8370   24.7370   31.4790 c3        1 H10     -0.267000
     15 C15       168.4820   29.6490   32.2540 ca        1 H10     -0.018000
     16 C16       167.9180   30.8990   32.4550 ca        1 H10     -0.151000
     17 C17       168.2990   31.6840   33.5480 ca        1 H10     -0.012000
     18 C18       167.5840   32.4650   36.5390 c3        1 H10     -0.163000
     19 C19       166.9290   32.5280   37.9150 c3        1 H10     -0.099333
     20 C20       166.9780   31.1500   38.5660 c3        1 H10     -0.154333
     21 C21       168.4290   30.7080   38.7270 c3        1 H10     -0.099333
     22 C22       169.1750   31.7140   39.5970 c3        1 H10     -0.154333
     23 C23       169.1290   33.0920   38.9450 c3        1 H10     -0.099333
     24 C24       167.6770   33.5320   38.7870 c3        1 H10     -0.154333
     25 C25       169.7980   33.0340   37.5760 c3        1 H10     -0.163000
     26 C26       169.0940   30.6340   37.3550 c3        1 H10     -0.163000
     27 H4        170.5920   29.5800   34.9980 ha        1 H10      0.173000
     28 H8        171.8970   25.2900   33.3340 ha        1 H10      0.181000
     29 HN12     -744.2600 -140.3360 -172.7380 hn        1 H10      0.276667
     30 HN1A     -743.5740 -140.0710 -171.2320 hn        1 H10      0.276667
     31 HO13     -746.0740 -143.0900 -173.3230 ho        1 H10      0.285000
     32 H14       171.7810   24.5380   30.8980 hc        1 H10      0.151667
     33 H14A      170.4840   23.7440   31.8780 hc        1 H10      0.151667
     34 H14B      170.0620   25.1400   30.7810 hc        1 H10      0.151667
     35 H15       168.1830   29.0340   31.3890 ha        1 H10      0.162000
     36 H16       167.1650   31.2830   31.7460 ha        1 H10      0.174000
     37 H17       167.8620   32.6860   33.7060 ha        1 H10      0.181000
     38 H18       167.5530   33.4720   36.0490 hc        1 H10      0.089500
     39 H18A      167.0350   31.7400   35.8850 hc        1 H10      0.089500
     40 H19       165.8600   32.8520   37.8000 hc        1 H10      0.103333
     41 H20       166.4830   31.1900   39.5710 hc        1 H10      0.091667
     42 H20A      166.4210   30.4100   37.9370 hc        1 H10      0.091667
     43 H21       168.4630   29.6950   39.2090 hc        1 H10      0.103333
     44 H22       168.7010   31.7590   40.6110 hc        1 H10      0.091667
     45 H22A      170.2390   31.3900   39.7280 hc        1 H10      0.091667
     46 H23       169.6780   33.8310   39.5880 hc        1 H10      0.103333
     47 H24       167.6350   34.5480   38.3190 hc        1 H10      0.091667
     48 H24A      167.1890   33.5940   39.7930 hc        1 H10      0.091667
     49 H25       170.8670   32.7170   37.6740 hc        1 H10      0.089500
     50 H25A      169.7750   34.0390   37.0840 hc        1 H10      0.089500
     51 H26       168.5640   29.8890   36.7090 hc        1 H10      0.089500
     52 H26A      170.1610   30.3100   37.4590 hc        1 H10      0.089500
     53 H91      -746.6970 -142.6520 -171.0040 hn        1 H10      0.273000
     54 H123     -743.4820 -141.5890 -171.9560 hn        1 H10      0.276667
@<TRIPOS>BOND
     1    1    2 1   
     2    1   18 1   
     3    1   25 1   
     4    1   26 1   
     5    2    3 1   
     6    3    4 1   
     7    3   17 1   
     8    4    5 1   
     9    4   27 1   
    10    5    6 1   
    11    5   15 1   
    12    6    7 1   
    13    7    8 1   
    14    8   14 1   
    15    8   28 1   
    16    9   10 1   
    17    9   13 1   
    18    9   53 1   
    19   10   11 1   
    20   10   12 1   
    21   12   29 1   
    22   12   30 1   
    23   12   54 1   
    24   13   31 1   
    25   14   32 1   
    26   14   33 1   
    27   14   34 1   
    28   15   16 1   
    29   15   35 1   
    30   16   17 1   
    31   16   36 1   
    32   17   37 1   
    33   18   19 1   
    34   18   38 1   
    35   18   39 1   
    36   19   20 1   
    37   19   24 1   
    38   19   40 1   
    39   20   21 1   
    40   20   41 1   
    41   20   42 1   
    42   21   22 1   
    43   21   26 1   
    44   21   43 1   
    45   22   23 1   
    46   22   44 1   
    47   22   45 1   
    48   23   24 1   
    49   23   25 1   
    50   23   46 1   
    51   24   47 1   
    52   24   48 1   
    53   25   49 1   
    54   25   50 1   
    55   26   51 1   
    56   26   52 1   
@<TRIPOS>SUBSTRUCTURE
     1 H10         1 TEMP              0 ****  ****    0 ROOT
