@<TRIPOS>MOLECULE
H10
   54    56     1     0     0
SMALL
bcc


@<TRIPOS>ATOM
      1 C1       -137.0360  167.5720  158.6790 c3        1 H10      0.082000
      2 O2       -137.0730  168.9700  159.0630 os        1 H10     -0.221000
      3 C3       -138.2780  169.6180  158.8940 ca        1 H10      0.047000
      4 C4       -139.1460  169.7390  159.9790 ca        1 H10     -0.034000
      5 C5       -140.3080  170.5470  159.8570 ca        1 H10     -0.097000
      6 C6       -141.1600  170.6960  160.9200 c1        1 H10      0.210000
      7 C7       -141.9270  170.8370  161.8790 c1        1 H10     -0.256000
      8 C8       -142.7650  171.0040  162.9070 c2        1 H10      0.242000
      9 N9        611.7640 -747.0630 -716.2230 n         1 H10     -0.119000
     10 C10       611.9530 -745.8490 -715.5100 c2        1 H10      0.288000
     11 O11       611.0900 -745.2270 -714.8990 o         1 H10     -0.172000
     12 N12       613.2930 -745.1350 -715.6320 n4        1 H10     -0.126000
     13 O13       612.8970 -747.7000 -716.5190 oh        1 H10     -0.259000
     14 C14      -142.5850  170.3860  164.2190 c3        1 H10     -0.267000
     15 C15      -140.5750  171.2100  158.6260 ca        1 H10     -0.017000
     16 C16      -139.7000  171.0690  157.5600 ca        1 H10     -0.151000
     17 C17      -138.5510  170.2820  157.6800 ca        1 H10     -0.012000
     18 C18      -137.3430  167.3890  157.1910 c3        1 H10     -0.163000
     19 C19      -137.1820  165.9150  156.8350 c3        1 H10     -0.099333
     20 C20      -135.7490  165.4770  157.1220 c3        1 H10     -0.154333
     21 C21      -135.4410  165.6700  158.6040 c3        1 H10     -0.099333
     22 C22      -136.4060  164.8340  159.4380 c3        1 H10     -0.154333
     23 C23      -137.8400  165.2700  159.1540 c3        1 H10     -0.099333
     24 C24      -138.1470  165.0800  157.6720 c3        1 H10     -0.154333
     25 C25      -138.0050  166.7410  159.5240 c3        1 H10     -0.163000
     26 C26      -135.5890  167.1430  158.9710 c3        1 H10     -0.163000
     27 H4       -138.9200  169.2160  160.9230 ha        1 H10      0.173000
     28 H8       -143.6590  171.6540  162.7670 ha        1 H10      0.181000
     29 HN12      613.2870 -744.3170 -715.0070 hn        1 H10      0.276667
     30 HN1A      613.4370 -744.8220 -716.5980 hn        1 H10      0.276667
     31 HO13      612.7960 -747.9920 -717.4550 ho        1 H10      0.285000
     32 H14      -141.6740  169.7410  164.2860 hc        1 H10      0.151667
     33 H14A     -143.4900  169.7630  164.4660 hc        1 H10      0.151667
     34 H14B     -142.5180  171.1900  165.0040 hc        1 H10      0.151667
     35 H15      -141.4770  171.8350  158.5290 ha        1 H10      0.163000
     36 H16      -139.9070  171.5870  156.6080 ha        1 H10      0.174000
     37 H17      -137.8450  170.1770  156.8380 ha        1 H10      0.181000
     38 H18      -138.3880  167.7260  156.9720 hc        1 H10      0.089500
     39 H18A     -136.6390  168.0130  156.5830 hc        1 H10      0.089500
     40 H19      -137.4080  165.7720  155.7450 hc        1 H10      0.103333
     41 H20      -135.6210  164.3990  156.8460 hc        1 H10      0.091667
     42 H20A     -135.0350  166.0790  156.5040 hc        1 H10      0.091667
     43 H21      -134.3860  165.3470  158.8140 hc        1 H10      0.103333
     44 H22      -136.2850  163.7500  159.1840 hc        1 H10      0.091667
     45 H22A     -136.1780  164.9610  160.5270 hc        1 H10      0.091667
     46 H23      -138.5500  164.6530  159.7670 hc        1 H10      0.103333
     47 H24      -138.0420  163.9980  157.4010 hc        1 H10      0.091667
     48 H24A     -139.2020  165.3880  157.4570 hc        1 H10      0.091667
     49 H25      -137.7820  166.8940  160.6110 hc        1 H10      0.089500
     50 H25A     -139.0570  167.0720  159.3330 hc        1 H10      0.089500
     51 H26      -135.3610  167.3030  160.0540 hc        1 H10      0.089500
     52 H26A     -134.8840  167.7710  158.3690 hc        1 H10      0.089500
     53 H91       611.1180 -747.6740 -715.7110 hn        1 H10      0.273000
     54 H123      614.0570 -745.7690 -715.3720 hn        1 H10      0.276667
@<TRIPOS>BOND
     1    1    2 1   
     2    1   18 1   
     3    1   25 1   
     4    1   26 1   
     5    2    3 1   
     6    3    4 1   
     7    3   17 1   
     8    4    5 1   
     9    4   27 1   
    10    5    6 1   
    11    5   15 1   
    12    6    7 1   
    13    7    8 1   
    14    8   14 1   
    15    8   28 1   
    16    9   10 1   
    17    9   13 1   
    18    9   53 1   
    19   10   11 1   
    20   10   12 1   
    21   12   29 1   
    22   12   30 1   
    23   12   54 1   
    24   13   31 1   
    25   14   32 1   
    26   14   33 1   
    27   14   34 1   
    28   15   16 1   
    29   15   35 1   
    30   16   17 1   
    31   16   36 1   
    32   17   37 1   
    33   18   19 1   
    34   18   38 1   
    35   18   39 1   
    36   19   20 1   
    37   19   24 1   
    38   19   40 1   
    39   20   21 1   
    40   20   41 1   
    41   20   42 1   
    42   21   22 1   
    43   21   26 1   
    44   21   43 1   
    45   22   23 1   
    46   22   44 1   
    47   22   45 1   
    48   23   24 1   
    49   23   25 1   
    50   23   46 1   
    51   24   47 1   
    52   24   48 1   
    53   25   49 1   
    54   25   50 1   
    55   26   51 1   
    56   26   52 1   
@<TRIPOS>SUBSTRUCTURE
     1 H10         1 TEMP              0 ****  ****    0 ROOT
