@<TRIPOS>MOLECULE
H11
   46    47     1     0     0
SMALL
bcc


@<TRIPOS>ATOM
      1 C4          0.1400   -0.7770    0.0840 c2        1 H11      0.513100
      2 C5          2.0840    1.4400    2.2190 c3        1 H11     -0.077400
      3 C6          3.2940   -0.6980    1.7880 c3        1 H11     -0.099100
      4 C7         -2.0830   -0.4320   -1.0150 c3        1 H11      0.137500
      5 C8         -2.9880   -1.0200   -2.1070 c3        1 H11     -0.099900
      6 C10        -4.3050   -1.5120   -1.5370 c3        1 H11     -0.078400
      7 C13        -4.1800    1.6120    0.0350 c3        1 H11     -0.087400
      8 C15         0.9530    3.5720    2.8230 c3        1 H11     -0.096100
      9 C11        -5.2650   -0.4270   -1.0980 c3        1 H11     -0.087400
     10 C12        -4.8730    0.2730    0.1870 c3        1 H11     -0.086400
     11 C14        -3.2790    1.8060   -1.1630 c3        1 H11     -0.078400
     12 C9         -1.9470    1.0870   -1.1140 c3        1 H11     -0.099900
     13 N17        -0.7050   -1.0920   -1.0760 n4        1 H11     -0.721000
     14 S           1.5910    0.1320   -0.1650 ss        1 H11     -0.156300
     15 N          -0.1640   -1.1800    1.2890 ne        1 H11     -0.587100
     16 C2          0.8380   -0.7560    2.2510 c         1 H11      0.682500
     17 O           0.7530   -1.0350    3.4390 o         1 H11     -0.391100
     18 C           1.9920    0.0500    1.6210 c3        1 H11     -0.044900
     19 C3          0.7720    2.1960    2.2340 c3        1 H11     -0.088400
     20 H5          2.4570    1.3330    3.2770 hc        1 H11      0.086700
     21 H5A         2.8560    2.0280    1.6530 hc        1 H11      0.086700
     22 H6          3.4760   -0.8880    2.8780 hc        1 H11      0.077033
     23 H6A         3.2700   -1.6800    1.2570 hc        1 H11      0.077033
     24 H6B         4.1440   -0.0920    1.3890 hc        1 H11      0.077033
     25 H7         -2.4970   -0.6990    0.0060 hx        1 H11      0.135700
     26 H8         -3.1770   -0.2430   -2.8950 hc        1 H11      0.064200
     27 H8A        -2.4970   -1.8870   -2.6300 hc        1 H11      0.064200
     28 H10        -4.8090   -2.1160   -2.3420 hc        1 H11      0.062950
     29 H10A       -4.1080   -2.2090   -0.6790 hc        1 H11      0.062950
     30 H13        -4.9750    2.4070   -0.0290 hc        1 H11      0.059450
     31 H13A       -3.5950    1.8160    0.9720 hc        1 H11      0.059450
     32 H15         1.3300    3.5060    3.8720 hc        1 H11      0.050033
     33 H15A       -0.0230    4.1150    2.8330 hc        1 H11      0.050033
     34 H15B        1.6830    4.1680    2.2230 hc        1 H11      0.050033
     35 H11        -6.2640   -0.9200   -0.9350 hc        1 H11      0.059450
     36 H11A       -5.4130    0.3160   -1.9240 hc        1 H11      0.059450
     37 H12        -4.2490   -0.4150    0.8190 hc        1 H11      0.048700
     38 H12A       -5.8110    0.4560    0.7840 hc        1 H11      0.048700
     39 H14        -3.0430    2.9050   -1.2390 hc        1 H11      0.062950
     40 H14A       -3.8250    1.5360   -2.1050 hc        1 H11      0.062950
     41 H9         -1.3650    1.4620   -0.2270 hc        1 H11      0.064200
     42 H9A        -1.3740    1.3600   -2.0430 hc        1 H11      0.064200
     43 HN17       -0.2160   -0.7780   -1.9240 hn        1 H11      0.467300
     44 H3          0.3720    2.2840    1.1880 hc        1 H11      0.039700
     45 H3A         0.0170    1.6260    2.8390 hc        1 H11      0.039700
     46 H172       -0.8440   -2.1130   -1.1280 hn        1 H11      0.467300
@<TRIPOS>BOND
     1    1   13 1   
     2    1   14 1   
     3    1   15 2   
     4    2   18 1   
     5    2   19 1   
     6    2   20 1   
     7    2   21 1   
     8    3   18 1   
     9    3   22 1   
    10    3   23 1   
    11    3   24 1   
    12    4    5 1   
    13    4   12 1   
    14    4   13 1   
    15    4   25 1   
    16    5    6 1   
    17    5   26 1   
    18    5   27 1   
    19    6    9 1   
    20    6   28 1   
    21    6   29 1   
    22    7   10 1   
    23    7   11 1   
    24    7   30 1   
    25    7   31 1   
    26    8   19 1   
    27    8   32 1   
    28    8   33 1   
    29    8   34 1   
    30    9   10 1   
    31    9   35 1   
    32    9   36 1   
    33   10   37 1   
    34   10   38 1   
    35   11   12 1   
    36   11   39 1   
    37   11   40 1   
    38   12   41 1   
    39   12   42 1   
    40   13   43 1   
    41   13   46 1   
    42   14   18 1   
    43   15   16 1   
    44   16   17 2   
    45   16   18 1   
    46   19   44 1   
    47   19   45 1   
@<TRIPOS>SUBSTRUCTURE
     1 H11         1 TEMP              0 ****  ****    0 ROOT
