@<TRIPOS>MOLECULE
H11
   45    44     1     0     0
SMALL
bcc


@<TRIPOS>ATOM
      1 C4          0.2070    0.3590    0.5920 c1        1 H11      0.065000
      2 C5          2.9860    0.7530    3.1320 c3        1 H11     -0.135000
      3 C6          1.7220   -1.0470    3.6060 c3        1 H11     -0.197000
      4 C7         -0.2640   -0.0720   -1.8280 c3        1 H11      0.021000
      5 C8         -1.2850    0.8830   -2.4030 c3        1 H11     -0.168000
      6 C10        -2.6930    0.3770   -2.1660 c3        1 H11     -0.152000
      7 C13        -2.3540   -2.2070   -3.7330 c3        1 H11     -0.153500
      8 C15         4.0460    2.3590    4.7140 c3        1 H11     -0.209000
      9 C11        -3.3910    0.0740   -3.4880 c3        1 H11     -0.153500
     10 C12        -2.5260   -0.8180   -4.3660 c3        1 H11     -0.154000
     11 C14        -1.6130   -2.1110   -2.4060 c3        1 H11     -0.152000
     12 C9         -0.2760   -1.4000   -2.5800 c3        1 H11     -0.168000
     13 N17        -0.5640   -0.3100   -0.4390 n2        1 H11     -0.282000
     14 S           1.5940   -0.1940    1.0050 ss        1 H11      0.098000
     15 N          -0.3960    1.0540    1.5100 n1        1 H11     -0.299000
     16 C2          0.3510    1.1640    2.8490 c1        1 H11      0.274000
     17 O          -0.0150    1.7560    3.8470 o         1 H11     -0.274000
     18 C           1.7080    0.1600    2.6960 c3        1 H11     -0.203000
     19 C3          2.7210    1.8040    4.2090 c3        1 H11     -0.168000
     20 H5          3.4320    1.1770    2.3610 hc        1 H11      0.094000
     21 H5A         3.5600    0.0550    3.4940 hc        1 H11      0.094000
     22 H6          1.8090   -0.7530    4.5350 hc        1 H11      0.095333
     23 H6A         0.8800   -1.5490    3.4980 hc        1 H11      0.095333
     24 H6B         2.4780   -1.6220    3.3740 hc        1 H11      0.095333
     25 H7          0.6310    0.3310   -1.9000 h1        1 H11      0.107000
     26 H8         -1.1820    1.7660   -1.9740 hc        1 H11      0.094250
     27 H8A        -1.1350    0.9730   -3.3580 hc        1 H11      0.094250
     28 H10        -3.2060    1.0630   -1.6780 hc        1 H11      0.080500
     29 H10A       -2.6550   -0.4440   -1.6250 hc        1 H11      0.080500
     30 H13        -3.2370   -2.6020   -3.5800 hc        1 H11      0.079500
     31 H13A       -1.8450   -2.7800   -4.3470 hc        1 H11      0.079500
     32 H15         4.5370    1.6530    5.1890 hc        1 H11      0.073333
     33 H15A        4.5770    2.6730    3.9560 hc        1 H11      0.073333
     34 H15B        3.8760    3.1070    5.3250 hc        1 H11      0.073333
     35 H11        -4.2500   -0.3830   -3.3050 hc        1 H11      0.079500
     36 H11A       -3.5660    0.9120   -3.9570 hc        1 H11      0.079500
     37 H12        -1.6570   -0.4090   -4.4770 hc        1 H11      0.078000
     38 H12A       -2.9560   -0.9160   -5.2550 hc        1 H11      0.078000
     39 H14        -1.4550   -3.0080   -2.0630 hc        1 H11      0.080500
     40 H14A       -2.1610   -1.6150   -1.7670 hc        1 H11      0.080500
     41 H9         -0.1220   -1.2310   -3.5320 hc        1 H11      0.094250
     42 H9A         0.4410   -1.9720   -2.2350 hc        1 H11      0.094250
     43 HN17       -1.1730   -0.9420   -0.2090 hn        1 H11      0.244000
     44 H3          2.1830    2.5340    3.8300 hc        1 H11      0.095500
     45 H3A         2.2350    1.3940    4.9520 hc        1 H11      0.095500
@<TRIPOS>BOND
     1    1   14 1   
     2    1   15 1   
     3    2   18 1   
     4    2   19 1   
     5    2   20 1   
     6    2   21 1   
     7    3   18 1   
     8    3   22 1   
     9    3   23 1   
    10    3   24 1   
    11    4    5 1   
    12    4   12 1   
    13    4   13 1   
    14    4   25 1   
    15    5    6 1   
    16    5   26 1   
    17    5   27 1   
    18    6    9 1   
    19    6   28 1   
    20    6   29 1   
    21    7   10 1   
    22    7   11 1   
    23    7   30 1   
    24    7   31 1   
    25    8   19 1   
    26    8   32 1   
    27    8   33 1   
    28    8   34 1   
    29    9   10 1   
    30    9   35 1   
    31    9   36 1   
    32   10   37 1   
    33   10   38 1   
    34   11   12 1   
    35   11   39 1   
    36   11   40 1   
    37   12   41 1   
    38   12   42 1   
    39   13   43 1   
    40   14   18 1   
    41   16   17 1   
    42   16   18 1   
    43   19   44 1   
    44   19   45 1   
@<TRIPOS>SUBSTRUCTURE
     1 H11         1 TEMP              0 ****  ****    0 ROOT
