@<TRIPOS>MOLECULE
H11
   45    46     1     0     0
SMALL
bcc


@<TRIPOS>ATOM
      1 C4          0.4830    0.6150    0.2760 c2        1 H11      0.731100
      2 C5          4.0430   -0.3460    0.0630 c3        1 H11     -0.058400
      3 C6          3.6030    1.8240   -1.0700 c3        1 H11     -0.081100
      4 C7         -1.9690    0.3280    0.5120 c3        1 H11      0.215500
      5 C8         -3.1320    1.1900    1.0400 c3        1 H11     -0.090900
      6 C10        -4.0960    1.5920   -0.0570 c3        1 H11     -0.071900
      7 C13        -3.8890   -1.8250   -0.7740 c3        1 H11     -0.075900
      8 C15         4.6070   -2.5430    1.0900 c3        1 H11     -0.090100
      9 C11        -4.9950    0.4870   -0.5730 c3        1 H11     -0.075900
     10 C12        -4.2900   -0.5280   -1.4490 c3        1 H11     -0.078400
     11 C14        -3.4680   -1.7530    0.6760 c3        1 H11     -0.071900
     12 C9         -2.1110   -1.1430    0.9410 c3        1 H11     -0.090900
     13 N17        -0.6880    0.8910    0.9240 nh        1 H11     -0.794200
     14 S           1.9860    1.2230    1.0180 ss        1 H11     -0.318300
     15 N           0.6190   -0.0100   -0.8890 ne        1 H11     -0.720100
     16 C2          1.9590   -0.0410   -1.3350 c         1 H11      0.702500
     17 O           2.3200   -0.5520   -2.3980 o         1 H11     -0.511100
     18 C           2.9770    0.6370   -0.3760 c3        1 H11     -0.069900
     19 C3          3.4930   -1.6120    0.6850 c3        1 H11     -0.090400
     20 H5          4.6490   -0.6180   -0.8460 hc        1 H11      0.060700
     21 H5A         4.7320    0.1620    0.7890 hc        1 H11      0.060700
     22 H6          4.0790    1.4870   -2.0260 hc        1 H11      0.056033
     23 H6A         2.8330    2.5970   -1.3090 hc        1 H11      0.056033
     24 H6B         4.3870    2.2860   -0.4230 hc        1 H11      0.056033
     25 H7         -1.9820    0.3570   -0.6200 h1        1 H11      0.097700
     26 H8         -3.6760    0.6370    1.8490 hc        1 H11      0.047700
     27 H8A        -2.7450    2.1360    1.5080 hc        1 H11      0.047700
     28 H10        -4.7530    2.4080    0.3510 hc        1 H11      0.041950
     29 H10A       -3.5200    2.0340   -0.9140 hc        1 H11      0.041950
     30 H13        -4.7650   -2.5300   -0.8280 hc        1 H11      0.041200
     31 H13A       -3.0580   -2.2880   -1.3710 hc        1 H11      0.041200
     32 H15         4.1850   -3.4720    1.5450 hc        1 H11      0.035033
     33 H15A        5.2220   -2.8330    0.2040 hc        1 H11      0.035033
     34 H15B        5.2770   -2.0570    1.8390 hc        1 H11      0.035033
     35 H11        -5.5090   -0.0210    0.2830 hc        1 H11      0.041200
     36 H11A       -5.8030    0.9750   -1.1850 hc        1 H11      0.041200
     37 H12        -3.3900   -0.0550   -1.9250 hc        1 H11      0.041700
     38 H12A       -4.9780   -0.7970   -2.2990 hc        1 H11      0.041700
     39 H14        -4.2530   -1.2260    1.2790 hc        1 H11      0.041950
     40 H14A       -3.4310   -2.8090    1.0670 hc        1 H11      0.041950
     41 H9         -1.3310   -1.7430    0.3990 hc        1 H11      0.047700
     42 H9A        -1.9040   -1.2300    2.0420 hc        1 H11      0.047700
     43 HN17       -0.6080    1.1650    1.8790 hn        1 H11      0.436800
     44 H3          2.8730   -1.3510    1.5830 hc        1 H11      0.050700
     45 H3A         2.8210   -2.1270   -0.0520 hc        1 H11      0.050700
@<TRIPOS>BOND
     1    1   13 1   
     2    1   14 1   
     3    1   15 2   
     4    2   18 1   
     5    2   19 1   
     6    2   20 1   
     7    2   21 1   
     8    3   18 1   
     9    3   22 1   
    10    3   23 1   
    11    3   24 1   
    12    4    5 1   
    13    4   12 1   
    14    4   13 1   
    15    4   25 1   
    16    5    6 1   
    17    5   26 1   
    18    5   27 1   
    19    6    9 1   
    20    6   28 1   
    21    6   29 1   
    22    7   10 1   
    23    7   11 1   
    24    7   30 1   
    25    7   31 1   
    26    8   19 1   
    27    8   32 1   
    28    8   33 1   
    29    8   34 1   
    30    9   10 1   
    31    9   35 1   
    32    9   36 1   
    33   10   37 1   
    34   10   38 1   
    35   11   12 1   
    36   11   39 1   
    37   11   40 1   
    38   12   41 1   
    39   12   42 1   
    40   13   43 1   
    41   14   18 1   
    42   15   16 1   
    43   16   17 2   
    44   16   18 1   
    45   19   44 1   
    46   19   45 1   
@<TRIPOS>SUBSTRUCTURE
     1 H11         1 TEMP              0 ****  ****    0 ROOT
