@<TRIPOS>MOLECULE
H11
   46    47     1     0     0
SMALL
bcc


@<TRIPOS>ATOM
      1 C4          0.1540   -0.7620    0.0830 c2        1 H11      0.513100
      2 C5          2.0730    1.4810    2.2160 c3        1 H11     -0.077400
      3 C6          3.3100   -0.6420    1.7840 c3        1 H11     -0.099100
      4 C7         -2.0730   -0.4440   -1.0140 c3        1 H11      0.137500
      5 C8         -2.9730   -1.0450   -2.1020 c3        1 H11     -0.099900
      6 C10        -4.2840   -1.5500   -1.5290 c3        1 H11     -0.078400
      7 C13        -4.1910    1.5810    0.0330 c3        1 H11     -0.087400
      8 C15         0.9150    3.5980    2.8210 c3        1 H11     -0.096100
      9 C11        -5.2550   -0.4740   -1.0910 c3        1 H11     -0.087400
     10 C12        -4.8690    0.2340    0.1900 c3        1 H11     -0.086400
     11 C14        -3.2940    1.7800   -1.1670 c3        1 H11     -0.078400
     12 C9         -1.9540    1.0770   -1.1180 c3        1 H11     -0.099900
     13 N17        -0.6880   -1.0880   -1.0750 n4        1 H11     -0.721000
     14 S           1.5930    0.1660   -0.1670 ss        1 H11     -0.156300
     15 N          -0.1430   -1.1680    1.2900 ne        1 H11     -0.587100
     16 C2          0.8550   -0.7320    2.2500 c         1 H11      0.682500
     17 O           0.7750   -1.0110    3.4380 o         1 H11     -0.391100
     18 C           1.9970    0.0890    1.6180 c3        1 H11     -0.044900
     19 C3          0.7510    2.2190    2.2320 c3        1 H11     -0.088400
     20 H5          2.8360    2.0780    1.6480 hc        1 H11      0.086700
     21 H5A         2.4490    1.3780    3.2730 hc        1 H11      0.086700
     22 H6          3.4950   -0.8300    2.8730 hc        1 H11      0.077033
     23 H6A         4.1510   -0.0250    1.3830 hc        1 H11      0.077033
     24 H6B         3.2970   -1.6240    1.2520 hc        1 H11      0.077033
     25 H7         -2.4820   -0.7130    0.0090 hx        1 H11      0.135700
     26 H8         -3.1720   -0.2730   -2.8920 hc        1 H11      0.064200
     27 H8A        -2.4740   -1.9080   -2.6240 hc        1 H11      0.064200
     28 H10        -4.0780   -2.2420   -0.6690 hc        1 H11      0.062950
     29 H10A       -4.7820   -2.1620   -2.3320 hc        1 H11      0.062950
     30 H13        -4.9950    2.3670   -0.0320 hc        1 H11      0.059450
     31 H13A       -3.6070    1.7940    0.9680 hc        1 H11      0.059450
     32 H15        -0.0680    4.1280    2.8330 hc        1 H11      0.050033
     33 H15A        1.2950    3.5370    3.8700 hc        1 H11      0.050033
     34 H15B        1.6360    4.2020    2.2190 hc        1 H11      0.050033
     35 H11        -6.2480   -0.9780   -0.9250 hc        1 H11      0.059450
     36 H11A       -5.4130    0.2640   -1.9200 hc        1 H11      0.059450
     37 H12        -5.8080    0.4090    0.7880 hc        1 H11      0.048700
     38 H12A       -4.2370   -0.4450    0.8230 hc        1 H11      0.048700
     39 H14        -3.8390    1.5020   -2.1070 hc        1 H11      0.062950
     40 H14A       -3.0710    2.8820   -1.2470 hc        1 H11      0.062950
     41 H9         -1.3750    1.4610   -0.2330 hc        1 H11      0.064200
     42 H9A        -1.3860    1.3530   -2.0480 hc        1 H11      0.064200
     43 HN17       -0.8160   -2.1110   -1.1250 hn        1 H11      0.467300
     44 H3          0.0040    1.6400    2.8390 hc        1 H11      0.039700
     45 H3A         0.3480    2.3020    1.1880 hc        1 H11      0.039700
     46 H172       -0.2030   -0.7700   -1.9240 hn        1 H11      0.467300
@<TRIPOS>BOND
     1    1   13 1   
     2    1   14 1   
     3    1   15 2   
     4    2   18 1   
     5    2   19 1   
     6    2   20 1   
     7    2   21 1   
     8    3   18 1   
     9    3   22 1   
    10    3   23 1   
    11    3   24 1   
    12    4    5 1   
    13    4   12 1   
    14    4   13 1   
    15    4   25 1   
    16    5    6 1   
    17    5   26 1   
    18    5   27 1   
    19    6    9 1   
    20    6   28 1   
    21    6   29 1   
    22    7   10 1   
    23    7   11 1   
    24    7   30 1   
    25    7   31 1   
    26    8   19 1   
    27    8   32 1   
    28    8   33 1   
    29    8   34 1   
    30    9   10 1   
    31    9   35 1   
    32    9   36 1   
    33   10   37 1   
    34   10   38 1   
    35   11   12 1   
    36   11   39 1   
    37   11   40 1   
    38   12   41 1   
    39   12   42 1   
    40   13   43 1   
    41   13   46 1   
    42   14   18 1   
    43   15   16 1   
    44   16   17 2   
    45   16   18 1   
    46   19   44 1   
    47   19   45 1   
@<TRIPOS>SUBSTRUCTURE
     1 H11         1 TEMP              0 ****  ****    0 ROOT
