@<TRIPOS>MOLECULE
H11
   46    47     1     0     0
SMALL
bcc


@<TRIPOS>ATOM
      1 C4          0.1520   -0.7590    0.0630 c2        1 H11      0.513100
      2 C5          2.1160    1.5120    2.1230 c3        1 H11     -0.077400
      3 C6          3.3480   -0.6120    1.6840 c3        1 H11     -0.099100
      4 C7         -2.1030   -0.4610   -0.9820 c3        1 H11      0.137500
      5 C8         -3.0270   -1.0770   -2.0420 c3        1 H11     -0.099900
      6 C10        -4.3210   -1.5810   -1.4320 c3        1 H11     -0.078400
      7 C13        -4.2020    1.5670    0.0950 c3        1 H11     -0.087400
      8 C15         0.9660    3.6320    2.7320 c3        1 H11     -0.096100
      9 C11        -5.2860   -0.5030   -0.9810 c3        1 H11     -0.087400
     10 C12        -4.8710    0.2200    0.2830 c3        1 H11     -0.086400
     11 C14        -3.3360    1.7570   -1.1280 c3        1 H11     -0.078400
     12 C9         -1.9920    1.0590   -1.1050 c3        1 H11     -0.099900
     13 N17        -0.7180   -1.1010   -1.0710 ny        1 H11     -0.721000
     14 S           1.5810    0.1690   -0.2330 ss        1 H11     -0.156300
     15 N          -0.1140   -1.1530    1.2800 ne        1 H11     -0.587100
     16 C2          0.9050   -0.7030    2.2110 c         1 H11      0.682500
     17 O           0.8560   -0.9700    3.4040 o         1 H11     -0.391100
     18 C           2.0300    0.1130    1.5420 c3        1 H11     -0.044900
     19 C3          0.7920    2.2470    2.1630 c3        1 H11     -0.088400
     20 H5          2.8620    2.1050    1.5290 hc        1 H11      0.086700
     21 H5A         2.5180    1.4220    3.1710 hc        1 H11      0.086700
     22 H6          3.3250   -1.6000    1.1640 hc        1 H11      0.077033
     23 H6A         3.5610   -0.7870    2.7700 hc        1 H11      0.077033
     24 H6B         4.1780    0.0030    1.2560 hc        1 H11      0.077033
     25 H7         -2.4860   -0.7210    0.0530 hx        1 H11      0.135700
     26 H8         -2.5370   -1.9430   -2.5670 hc        1 H11      0.064200
     27 H8A        -3.2480   -0.3130   -2.8350 hc        1 H11      0.064200
     28 H10        -4.8370   -2.2030   -2.2150 hc        1 H11      0.062950
     29 H10A       -4.0920   -2.2630   -0.5700 hc        1 H11      0.062950
     30 H13        -3.5960    1.7920    1.0140 hc        1 H11      0.059450
     31 H13A       -5.0110    2.3490    0.0420 hc        1 H11      0.059450
     32 H15        -0.0180    4.1600    2.7630 hc        1 H11      0.050033
     33 H15A        1.3730    3.5840    3.7720 hc        1 H11      0.050033
     34 H15B        1.6700    4.2320    2.1060 hc        1 H11      0.050033
     35 H11        -5.4660    0.2260   -1.8130 hc        1 H11      0.059450
     36 H11A       -6.2730   -1.0090   -0.7860 hc        1 H11      0.059450
     37 H12        -4.2210   -0.4500    0.9070 hc        1 H11      0.048700
     38 H12A       -5.7950    0.3970    0.9020 hc        1 H11      0.048700
     39 H14        -3.1180    2.8590   -1.2250 hc        1 H11      0.062950
     40 H14A       -3.9020    1.4670   -2.0520 hc        1 H11      0.062950
     41 H9         -1.4480    1.3270   -2.0510 hc        1 H11      0.064200
     42 H9A        -1.3930    1.4540   -0.2380 hc        1 H11      0.064200
     43 HN17       -0.8430   -2.1250   -1.1070 hn        1 H11      0.467300
     44 H3          0.3630    2.3170    1.1280 hc        1 H11      0.039700
     45 H3A         0.0620    1.6720    2.7950 hc        1 H11      0.039700
     46 H172       -0.2550   -0.7910   -1.9350 hn        1 H11      0.467300
@<TRIPOS>BOND
     1    1   13 1   
     2    1   14 1   
     3    1   15 2   
     4    2   18 1   
     5    2   19 1   
     6    2   20 1   
     7    2   21 1   
     8    3   18 1   
     9    3   22 1   
    10    3   23 1   
    11    3   24 1   
    12    4    5 1   
    13    4   12 1   
    14    4   13 1   
    15    4   25 1   
    16    5    6 1   
    17    5   26 1   
    18    5   27 1   
    19    6    9 1   
    20    6   28 1   
    21    6   29 1   
    22    7   10 1   
    23    7   11 1   
    24    7   30 1   
    25    7   31 1   
    26    8   19 1   
    27    8   32 1   
    28    8   33 1   
    29    8   34 1   
    30    9   10 1   
    31    9   35 1   
    32    9   36 1   
    33   10   37 1   
    34   10   38 1   
    35   11   12 1   
    36   11   39 1   
    37   11   40 1   
    38   12   41 1   
    39   12   42 1   
    40   13   43 1   
    41   13   46 1   
    42   14   18 1   
    43   15   16 1   
    44   16   17 2   
    45   16   18 1   
    46   19   44 1   
    47   19   45 1   
@<TRIPOS>SUBSTRUCTURE
     1 H11         1 TEMP              0 ****  ****    0 ROOT
