@<TRIPOS>MOLECULE
H12
   44    46     1     0     0
SMALL
bcc


@<TRIPOS>ATOM
      1 CA          1.9320   -0.1160    0.0370 c3        1 H12      0.142100
      2 CB          2.4990   -0.9400    1.1870 c3        1 H12     -0.092400
      3 CC          3.6780   -1.7630    0.7120 c3        1 H12     -0.075900
      4 CD          4.7470   -0.8860    0.0930 c3        1 H12     -0.080400
      5 CE          4.1840   -0.0390   -1.0300 c3        1 H12     -0.075900
      6 CF          3.0030    0.7880   -0.5670 c3        1 H12     -0.092400
      7 N1         -2.9840   -0.7810    0.6100 n         1 H12     -0.446100
      8 C6         -2.3210   -0.5790    1.8280 c         1 H12      0.701700
      9 O2         -2.9310   -0.8750    2.8730 o         1 H12     -0.627500
     10 C5         -0.9420   -0.0560    1.7810 cc        1 H12     -0.183400
     11 C4         -0.3630    0.2210    0.5770 cd        1 H12      0.184900
     12 O4          0.9060    0.7760    0.5330 os        1 H12     -0.343900
     13 C2         -2.4140   -0.4620   -0.6130 ca        1 H12      0.100600
     14 C3         -1.0900    0.0560   -0.6700 ca        1 H12     -0.138800
     15 C7         -0.5440    0.4220   -1.9110 ca        1 H12     -0.063000
     16 C8         -1.2750    0.2460   -3.0780 ca        1 H12     -0.025600
     17 C9         -2.5730   -0.2920   -3.0340 ca        1 H12     -0.071000
     18 C10        -3.1390   -0.6390   -1.8220 ca        1 H12     -0.180000
     19 CL         -0.6030    0.6860   -4.5760 cl        1 H12     -0.087400
     20 C12        -0.7900    1.3560    3.8240 c3        1 H12     -0.078400
     21 C13        -0.0920    1.5340    5.1470 c3        1 H12     -0.091100
     22 HA          1.5020   -0.7940   -0.7490 h1        1 H12      0.053700
     23 HB1         2.8230   -0.2490    2.0100 hc        1 H12      0.055200
     24 HB2         1.6990   -1.6080    1.5990 hc        1 H12      0.055200
     25 HC1         3.3300   -2.5190   -0.0410 hc        1 H12      0.044450
     26 HC2         4.1100   -2.3270    1.5790 hc        1 H12      0.044450
     27 HD1         5.5770   -1.5270   -0.3020 hc        1 H12      0.043700
     28 HD2         5.1830   -0.2170    0.8810 hc        1 H12      0.043700
     29 HE1         3.8670   -0.7040   -1.8770 hc        1 H12      0.044450
     30 HE2         4.9810    0.6450   -1.4210 hc        1 H12      0.044450
     31 HF1         2.5690    1.3590   -1.4280 hc        1 H12      0.055200
     32 HF2         3.3290    1.5350    0.2030 hc        1 H12      0.055200
     33 HN1        -3.9130   -1.1400    0.6300 hn        1 H12      0.335500
     34 H7          0.4660    0.8640   -1.9380 ha        1 H12      0.161000
     35 H9         -3.1420   -0.4320   -3.9670 ha        1 H12      0.152000
     36 H10        -4.1600   -1.0500   -1.7960 ha        1 H12      0.145000
     37 H111        0.8420    0.2430    2.9250 hc        1 H12      0.060200
     38 H112       -0.4360   -0.7770    3.7240 hc        1 H12      0.060200
     39 H121       -1.8940    1.2350    3.9880 hc        1 H12      0.050200
     40 H122       -0.6380    2.2680    3.1900 hc        1 H12      0.050200
     41 H131       -0.4910    2.4330    5.6750 hc        1 H12      0.032700
     42 H132       -0.2520    0.6420    5.8000 hc        1 H12      0.032700
     43 H133        1.0070    1.6690    5.0010 hc        1 H12      0.032700
     44 C11        -0.2650    0.1350    3.0890 c3        1 H12     -0.026200
@<TRIPOS>BOND
     1    1    2 1   
     2    1    6 1   
     3    1   12 1   
     4    1   22 1   
     5    2    3 1   
     6    2   23 1   
     7    2   24 1   
     8    3    4 1   
     9    3   25 1   
    10    3   26 1   
    11    4    5 1   
    12    4   27 1   
    13    4   28 1   
    14    5    6 1   
    15    5   29 1   
    16    5   30 1   
    17    6   31 1   
    18    6   32 1   
    19    7    8 1   
    20    7   13 1   
    21    7   33 1   
    22    8    9 2   
    23    8   10 1   
    24   10   11 2   
    25   10   44 1   
    26   11   12 1   
    27   11   14 1   
    28   13   14 ar  
    29   13   18 ar  
    30   14   15 ar  
    31   15   16 ar  
    32   15   34 1   
    33   16   17 ar  
    34   16   19 1   
    35   17   18 ar  
    36   17   35 1   
    37   18   36 1   
    38   20   21 1   
    39   20   39 1   
    40   20   40 1   
    41   20   44 1   
    42   21   41 1   
    43   21   42 1   
    44   21   43 1   
    45   37   44 1   
    46   38   44 1   
@<TRIPOS>SUBSTRUCTURE
     1 H12         1 TEMP              0 ****  ****    0 ROOT
