@<TRIPOS>MOLECULE
H13
   67    67     1     0     0
SMALL
bcc


@<TRIPOS>ATOM
      1 O21         0.1480    0.3900    0.0430 o         1 H13     -0.412100
      2 C21         1.3410    0.2920   -0.1940 c         1 H13      0.551100
      3 N2          2.2910    0.4290    0.9780 n4        1 H13     -0.676800
      4 C2          1.6530    0.2010    2.3220 c3        1 H13      0.137500
      5 C1          1.2160   -1.2690    2.4900 c3        1 H13      0.107400
      6 O1          2.3260   -2.0860    2.1600 oh        1 H13     -0.635800
      7 C3          2.5870    0.5880    3.4710 c3        1 H13     -0.117400
      8 C4          3.2150    1.9810    3.3530 c3        1 H13      0.191400
      9 C5          3.4630    2.5680    4.7080 ca        1 H13     -0.163300
     10 C6          4.7600    2.5960    5.2300 ca        1 H13     -0.114000
     11 C7          4.9890    3.1420    6.4930 ca        1 H13     -0.118500
     12 C8          3.9290    3.6630    7.2350 ca        1 H13     -0.099000
     13 C9          2.6340    3.6380    6.7140 ca        1 H13     -0.118500
     14 C10         2.4000    3.0910    5.4540 ca        1 H13     -0.114000
     15 O4          2.3530    2.7820    2.5470 oh        1 H13     -0.659800
     16 C22         2.0120    0.0460   -1.5140 c3        1 H13     -0.155400
     17 C23         1.0330    0.2410   -2.6570 c3        1 H13     -0.082400
     18 C24         1.7050   -0.0570   -3.9810 c3        1 H13     -0.080400
     19 C25         0.7380    0.1420   -5.1300 c3        1 H13     -0.079400
     20 C26         1.4040   -0.1530   -6.4570 c3        1 H13     -0.079400
     21 C27         0.4400    0.0470   -7.6070 c3        1 H13     -0.079400
     22 C28         1.1050   -0.2460   -8.9350 c3        1 H13     -0.079400
     23 C29         0.1410   -0.0450  -10.0850 c3        1 H13     -0.079400
     24 C30         0.8060   -0.3360  -11.4140 c3        1 H13     -0.079400
     25 C31        -0.1570   -0.1350  -12.5650 c3        1 H13     -0.079400
     26 C32         0.5060   -0.4240  -13.8950 c3        1 H13     -0.079400
     27 C33        -0.4490   -0.2250  -15.0430 c3        1 H13     -0.093100
     28 HN2         2.6760    1.3860    0.9650 hn        1 H13      0.471800
     29 H2          0.7320    0.8610    2.3550 hx        1 H13      0.132700
     30 H1          0.3620   -1.5020    1.7960 h1        1 H13      0.073200
     31 H1A         0.8890   -1.4230    3.5520 h1        1 H13      0.073200
     32 HO1         2.1870   -2.9490    2.5710 ho        1 H13      0.449000
     33 H3          1.9670    0.5450    4.4090 hc        1 H13      0.093200
     34 H3A         3.4070   -0.1710    3.5700 hc        1 H13      0.093200
     35 H4          4.1940    1.9020    2.7920 h1        1 H13      0.044700
     36 H6          5.6020    2.1920    4.6480 ha        1 H13      0.135500
     37 H7          6.0110    3.1630    6.9030 ha        1 H13      0.150500
     38 H8          4.1130    4.0950    8.2310 ha        1 H13      0.152000
     39 H9          1.7970    4.0510    7.2980 ha        1 H13      0.150500
     40 H10         1.3790    3.0690    5.0420 ha        1 H13      0.135500
     41 HO4         2.3570    3.6840    2.8930 ho        1 H13      0.452000
     42 H22         2.3990   -1.0120   -1.5200 hc        1 H13      0.099200
     43 H22A        2.8890    0.7370   -1.6430 hc        1 H13      0.099200
     44 H23         0.1470   -0.4340   -2.5160 hc        1 H13      0.069700
     45 H23A        0.6510    1.2960   -2.6510 hc        1 H13      0.069700
     46 H24         2.5930    0.6150   -4.1170 hc        1 H13      0.047700
     47 H24A        2.0820   -1.1140   -3.9860 hc        1 H13      0.047700
     48 H25         0.3590    1.1980   -5.1250 hc        1 H13      0.048200
     49 H25A       -0.1500   -0.5310   -4.9960 hc        1 H13      0.048200
     50 H26         1.7830   -1.2090   -6.4630 hc        1 H13      0.042700
     51 H26A        2.2930    0.5190   -6.5910 hc        1 H13      0.042700
     52 H27        -0.4490   -0.6260   -7.4750 hc        1 H13      0.042700
     53 H27A        0.0600    1.1020   -7.6010 hc        1 H13      0.042700
     54 H28         1.9930    0.4260   -9.0680 hc        1 H13      0.040700
     55 H28A        1.4840   -1.3010   -8.9420 hc        1 H13      0.040700
     56 H29        -0.7470   -0.7180   -9.9540 hc        1 H13      0.041200
     57 H29A       -0.2400    1.0100  -10.0780 hc        1 H13      0.041200
     58 H30         1.1860   -1.3910  -11.4220 hc        1 H13      0.040200
     59 H30A        1.6940    0.3370  -11.5460 hc        1 H13      0.040200
     60 H31        -0.5390    0.9200  -12.5570 hc        1 H13      0.040700
     61 H31A       -1.0450   -0.8090  -12.4340 hc        1 H13      0.040700
     62 H32         0.8880   -1.4790  -13.9000 hc        1 H13      0.038700
     63 H32A        1.3950    0.2500  -14.0230 hc        1 H13      0.038700
     64 H33        -1.3290   -0.9060  -14.9470 hc        1 H13      0.034700
     65 H33A       -0.8220    0.8280  -15.0690 hc        1 H13      0.034700
     66 H33B        0.0600   -0.4430  -16.0130 hc        1 H13      0.034700
     67 H221        3.0570   -0.2460    0.8670 hn        1 H13      0.471800
@<TRIPOS>BOND
     1    1    2 2   
     2    2    3 1   
     3    2   16 1   
     4    3    4 1   
     5    3   28 1   
     6    3   67 1   
     7    4    5 1   
     8    4    7 1   
     9    4   29 1   
    10    5    6 1   
    11    5   30 1   
    12    5   31 1   
    13    6   32 1   
    14    7    8 1   
    15    7   33 1   
    16    7   34 1   
    17    8    9 1   
    18    8   15 1   
    19    8   35 1   
    20    9   10 ar  
    21    9   14 ar  
    22   10   11 ar  
    23   10   36 1   
    24   11   12 ar  
    25   11   37 1   
    26   12   13 ar  
    27   12   38 1   
    28   13   14 ar  
    29   13   39 1   
    30   14   40 1   
    31   15   41 1   
    32   16   17 1   
    33   16   42 1   
    34   16   43 1   
    35   17   18 1   
    36   17   44 1   
    37   17   45 1   
    38   18   19 1   
    39   18   46 1   
    40   18   47 1   
    41   19   20 1   
    42   19   48 1   
    43   19   49 1   
    44   20   21 1   
    45   20   50 1   
    46   20   51 1   
    47   21   22 1   
    48   21   52 1   
    49   21   53 1   
    50   22   23 1   
    51   22   54 1   
    52   22   55 1   
    53   23   24 1   
    54   23   56 1   
    55   23   57 1   
    56   24   25 1   
    57   24   58 1   
    58   24   59 1   
    59   25   26 1   
    60   25   60 1   
    61   25   61 1   
    62   26   27 1   
    63   26   62 1   
    64   26   63 1   
    65   27   64 1   
    66   27   65 1   
    67   27   66 1   
@<TRIPOS>SUBSTRUCTURE
     1 H13         1 TEMP              0 ****  ****    0 ROOT
