@<TRIPOS>MOLECULE
H13
   66    66     1     0     0
SMALL
bcc


@<TRIPOS>ATOM
      1 O21         1.4730   -1.7160    1.4380 o         1 H13     -0.603100
      2 C21         1.6000   -1.1610    0.3300 c         1 H13      0.649100
      3 N2          2.8490   -0.9950   -0.2540 n         1 H13     -0.552900
      4 C2          4.0220   -1.6420    0.2900 c3        1 H13      0.096700
      5 C1          4.1770   -3.1070   -0.1800 c3        1 H13      0.098400
      6 O1          4.3370   -3.1000   -1.5890 oh        1 H13     -0.610800
      7 C3          5.3110   -0.8780   -0.0440 c3        1 H13     -0.107400
      8 C4          5.4340    0.4110    0.7680 c3        1 H13      0.182400
      9 C5          6.5620    1.2540    0.2410 ca        1 H13     -0.116300
     10 C6          6.2930    2.5080   -0.3150 ca        1 H13     -0.119000
     11 C7          7.3330    3.2950   -0.8090 ca        1 H13     -0.128000
     12 C8          8.6480    2.8350   -0.7480 ca        1 H13     -0.125000
     13 C9          8.9220    1.5860   -0.1920 ca        1 H13     -0.128000
     14 C10         7.8830    0.7980    0.3000 ca        1 H13     -0.119000
     15 O4          5.5900    0.1240    2.1500 oh        1 H13     -0.586800
     16 C22         0.4200   -0.5730   -0.4230 c3        1 H13     -0.150400
     17 C23        -0.8780   -0.8360    0.3100 c3        1 H13     -0.074400
     18 C24        -2.0500   -0.2350   -0.4340 c3        1 H13     -0.079400
     19 C25        -3.3510   -0.4990    0.2950 c3        1 H13     -0.078400
     20 C26        -4.5270    0.1010   -0.4460 c3        1 H13     -0.079400
     21 C27        -5.8270   -0.1640    0.2830 c3        1 H13     -0.079400
     22 C28        -7.0030    0.4360   -0.4560 c3        1 H13     -0.078400
     23 C29        -8.3030    0.1720    0.2730 c3        1 H13     -0.079400
     24 C30        -9.4800    0.7710   -0.4670 c3        1 H13     -0.079400
     25 C31       -10.7800    0.5070    0.2630 c3        1 H13     -0.079400
     26 C32       -11.9580    1.1060   -0.4760 c3        1 H13     -0.080400
     27 C33       -13.2540    0.8450    0.2460 c3        1 H13     -0.092100
     28 HN2         2.8850   -0.7970   -1.2280 hn        1 H13      0.305500
     29 H2          3.9040   -1.6700    1.4180 h1        1 H13      0.104700
     30 H1          5.0810   -3.5600    0.3080 h1        1 H13      0.035200
     31 H1A         3.2680   -3.7010    0.1050 h1        1 H13      0.035200
     32 HO1         4.3870   -4.0230   -1.8650 ho        1 H13      0.403000
     33 H3          6.1820   -1.5440    0.1910 hc        1 H13      0.058700
     34 H3A         5.3540   -0.6430   -1.1380 hc        1 H13      0.058700
     35 H4          4.4650    0.9890    0.7320 h1        1 H13      0.091700
     36 H6          5.2580    2.8790   -0.3580 ha        1 H13      0.129500
     37 H7          7.1140    4.2810   -1.2450 ha        1 H13      0.132500
     38 H8          9.4680    3.4570   -1.1360 ha        1 H13      0.133000
     39 H9          9.9590    1.2210   -0.1410 ha        1 H13      0.132500
     40 H10         8.1040   -0.1900    0.7330 ha        1 H13      0.129500
     41 HO4         6.4530   -0.2920    2.2670 ho        1 H13      0.395000
     42 H22         0.5760    0.5330   -0.5360 hc        1 H13      0.062200
     43 H22A        0.3750   -1.0200   -1.4510 hc        1 H13      0.062200
     44 H23        -1.0220   -1.9430    0.4270 hc        1 H13      0.059200
     45 H23A       -0.8150   -0.4070    1.3440 hc        1 H13      0.059200
     46 H24        -1.9010    0.8710   -0.5460 hc        1 H13      0.037200
     47 H24A       -2.1050   -0.6680   -1.4680 hc        1 H13      0.037200
     48 H25        -3.5010   -1.6060    0.4070 hc        1 H13      0.043200
     49 H25A       -3.2960   -0.0670    1.3290 hc        1 H13      0.043200
     50 H26        -4.3770    1.2070   -0.5570 hc        1 H13      0.038700
     51 H26A       -4.5810   -0.3310   -1.4800 hc        1 H13      0.038700
     52 H27        -5.9770   -1.2700    0.3960 hc        1 H13      0.040700
     53 H27A       -5.7720    0.2690    1.3170 hc        1 H13      0.040700
     54 H28        -6.8530    1.5420   -0.5680 hc        1 H13      0.039200
     55 H28A       -7.0570    0.0040   -1.4900 hc        1 H13      0.039200
     56 H29        -8.4530   -0.9350    0.3850 hc        1 H13      0.039700
     57 H29A       -8.2490    0.6040    1.3070 hc        1 H13      0.039700
     58 H30        -9.3300    1.8770   -0.5780 hc        1 H13      0.038700
     59 H30A       -9.5340    0.3390   -1.5000 hc        1 H13      0.038700
     60 H31       -10.9300   -0.6000    0.3740 hc        1 H13      0.039700
     61 H31A      -10.7260    0.9390    1.2960 hc        1 H13      0.039700
     62 H32       -11.8050    2.2120   -0.5880 hc        1 H13      0.038200
     63 H32A      -12.0090    0.6730   -1.5100 hc        1 H13      0.038200
     64 H33       -13.4360   -0.2530    0.3460 hc        1 H13      0.032700
     65 H33A      -13.2310    1.2900    1.2700 hc        1 H13      0.032700
     66 H33B      -14.1090    1.2940   -0.3150 hc        1 H13      0.032700
@<TRIPOS>BOND
     1    1    2 2   
     2    2    3 1   
     3    2   16 1   
     4    3    4 1   
     5    3   28 1   
     6    4    5 1   
     7    4    7 1   
     8    4   29 1   
     9    5    6 1   
    10    5   30 1   
    11    5   31 1   
    12    6   32 1   
    13    7    8 1   
    14    7   33 1   
    15    7   34 1   
    16    8    9 1   
    17    8   15 1   
    18    8   35 1   
    19    9   10 ar  
    20    9   14 ar  
    21   10   11 ar  
    22   10   36 1   
    23   11   12 ar  
    24   11   37 1   
    25   12   13 ar  
    26   12   38 1   
    27   13   14 ar  
    28   13   39 1   
    29   14   40 1   
    30   15   41 1   
    31   16   17 1   
    32   16   42 1   
    33   16   43 1   
    34   17   18 1   
    35   17   44 1   
    36   17   45 1   
    37   18   19 1   
    38   18   46 1   
    39   18   47 1   
    40   19   20 1   
    41   19   48 1   
    42   19   49 1   
    43   20   21 1   
    44   20   50 1   
    45   20   51 1   
    46   21   22 1   
    47   21   52 1   
    48   21   53 1   
    49   22   23 1   
    50   22   54 1   
    51   22   55 1   
    52   23   24 1   
    53   23   56 1   
    54   23   57 1   
    55   24   25 1   
    56   24   58 1   
    57   24   59 1   
    58   25   26 1   
    59   25   60 1   
    60   25   61 1   
    61   26   27 1   
    62   26   62 1   
    63   26   63 1   
    64   27   64 1   
    65   27   65 1   
    66   27   66 1   
@<TRIPOS>SUBSTRUCTURE
     1 H13         1 TEMP              0 ****  ****    0 ROOT
