@<TRIPOS>MOLECULE
H13
   66    63     1     0     0
SMALL
bcc


@<TRIPOS>ATOM
      1 O21        -1.4110    0.8770    2.7640 o         1 H13     -0.381000
      2 C21        -0.2010    0.9110    2.6880 c1        1 H13      0.299000
      3 N2          0.6130    0.5360    3.8400 n2        1 H13     -0.377000
      4 C2          0.0180   -0.1970    4.9420 c3        1 H13      0.001000
      5 C1          0.0550   -1.6480    4.6470 c3        1 H13     -0.043000
      6 O1         -1.0190   -2.2830    5.2920 oh        1 H13     -0.332000
      7 C3          0.8010    0.0830    6.2230 c3        1 H13     -0.160000
      8 C4         -0.1800    0.3720    7.3710 c3        1 H13      0.069000
      9 C5          0.5870    0.4940    8.6780 c2        1 H13     -0.123000
     10 C6          0.7710    1.7450    9.2640 c1        1 H13     -0.116000
     11 C7          1.4900    1.8580   10.4530 c1        1 H13     -0.128000
     12 C8          2.0220    0.7240   11.0550 c1        1 H13     -0.128000
     13 C9          1.8380   -0.5290   10.4680 c1        1 H13     -0.131000
     14 C10         1.1210   -0.6430    9.2810 c2        1 H13     -0.122000
     15 O4         -1.1030   -0.6710    7.4680 oh        1 H13     -0.339000
     16 C22         0.4810    1.3740    1.3790 c3        1 H13     -0.183000
     17 C23        -0.4860    1.1710    0.1940 c3        1 H13     -0.157000
     18 C24         0.3140    1.1570   -1.1250 c3        1 H13     -0.158000
     19 C25        -0.6350    0.8700   -2.2950 c3        1 H13     -0.158000
     20 C26         0.1840    0.6300   -3.5760 c3        1 H13     -0.158000
     21 C27        -0.7660    0.1770   -4.7240 c3        1 H13     -0.158000
     22 C28         0.0430   -0.0070   -6.0160 c3        1 H13     -0.158000
     23 C29        -0.9020   -0.4100   -7.1620 c3        1 H13     -0.158000
     24 C30        -0.0900   -0.5990   -8.4560 c3        1 H13     -0.158000
     25 C31        -1.0490   -0.9100   -9.6220 c3        1 H13     -0.158000
     26 C32        -0.2340   -1.2100  -10.8950 c3        1 H13     -0.159000
     27 C33        -1.1730   -1.6920  -12.0010 c3        1 H13     -0.210000
     28 HN2         1.5040    0.7290    3.8500 hn        1 H13      0.233000
     29 H2         -0.9080    0.0870    5.0590 h1        1 H13      0.098000
     30 H1         -0.0160   -1.7870    3.6810 h1        1 H13      0.109000
     31 H1A         0.8930   -2.0220    4.9680 h1        1 H13      0.109000
     32 HO1        -1.0860   -3.1140    5.0030 ho        1 H13      0.200000
     33 H3          1.3500   -0.7030    6.4500 hc        1 H13      0.107000
     34 H3A         1.3840    0.8610    6.0870 hc        1 H13      0.107000
     35 H4         -0.6510    1.2070    7.1920 h1        1 H13      0.091000
     36 H6          0.3970    2.5440    8.8410 ha        1 H13      0.145000
     37 H7          1.6200    2.7350   10.8650 ha        1 H13      0.133000
     38 H8          2.5280    0.8040   11.8900 ha        1 H13      0.133000
     39 H9          2.2150   -1.3330   10.8950 ha        1 H13      0.132000
     40 H10         0.9910   -1.5270    8.8680 ha        1 H13      0.141000
     41 HO4        -1.9110   -0.3370    7.6400 ho        1 H13      0.206000
     42 H22         0.7110    2.3150    1.4500 hc        1 H13      0.111000
     43 H22A        1.2950    0.8490    1.2310 hc        1 H13      0.111000
     44 H23        -1.1350    1.9010    0.1740 hc        1 H13      0.087000
     45 H23A       -0.9580    0.3130    0.2990 hc        1 H13      0.087000
     46 H24         0.7410    2.0300   -1.2580 hc        1 H13      0.082000
     47 H24A        0.9910    0.4710   -1.0840 hc        1 H13      0.082000
     48 H25        -1.2320    1.6390   -2.4270 hc        1 H13      0.080500
     49 H25A       -1.1710    0.0700   -2.0940 hc        1 H13      0.080500
     50 H26         0.8520   -0.0680   -3.4110 hc        1 H13      0.079500
     51 H26A        0.6330    1.4550   -3.8340 hc        1 H13      0.079500
     52 H27        -1.4530    0.8550   -4.8640 hc        1 H13      0.079500
     53 H27A       -1.1900   -0.6690   -4.4820 hc        1 H13      0.079500
     54 H28         0.7170   -0.7120   -5.8830 hc        1 H13      0.079000
     55 H28A        0.4880    0.8280   -6.2420 hc        1 H13      0.079000
     56 H29        -1.3530   -1.2510   -6.9330 hc        1 H13      0.079000
     57 H29A       -1.5680    0.2890   -7.2950 hc        1 H13      0.079000
     58 H30         0.4030    0.2160   -8.6500 hc        1 H13      0.079000
     59 H30A        0.5360   -1.3390   -8.3420 hc        1 H13      0.079000
     60 H31        -1.5980   -1.6910   -9.3940 hc        1 H13      0.079000
     61 H31A       -1.6370   -0.1300   -9.7840 hc        1 H13      0.079000
     62 H32         0.2230   -0.3980  -11.1870 hc        1 H13      0.078000
     63 H32A        0.4280   -1.9050  -10.7030 hc        1 H13      0.078000
     64 H33        -0.6600   -1.8480  -12.8240 hc        1 H13      0.072000
     65 H33A       -1.8540   -1.0160  -12.1660 hc        1 H13      0.072000
     66 H33B       -1.6050   -2.5290  -11.7220 hc        1 H13      0.072000
@<TRIPOS>BOND
     1    1    2 1   
     2    2   16 1   
     3    3    4 1   
     4    3   28 1   
     5    4    5 1   
     6    4    7 1   
     7    4   29 1   
     8    5    6 1   
     9    5   30 1   
    10    5   31 1   
    11    6   32 1   
    12    7    8 1   
    13    7   33 1   
    14    7   34 1   
    15    8    9 1   
    16    8   15 1   
    17    8   35 1   
    18    9   10 1   
    19    9   14 1   
    20   10   36 1   
    21   11   12 1   
    22   11   37 1   
    23   12   38 1   
    24   13   14 1   
    25   13   39 1   
    26   14   40 1   
    27   15   41 1   
    28   16   17 1   
    29   16   42 1   
    30   16   43 1   
    31   17   18 1   
    32   17   44 1   
    33   17   45 1   
    34   18   19 1   
    35   18   46 1   
    36   18   47 1   
    37   19   20 1   
    38   19   48 1   
    39   19   49 1   
    40   20   21 1   
    41   20   50 1   
    42   20   51 1   
    43   21   22 1   
    44   21   52 1   
    45   21   53 1   
    46   22   23 1   
    47   22   54 1   
    48   22   55 1   
    49   23   24 1   
    50   23   56 1   
    51   23   57 1   
    52   24   25 1   
    53   24   58 1   
    54   24   59 1   
    55   25   26 1   
    56   25   60 1   
    57   25   61 1   
    58   26   27 1   
    59   26   62 1   
    60   26   63 1   
    61   27   64 1   
    62   27   65 1   
    63   27   66 1   
@<TRIPOS>SUBSTRUCTURE
     1 H13         1 TEMP              0 ****  ****    0 ROOT
