@<TRIPOS>MOLECULE
H13
   67    67     1     0     0
SMALL
bcc


@<TRIPOS>ATOM
      1 O21         0.1510    0.4500    0.0320 o         1 H13     -0.412100
      2 C21         1.3430    0.3430   -0.2030 c         1 H13      0.551100
      3 N2          2.2920    0.4720    0.9710 n4        1 H13     -0.676800
      4 C2          1.6560    0.2180    2.3110 c3        1 H13      0.137500
      5 C1          1.2240   -1.2560    2.4530 c3        1 H13      0.107400
      6 O1          2.3380   -2.0630    2.1100 oh        1 H13     -0.635800
      7 C3          2.5870    0.5890    3.4670 c3        1 H13     -0.117400
      8 C4          3.2100    1.9870    3.3720 c3        1 H13      0.191400
      9 C5          3.4560    2.5510    4.7360 ca        1 H13     -0.163300
     10 C6          4.7530    2.5760    5.2580 ca        1 H13     -0.114000
     11 C7          4.9820    3.1000    6.5300 ca        1 H13     -0.118500
     12 C8          3.9200    3.6040    7.2820 ca        1 H13     -0.099000
     13 C9          2.6250    3.5830    6.7610 ca        1 H13     -0.118500
     14 C10         2.3920    3.0560    5.4920 ca        1 H13     -0.114000
     15 O4          2.3430    2.7980    2.5800 oh        1 H13     -0.659800
     16 C22         2.0150    0.0920   -1.5220 c3        1 H13     -0.155400
     17 C23         1.0360    0.2830   -2.6660 c3        1 H13     -0.082400
     18 C24         1.7090   -0.0210   -3.9890 c3        1 H13     -0.080400
     19 C25         0.7420    0.1720   -5.1380 c3        1 H13     -0.079400
     20 C26         1.4070   -0.1310   -6.4640 c3        1 H13     -0.079400
     21 C27         0.4430    0.0610   -7.6150 c3        1 H13     -0.079400
     22 C28         1.1060   -0.2410   -8.9410 c3        1 H13     -0.079400
     23 C29         0.1420   -0.0500  -10.0920 c3        1 H13     -0.079400
     24 C30         0.8060   -0.3510  -11.4190 c3        1 H13     -0.079400
     25 C31        -0.1580   -0.1600  -12.5700 c3        1 H13     -0.079400
     26 C32         0.5040   -0.4610  -13.8980 c3        1 H13     -0.079400
     27 C33        -0.4520   -0.2710  -15.0480 c3        1 H13     -0.093100
     28 HN2         3.0650   -0.1940    0.8510 hn        1 H13      0.472300
     29 H2          0.7320    0.8730    2.3550 hx        1 H13      0.133700
     30 H1          0.3720   -1.4820    1.7550 h1        1 H13      0.073200
     31 H1A         0.8980   -1.4300    3.5120 h1        1 H13      0.073200
     32 HO1         2.2060   -2.9320    2.5110 ho        1 H13      0.449000
     33 H3          3.4110   -0.1680    3.5530 hc        1 H13      0.093200
     34 H3A         1.9670    0.5280    4.4030 hc        1 H13      0.093200
     35 H4          4.1890    1.9210    2.8080 h1        1 H13      0.043700
     36 H6          5.5970    2.1860    4.6690 ha        1 H13      0.135500
     37 H7          6.0040    3.1190    6.9390 ha        1 H13      0.150500
     38 H8          4.1030    4.0200    8.2850 ha        1 H13      0.152000
     39 H9          1.7860    3.9820    7.3530 ha        1 H13      0.150500
     40 H10         1.3710    3.0380    5.0810 ha        1 H13      0.135500
     41 HO4         2.3440    3.6940    2.9410 ho        1 H13      0.452000
     42 H22         2.4040   -0.9650   -1.5250 hc        1 H13      0.099200
     43 H22A        2.8910    0.7840   -1.6530 hc        1 H13      0.099200
     44 H23         0.6540    1.3380   -2.6650 hc        1 H13      0.070200
     45 H23A        0.1510   -0.3920   -2.5220 hc        1 H13      0.070200
     46 H24         2.0860   -1.0770   -3.9890 hc        1 H13      0.047700
     47 H24A        2.5960    0.6520   -4.1270 hc        1 H13      0.047700
     48 H25        -0.1470   -0.5000   -5.0010 hc        1 H13      0.048200
     49 H25A        0.3630    1.2280   -5.1400 hc        1 H13      0.048200
     50 H26         2.2960    0.5400   -6.6020 hc        1 H13      0.042700
     51 H26A        1.7860   -1.1870   -6.4630 hc        1 H13      0.042700
     52 H27         0.0630    1.1170   -7.6160 hc        1 H13      0.042700
     53 H27A       -0.4460   -0.6100   -7.4780 hc        1 H13      0.042700
     54 H28         1.4860   -1.2970   -8.9410 hc        1 H13      0.040700
     55 H28A        1.9950    0.4300   -9.0790 hc        1 H13      0.040700
     56 H29        -0.7460   -0.7210   -9.9550 hc        1 H13      0.040700
     57 H29A       -0.2380    1.0060  -10.0930 hc        1 H13      0.040700
     58 H30         1.6940    0.3200  -11.5570 hc        1 H13      0.040200
     59 H30A        1.1850   -1.4070  -11.4190 hc        1 H13      0.040200
     60 H31        -1.0470   -0.8310  -12.4340 hc        1 H13      0.040700
     61 H31A       -0.5380    0.8960  -12.5720 hc        1 H13      0.040700
     62 H32         1.3930    0.2100  -14.0330 hc        1 H13      0.038700
     63 H32A        0.8850   -1.5160  -13.8950 hc        1 H13      0.038700
     64 H33        -0.8230    0.7820  -15.0830 hc        1 H13      0.034700
     65 H33A        0.0560   -0.4980  -16.0160 hc        1 H13      0.034700
     66 H33B       -1.3330   -0.9500  -14.9440 hc        1 H13      0.034700
     67 H221        2.6680    1.4330    0.9730 hn        1 H13      0.472300
@<TRIPOS>BOND
     1    1    2 2   
     2    2    3 1   
     3    2   16 1   
     4    3    4 1   
     5    3   28 1   
     6    3   67 1   
     7    4    5 1   
     8    4    7 1   
     9    4   29 1   
    10    5    6 1   
    11    5   30 1   
    12    5   31 1   
    13    6   32 1   
    14    7    8 1   
    15    7   33 1   
    16    7   34 1   
    17    8    9 1   
    18    8   15 1   
    19    8   35 1   
    20    9   10 ar  
    21    9   14 ar  
    22   10   11 ar  
    23   10   36 1   
    24   11   12 ar  
    25   11   37 1   
    26   12   13 ar  
    27   12   38 1   
    28   13   14 ar  
    29   13   39 1   
    30   14   40 1   
    31   15   41 1   
    32   16   17 1   
    33   16   42 1   
    34   16   43 1   
    35   17   18 1   
    36   17   44 1   
    37   17   45 1   
    38   18   19 1   
    39   18   46 1   
    40   18   47 1   
    41   19   20 1   
    42   19   48 1   
    43   19   49 1   
    44   20   21 1   
    45   20   50 1   
    46   20   51 1   
    47   21   22 1   
    48   21   52 1   
    49   21   53 1   
    50   22   23 1   
    51   22   54 1   
    52   22   55 1   
    53   23   24 1   
    54   23   56 1   
    55   23   57 1   
    56   24   25 1   
    57   24   58 1   
    58   24   59 1   
    59   25   26 1   
    60   25   60 1   
    61   25   61 1   
    62   26   27 1   
    63   26   62 1   
    64   26   63 1   
    65   27   64 1   
    66   27   65 1   
    67   27   66 1   
@<TRIPOS>SUBSTRUCTURE
     1 H13         1 TEMP              0 ****  ****    0 ROOT
