@<TRIPOS>MOLECULE
H13
   67    67     1     0     0
SMALL
bcc


@<TRIPOS>ATOM
      1 O21         0.1550    0.4260    0.0360 o         1 H13     -0.412100
      2 C21         1.3480    0.3280   -0.2010 c         1 H13      0.551100
      3 N2          2.2980    0.4630    0.9720 ny        1 H13     -0.676800
      4 C2          1.6650    0.2090    2.3130 c3        1 H13      0.137500
      5 C1          1.2410   -1.2680    2.4580 c3        1 H13      0.107400
      6 O1          2.3580   -2.0700    2.1150 oh        1 H13     -0.635800
      7 C3          2.5960    0.5870    3.4660 c3        1 H13     -0.117400
      8 C4          3.2110    1.9870    3.3680 c3        1 H13      0.191400
      9 C5          3.4570    2.5560    4.7310 ca        1 H13     -0.163300
     10 C6          4.7540    2.5880    5.2510 ca        1 H13     -0.114000
     11 C7          4.9810    3.1160    6.5220 ca        1 H13     -0.118500
     12 C8          3.9180    3.6170    7.2730 ca        1 H13     -0.099000
     13 C9          2.6220    3.5880    6.7540 ca        1 H13     -0.118500
     14 C10         2.3900    3.0580    5.4870 ca        1 H13     -0.114000
     15 O4          2.3400    2.7920    2.5750 oh        1 H13     -0.659800
     16 C22         2.0200    0.0830   -1.5220 c3        1 H13     -0.155400
     17 C23         1.0380    0.2720   -2.6640 c3        1 H13     -0.082400
     18 C24         1.7100   -0.0270   -3.9880 c3        1 H13     -0.080400
     19 C25         0.7410    0.1650   -5.1360 c3        1 H13     -0.079400
     20 C26         1.4060   -0.1330   -6.4630 c3        1 H13     -0.079400
     21 C27         0.4390    0.0590   -7.6120 c3        1 H13     -0.079400
     22 C28         1.1020   -0.2390   -8.9400 c3        1 H13     -0.079400
     23 C29         0.1360   -0.0470  -10.0900 c3        1 H13     -0.079400
     24 C30         0.7990   -0.3440  -11.4180 c3        1 H13     -0.079400
     25 C31        -0.1670   -0.1520  -12.5680 c3        1 H13     -0.079400
     26 C32         0.4940   -0.4490  -13.8970 c3        1 H13     -0.079400
     27 C33        -0.4630   -0.2580  -15.0450 c3        1 H13     -0.093100
     28 HN2         2.6700    1.4250    0.9710 hn        1 H13      0.472300
     29 H2          0.7370    0.8590    2.3570 hx        1 H13      0.133700
     30 H1          0.9170   -1.4400    3.5180 h1        1 H13      0.073200
     31 H1A         0.3890   -1.4990    1.7620 h1        1 H13      0.073200
     32 HO1         2.2310   -2.9390    2.5180 ho        1 H13      0.449000
     33 H3          3.4240   -0.1660    3.5530 hc        1 H13      0.093200
     34 H3A         1.9780    0.5250    4.4040 hc        1 H13      0.093200
     35 H4          4.1900    1.9250    2.8030 h1        1 H13      0.043700
     36 H6          5.5990    2.2010    4.6610 ha        1 H13      0.135500
     37 H7          6.0040    3.1400    6.9290 ha        1 H13      0.150500
     38 H8          4.1000    4.0360    8.2750 ha        1 H13      0.152000
     39 H9          1.7830    3.9840    7.3460 ha        1 H13      0.150500
     40 H10         1.3690    3.0330    5.0770 ha        1 H13      0.135500
     41 HO4         2.3370    3.6890    2.9350 ho        1 H13      0.452000
     42 H22         2.4120   -0.9730   -1.5270 hc        1 H13      0.099200
     43 H22A        2.8920    0.7790   -1.6530 hc        1 H13      0.099200
     44 H23         0.6510    1.3250   -2.6610 hc        1 H13      0.069700
     45 H23A        0.1550   -0.4060   -2.5200 hc        1 H13      0.069700
     46 H24         2.5950    0.6490   -4.1270 hc        1 H13      0.047700
     47 H24A        2.0910   -1.0820   -3.9910 hc        1 H13      0.047700
     48 H25         0.3580    1.2200   -5.1350 hc        1 H13      0.048200
     49 H25A       -0.1450   -0.5100   -4.9990 hc        1 H13      0.048200
     50 H26         2.2920    0.5400   -6.6010 hc        1 H13      0.042700
     51 H26A        1.7880   -1.1880   -6.4650 hc        1 H13      0.042700
     52 H27        -0.4480   -0.6150   -7.4760 hc        1 H13      0.042700
     53 H27A        0.0570    1.1130   -7.6110 hc        1 H13      0.042700
     54 H28         1.4840   -1.2940   -8.9430 hc        1 H13      0.040700
     55 H28A        1.9890    0.4350   -9.0780 hc        1 H13      0.040700
     56 H29        -0.7510   -0.7200   -9.9530 hc        1 H13      0.040700
     57 H29A       -0.2460    1.0080  -10.0880 hc        1 H13      0.040700
     58 H30         1.6860    0.3290  -11.5550 hc        1 H13      0.040200
     59 H30A        1.1810   -1.3990  -11.4210 hc        1 H13      0.040200
     60 H31        -0.5490    0.9030  -12.5660 hc        1 H13      0.040700
     61 H31A       -1.0540   -0.8250  -12.4310 hc        1 H13      0.040700
     62 H32         1.3820    0.2240  -14.0320 hc        1 H13      0.038700
     63 H32A        0.8770   -1.5030  -13.8970 hc        1 H13      0.038700
     64 H33        -1.3430   -0.9380  -14.9420 hc        1 H13      0.034700
     65 H33A       -0.8370    0.7940  -15.0770 hc        1 H13      0.034700
     66 H33B        0.0440   -0.4820  -16.0140 hc        1 H13      0.034700
     67 H221        3.0730   -0.2000    0.8510 hn        1 H13      0.472300
@<TRIPOS>BOND
     1    1    2 2   
     2    2    3 1   
     3    2   16 1   
     4    3    4 1   
     5    3   28 1   
     6    3   67 1   
     7    4    5 1   
     8    4    7 1   
     9    4   29 1   
    10    5    6 1   
    11    5   30 1   
    12    5   31 1   
    13    6   32 1   
    14    7    8 1   
    15    7   33 1   
    16    7   34 1   
    17    8    9 1   
    18    8   15 1   
    19    8   35 1   
    20    9   10 ar  
    21    9   14 ar  
    22   10   11 ar  
    23   10   36 1   
    24   11   12 ar  
    25   11   37 1   
    26   12   13 ar  
    27   12   38 1   
    28   13   14 ar  
    29   13   39 1   
    30   14   40 1   
    31   15   41 1   
    32   16   17 1   
    33   16   42 1   
    34   16   43 1   
    35   17   18 1   
    36   17   44 1   
    37   17   45 1   
    38   18   19 1   
    39   18   46 1   
    40   18   47 1   
    41   19   20 1   
    42   19   48 1   
    43   19   49 1   
    44   20   21 1   
    45   20   50 1   
    46   20   51 1   
    47   21   22 1   
    48   21   52 1   
    49   21   53 1   
    50   22   23 1   
    51   22   54 1   
    52   22   55 1   
    53   23   24 1   
    54   23   56 1   
    55   23   57 1   
    56   24   25 1   
    57   24   58 1   
    58   24   59 1   
    59   25   26 1   
    60   25   60 1   
    61   25   61 1   
    62   26   27 1   
    63   26   62 1   
    64   26   63 1   
    65   27   64 1   
    66   27   65 1   
    67   27   66 1   
@<TRIPOS>SUBSTRUCTURE
     1 H13         1 TEMP              0 ****  ****    0 ROOT
