@<TRIPOS>MOLECULE
H14
   23    21     1     0     0
SMALL
bcc


@<TRIPOS>ATOM
      1 N          -1.2040   -0.5970    2.3690 n3        1 H14     -0.319000
      2 CA         -0.0020   -0.8200    1.6410 c3        1 H14     -0.149000
      3 C           1.0960   -1.2330    2.5950 c2        1 H14      0.331000
      4 O           1.4700   -0.4460    3.5040 o         1 H14     -0.567000
      5 CB          0.4000    0.4520    0.9310 c3        1 H14      0.045000
      6 OB         -0.3410    1.5320    1.4480 oh        1 H14     -0.378000
      7 CG          0.1220    0.3120   -0.5490 c2        1 H14     -0.046000
      8 CD1         1.0420   -0.3220   -1.3690 c2        1 H14     -0.127000
      9 CD2        -1.0210    0.8750   -1.0950 c1        1 H14     -0.115000
     10 CE1         0.8190   -0.3930   -2.7360 c1        1 H14     -0.141000
     11 CE2        -1.2440    0.8040   -2.4610 c1        1 H14     -0.148000
     12 CZ         -0.3240    0.1700   -3.2810 c1        1 H14     -0.148000
     13 OXT         1.6510   -2.3560    2.4670 o         1 H14     -0.567000
     14 HN1        -1.1160    0.1590    2.8790 hn        1 H14      0.130500
     15 HN2        -1.9000   -0.4920    1.7840 hn        1 H14      0.130500
     16 HA         -0.1460   -1.5290    0.9830 h1        1 H14      0.098000
     17 HB          1.3540    0.6150    1.0700 h1        1 H14      0.091000
     18 HOB         0.2160    2.1650    1.7290 ho        1 H14      0.253000
     19 HD1         1.8470   -0.7180   -0.9850 ha        1 H14      0.139000
     20 HD2        -1.6690    1.3220   -0.5180 ha        1 H14      0.148000
     21 HE1         1.4770   -0.8220   -3.3160 ha        1 H14      0.115000
     22 HE2        -2.0480    1.2010   -2.8460 ha        1 H14      0.112500
     23 HZ         -0.4810    0.1200   -4.2440 ha        1 H14      0.112500
@<TRIPOS>BOND
     1    1    2 1   
     2    1   14 1   
     3    1   15 1   
     4    2    3 1   
     5    2    5 1   
     6    2   16 1   
     7    3    4 1   
     8    3   13 1   
     9    5    6 1   
    10    5    7 1   
    11    5   17 1   
    12    6   18 1   
    13    7    8 1   
    14    7    9 1   
    15    8   10 1   
    16    8   19 1   
    17    9   20 1   
    18   10   21 1   
    19   11   12 1   
    20   11   22 1   
    21   12   23 1   
@<TRIPOS>SUBSTRUCTURE
     1 H14         1 TEMP              0 ****  ****    0 ROOT
