@<TRIPOS>MOLECULE
H14
   23    23     1     0     0
SMALL
bcc


@<TRIPOS>ATOM
      1 N          -1.0780    1.0080   -1.5130 n3        1 H14     -0.884800
      2 CA         -1.1850   -0.1480   -0.6370 c3        1 H14     -0.006500
      3 C          -2.6470   -0.4250   -0.1540 c         1 H14      0.880600
      4 O          -3.2410    0.5250    0.4370 o         1 H14     -0.834800
      5 CB         -0.3090   -0.0240    0.6330 c3        1 H14      0.200400
      6 OB         -0.6050    1.1550    1.3710 oh        1 H14     -0.647800
      7 CG          1.1560   -0.0360    0.3100 ca        1 H14     -0.039300
      8 CD1         1.7460   -1.2310   -0.1260 ca        1 H14     -0.116500
      9 CD2         1.9490    1.1100    0.4380 ca        1 H14     -0.116500
     10 CE1         3.1050   -1.2760   -0.4250 ca        1 H14     -0.143500
     11 CE2         3.3100    1.0600    0.1400 ca        1 H14     -0.143500
     12 CZ          3.8910   -0.1310   -0.2920 ca        1 H14     -0.155000
     13 OXT        -3.1400   -1.5600   -0.3770 o         1 H14     -0.834800
     14 HN1        -1.8630    0.9940   -2.1400 hn        1 H14      0.334300
     15 HN2        -1.1630    1.8400   -0.9550 hn        1 H14      0.334300
     16 HA         -0.8280   -1.0440   -1.2190 h1        1 H14      0.058700
     17 HB         -0.5420   -0.9160    1.2860 h1        1 H14      0.044700
     18 HOB        -1.5750    1.2460    1.3690 ho        1 H14      0.454000
     19 HD1         1.1230   -2.1310   -0.2370 ha        1 H14      0.142500
     20 HD2         1.4810    2.0470    0.7760 ha        1 H14      0.142500
     21 HE1         3.5580   -2.2160   -0.7700 ha        1 H14      0.112500
     22 HE2         3.9250    1.9650    0.2410 ha        1 H14      0.112500
     23 HZ          4.9630   -0.1690   -0.5290 ha        1 H14      0.109000
@<TRIPOS>BOND
     1    1    2 1   
     2    1   14 1   
     3    1   15 1   
     4    2    3 1   
     5    2    5 1   
     6    2   16 1   
     7    3    4 1   
     8    3   13 1   
     9    5    6 1   
    10    5    7 1   
    11    5   17 1   
    12    6   18 1   
    13    7    8 ar  
    14    7    9 ar  
    15    8   10 ar  
    16    8   19 1   
    17    9   11 ar  
    18    9   20 1   
    19   10   12 ar  
    20   10   21 1   
    21   11   12 ar  
    22   11   22 1   
    23   12   23 1   
@<TRIPOS>SUBSTRUCTURE
     1 H14         1 TEMP              0 ****  ****    0 ROOT
