@<TRIPOS>MOLECULE
H15
   72    69     1     0     0
SMALL
bcc


@<TRIPOS>ATOM
      1 O21        -1.1350    1.0990    4.1400 o         1 H15     -0.368000
      2 C21         0.0420    0.8290    4.0570 c1        1 H15      0.305000
      3 N2          0.7480    0.2450    5.2140 n2        1 H15     -0.384000
      4 C2          0.0120   -0.4390    6.2200 c3        1 H15     -0.018000
      5 C1         -0.4620   -1.7670    5.6810 c3        1 H15     -0.032000
      6 O1         -1.7870   -2.0590    6.2060 oh        1 H15     -0.329000
      7 C3          0.8860   -0.6710    7.4220 c3        1 H15     -0.212000
      8 C4          0.1950   -0.1950    8.6310 c3        1 H15      0.070000
      9 C5          1.0140   -0.6160    9.8860 c2        1 H15     -0.084000
     10 C6          1.8960    0.2910   10.4800 c1        1 H15     -0.128000
     11 C7          2.6160   -0.0800   11.6090 c1        1 H15     -0.129500
     12 C8          2.4580   -1.3480   12.1460 c1        1 H15     -0.129500
     13 C9          1.5800   -2.2510   11.5570 c1        1 H15     -0.134000
     14 C10         0.8570   -1.8810   10.4240 c2        1 H15     -0.101000
     15 O4         -1.0840   -0.7610    8.6890 oh        1 H15     -0.338000
     16 C22         0.7980    1.0590    2.7310 c3        1 H15     -0.183000
     17 C23        -0.1790    1.1260    1.5920 c3        1 H15     -0.155000
     18 C24         0.5630    1.0390    0.2950 c3        1 H15     -0.159000
     19 C25        -0.4480    0.9620   -0.8700 c3        1 H15     -0.158000
     20 C26         0.3470    0.8830   -2.2690 c3        1 H15     -0.158000
     21 C27        -0.6790    0.7160   -3.4410 c3        1 H15     -0.158000
     22 C28         0.0940    0.5570   -4.7850 c3        1 H15     -0.158000
     23 C29        -0.9060    0.4330   -5.9450 c3        1 H15     -0.158000
     24 C30        -0.1180    0.3650   -7.3160 c3        1 H15     -0.158000
     25 C31        -1.1310    0.2620   -8.4890 c3        1 H15     -0.158000
     26 C32        -0.3580    0.2790   -9.8380 c3        1 H15     -0.158000
     27 C33        -1.3530    0.1080  -11.0190 c3        1 H15     -0.158000
     28 C34        -0.5710   -0.0250  -12.3480 c3        1 H15     -0.159000
     29 C35        -1.5490   -0.1910  -13.4880 c3        1 H15     -0.210000
     30 HN2         1.6490    0.3660    5.3070 hn        1 H15      0.222000
     31 H2         -0.7900    0.1210    6.4890 h1        1 H15      0.135000
     32 H1         -0.4980   -1.7280    4.7120 h1        1 H15      0.088500
     33 H1A         0.1490   -2.4580    5.9510 h1        1 H15      0.088500
     34 HO1        -2.1180   -2.7590    5.7900 ho        1 H15      0.216000
     35 H3          1.0690   -1.6260    7.5100 hc        1 H15      0.098000
     36 H3A         1.7440   -0.1790    7.3120 hc        1 H15      0.098000
     37 H4          0.1180    0.7900    8.6010 h1        1 H15      0.097000
     38 H6          2.0060    1.1760   10.1050 ha        1 H15      0.131000
     39 H7          3.2380    0.5580   12.0280 ha        1 H15      0.131000
     40 H8          2.9390   -1.5950   12.9040 ha        1 H15      0.131000
     41 H9          1.4680   -3.1790   11.9510 ha        1 H15      0.132000
     42 H10         0.2610   -2.4920   10.0240 ha        1 H15      0.151000
     43 HO4        -1.6760   -0.1370    8.9110 ho        1 H15      0.219000
     44 H22         1.4090    0.3340    2.5840 hc        1 H15      0.111500
     45 H22A        1.2830    1.8790    2.7810 hc        1 H15      0.111500
     46 H23        -0.7910    0.4030    1.6530 hc        1 H15      0.086500
     47 H23A       -0.6690    1.9770    1.6330 hc        1 H15      0.086500
     48 H24         1.1280    1.8370    0.1870 hc        1 H15      0.082500
     49 H24A        1.1150    0.2550    0.2930 hc        1 H15      0.082500
     50 H25        -0.9960    1.7350   -0.8630 hc        1 H15      0.080500
     51 H25A       -1.0220    0.1480   -0.7630 hc        1 H15      0.080500
     52 H26         0.8890    1.7570   -2.4080 hc        1 H15      0.080000
     53 H26A        0.9600    0.1150   -2.2570 hc        1 H15      0.080000
     54 H27        -1.2130   -0.0490   -3.2880 hc        1 H15      0.079500
     55 H27A       -1.2520    1.5080   -3.4890 hc        1 H15      0.079500
     56 H28         0.6760    1.3590   -4.9320 hc        1 H15      0.079500
     57 H28A        0.6360   -0.2270   -4.7480 hc        1 H15      0.079500
     58 H29        -1.5070    1.2260   -5.9490 hc        1 H15      0.079000
     59 H29A       -1.4550   -0.4040   -5.8260 hc        1 H15      0.079000
     60 H30         0.4890   -0.4470   -7.3190 hc        1 H15      0.079000
     61 H30A        0.4370    1.1970   -7.4230 hc        1 H15      0.079000
     62 H31        -1.6350   -0.5650   -8.4130 hc        1 H15      0.079000
     63 H31A       -1.7270    1.0000   -8.4560 hc        1 H15      0.079000
     64 H32         0.0930    1.1060   -9.9270 hc        1 H15      0.079000
     65 H32A        0.3280   -0.4910   -9.8490 hc        1 H15      0.079000
     66 H33        -1.9200    0.8650  -11.0620 hc        1 H15      0.079000
     67 H33A       -1.8780   -0.6770  -10.8840 hc        1 H15      0.079000
     68 H34        -0.0240    0.7990  -12.4960 hc        1 H15      0.078000
     69 H34A        0.0250   -0.8170  -12.3060 hc        1 H15      0.078000
     70 H35        -2.2210    0.5760  -13.4650 hc        1 H15      0.072000
     71 H35A       -2.0240   -1.0470  -13.3950 hc        1 H15      0.072000
     72 H35B       -1.0400   -0.1780  -14.3850 hc        1 H15      0.072000
@<TRIPOS>BOND
     1    1    2 1   
     2    2   16 1   
     3    3    4 1   
     4    3   30 1   
     5    4    5 1   
     6    4    7 1   
     7    4   31 1   
     8    5    6 1   
     9    5   32 1   
    10    5   33 1   
    11    6   34 1   
    12    7    8 1   
    13    7   35 1   
    14    7   36 1   
    15    8    9 1   
    16    8   15 1   
    17    8   37 1   
    18    9   10 1   
    19    9   14 1   
    20   10   38 1   
    21   11   12 1   
    22   11   39 1   
    23   12   40 1   
    24   13   14 1   
    25   13   41 1   
    26   14   42 1   
    27   15   43 1   
    28   16   17 1   
    29   16   44 1   
    30   16   45 1   
    31   17   18 1   
    32   17   46 1   
    33   17   47 1   
    34   18   19 1   
    35   18   48 1   
    36   18   49 1   
    37   19   20 1   
    38   19   50 1   
    39   19   51 1   
    40   20   21 1   
    41   20   52 1   
    42   20   53 1   
    43   21   22 1   
    44   21   54 1   
    45   21   55 1   
    46   22   23 1   
    47   22   56 1   
    48   22   57 1   
    49   23   24 1   
    50   23   58 1   
    51   23   59 1   
    52   24   25 1   
    53   24   60 1   
    54   24   61 1   
    55   25   26 1   
    56   25   62 1   
    57   25   63 1   
    58   26   27 1   
    59   26   64 1   
    60   26   65 1   
    61   27   28 1   
    62   27   66 1   
    63   27   67 1   
    64   28   29 1   
    65   28   68 1   
    66   28   69 1   
    67   29   70 1   
    68   29   71 1   
    69   29   72 1   
@<TRIPOS>SUBSTRUCTURE
     1 H15         1 TEMP              0 ****  ****    0 ROOT
