@<TRIPOS>MOLECULE
H15
   73    73     1     0     0
SMALL
bcc


@<TRIPOS>ATOM
      1 O21         0.1680    0.3640    0.0450 o         1 H15     -0.412100
      2 C21         1.3640    0.2970   -0.1880 c         1 H15      0.551100
      3 N2          2.3060    0.4440    0.9890 n4        1 H15     -0.676800
      4 C2          1.6720    0.1740    2.3260 c3        1 H15      0.137500
      5 C1          1.2770   -1.3110    2.4660 c3        1 H15      0.107400
      6 O1          2.4110   -2.0900    2.1260 oh        1 H15     -0.635800
      7 C3          2.5910    0.5670    3.4850 c3        1 H15     -0.117400
      8 C4          3.1790    1.9800    3.3930 c3        1 H15      0.191400
      9 C5          3.4070    2.5490    4.7580 ca        1 H15     -0.163300
     10 C6          4.7020    2.6060    5.2850 ca        1 H15     -0.114000
     11 C7          4.9130    3.1350    6.5580 ca        1 H15     -0.118500
     12 C8          3.8370    3.6120    7.3060 ca        1 H15     -0.099000
     13 C9          2.5440    3.5590    6.7810 ca        1 H15     -0.118500
     14 C10         2.3280    3.0280    5.5110 ca        1 H15     -0.114000
     15 O4          2.2960    2.7700    2.5990 oh        1 H15     -0.659800
     16 C22         2.0450    0.0810   -1.5090 c3        1 H15     -0.155400
     17 C23         1.0640    0.2610   -2.6530 c3        1 H15     -0.082400
     18 C24         1.7480   -0.0070   -3.9770 c3        1 H15     -0.080400
     19 C25         0.7800    0.1760   -5.1280 c3        1 H15     -0.079400
     20 C26         1.4570   -0.0900   -6.4550 c3        1 H15     -0.079400
     21 C27         0.4910    0.0930   -7.6060 c3        1 H15     -0.079400
     22 C28         1.1680   -0.1710   -8.9350 c3        1 H15     -0.079400
     23 C29         0.2030    0.0120  -10.0870 c3        1 H15     -0.079400
     24 C30         0.8790   -0.2500  -11.4150 c3        1 H15     -0.079400
     25 C31        -0.0850   -0.0680  -12.5680 c3        1 H15     -0.079400
     26 C32         0.5910   -0.3290  -13.8960 c3        1 H15     -0.079400
     27 C33        -0.3730   -0.1470  -15.0490 c3        1 H15     -0.079400
     28 C34         0.3020   -0.4080  -16.3780 c3        1 H15     -0.079400
     29 C35        -0.6550   -0.2280  -17.5280 c3        1 H15     -0.093100
     30 HN2         2.6610    1.4130    0.9930 hn        1 H15      0.471800
     31 H2          0.7320    0.8060    2.3680 hx        1 H15      0.132700
     32 H1          0.9520   -1.4930    3.5250 h1        1 H15      0.073200
     33 H1A         0.4320   -1.5560    1.7660 h1        1 H15      0.073200
     34 HO1         2.2980   -2.9630    2.5240 ho        1 H15      0.449000
     35 H3          1.9700    0.4900    4.4190 hc        1 H15      0.093200
     36 H3A         3.4330   -0.1700    3.5730 hc        1 H15      0.093200
     37 H4          4.1620    1.9380    2.8330 h1        1 H15      0.043700
     38 H6          5.5560    2.2360    4.6980 ha        1 H15      0.135500
     39 H7          5.9330    3.1770    6.9700 ha        1 H15      0.150500
     40 H8          4.0060    4.0310    8.3100 ha        1 H15      0.152000
     41 H9          1.6940    3.9370    7.3700 ha        1 H15      0.150500
     42 H10         1.3100    2.9840    5.0970 ha        1 H15      0.135500
     43 HO4         2.2730    3.6650    2.9610 ho        1 H15      0.452000
     44 H22         2.9030    0.7970   -1.6290 hc        1 H15      0.099200
     45 H22A        2.4600   -0.9660   -1.5230 hc        1 H15      0.099200
     46 H23         0.1960   -0.4390   -2.5210 hc        1 H15      0.069700
     47 H23A        0.6540    1.3060   -2.6390 hc        1 H15      0.069700
     48 H24         2.6180    0.6900   -4.1040 hc        1 H15      0.047700
     49 H24A        2.1530   -1.0540   -3.9910 hc        1 H15      0.047700
     50 H25        -0.0910   -0.5210   -5.0030 hc        1 H15      0.048200
     51 H25A        0.3720    1.2210   -5.1150 hc        1 H15      0.048200
     52 H26         1.8640   -1.1360   -6.4680 hc        1 H15      0.042700
     53 H26A        2.3280    0.6060   -6.5810 hc        1 H15      0.042700
     54 H27        -0.3790   -0.6050   -7.4830 hc        1 H15      0.042700
     55 H27A        0.0830    1.1380   -7.5930 hc        1 H15      0.042700
     56 H28         1.5760   -1.2160   -8.9490 hc        1 H15      0.040700
     57 H28A        2.0380    0.5260   -9.0590 hc        1 H15      0.040700
     58 H29        -0.6670   -0.6860   -9.9640 hc        1 H15      0.041200
     59 H29A       -0.2060    1.0570  -10.0730 hc        1 H15      0.041200
     60 H30         1.7490    0.4480  -11.5390 hc        1 H15      0.040700
     61 H30A        1.2890   -1.2950  -11.4300 hc        1 H15      0.040700
     62 H31        -0.4950    0.9770  -12.5530 hc        1 H15      0.040700
     63 H31A       -0.9550   -0.7660  -12.4440 hc        1 H15      0.040700
     64 H32         1.4610    0.3690  -14.0200 hc        1 H15      0.039700
     65 H32A        1.0020   -1.3730  -13.9110 hc        1 H15      0.039700
     66 H33        -1.2420   -0.8460  -14.9260 hc        1 H15      0.039700
     67 H33A       -0.7840    0.8970  -15.0340 hc        1 H15      0.039700
     68 H34         0.7140   -1.4520  -16.3900 hc        1 H15      0.038700
     69 H34A        1.1720    0.2910  -16.4990 hc        1 H15      0.038700
     70 H35        -1.5160   -0.9330  -17.4390 hc        1 H15      0.034367
     71 H35A       -1.0560    0.8140  -17.5480 hc        1 H15      0.034367
     72 H35B       -0.1370   -0.4240  -18.4980 hc        1 H15      0.034367
     73 H221        3.0930   -0.2040    0.8690 hn        1 H15      0.471800
@<TRIPOS>BOND
     1    1    2 2   
     2    2    3 1   
     3    2   16 1   
     4    3    4 1   
     5    3   30 1   
     6    3   73 1   
     7    4    5 1   
     8    4    7 1   
     9    4   31 1   
    10    5    6 1   
    11    5   32 1   
    12    5   33 1   
    13    6   34 1   
    14    7    8 1   
    15    7   35 1   
    16    7   36 1   
    17    8    9 1   
    18    8   15 1   
    19    8   37 1   
    20    9   10 ar  
    21    9   14 ar  
    22   10   11 ar  
    23   10   38 1   
    24   11   12 ar  
    25   11   39 1   
    26   12   13 ar  
    27   12   40 1   
    28   13   14 ar  
    29   13   41 1   
    30   14   42 1   
    31   15   43 1   
    32   16   17 1   
    33   16   44 1   
    34   16   45 1   
    35   17   18 1   
    36   17   46 1   
    37   17   47 1   
    38   18   19 1   
    39   18   48 1   
    40   18   49 1   
    41   19   20 1   
    42   19   50 1   
    43   19   51 1   
    44   20   21 1   
    45   20   52 1   
    46   20   53 1   
    47   21   22 1   
    48   21   54 1   
    49   21   55 1   
    50   22   23 1   
    51   22   56 1   
    52   22   57 1   
    53   23   24 1   
    54   23   58 1   
    55   23   59 1   
    56   24   25 1   
    57   24   60 1   
    58   24   61 1   
    59   25   26 1   
    60   25   62 1   
    61   25   63 1   
    62   26   27 1   
    63   26   64 1   
    64   26   65 1   
    65   27   28 1   
    66   27   66 1   
    67   27   67 1   
    68   28   29 1   
    69   28   68 1   
    70   28   69 1   
    71   29   70 1   
    72   29   71 1   
    73   29   72 1   
@<TRIPOS>SUBSTRUCTURE
     1 H15         1 TEMP              0 ****  ****    0 ROOT
