@<TRIPOS>MOLECULE
H15
   73    73     1     0     0
SMALL
bcc


@<TRIPOS>ATOM
      1 O21         0.1640    0.4420    0.0360 o         1 H15     -0.412100
      2 C21         1.3580    0.3440   -0.1940 c         1 H15      0.551100
      3 N2          2.3010    0.4690    0.9860 n4        1 H15     -0.676800
      4 C2          1.6610    0.1990    2.3200 c3        1 H15      0.137500
      5 C1          1.2390   -1.2800    2.4470 c3        1 H15      0.107400
      6 O1          2.3590   -2.0760    2.1010 oh        1 H15     -0.635800
      7 C3          2.5850    0.5650    3.4830 c3        1 H15     -0.117400
      8 C4          3.1980    1.9680    3.4030 c3        1 H15      0.191400
      9 C5          3.4350    2.5220    4.7740 ca        1 H15     -0.163300
     10 C6          4.7300    2.5500    5.3010 ca        1 H15     -0.114000
     11 C7          4.9500    3.0650    6.5790 ca        1 H15     -0.118500
     12 C8          3.8810    3.5550    7.3310 ca        1 H15     -0.099000
     13 C9          2.5890    3.5300    6.8040 ca        1 H15     -0.118500
     14 C10         2.3640    3.0130    5.5300 ca        1 H15     -0.114000
     15 O4          2.3300    2.7800    2.6150 oh        1 H15     -0.659800
     16 C22         2.0370    0.1090   -1.5120 c3        1 H15     -0.155400
     17 C23         1.0610    0.3030   -2.6590 c3        1 H15     -0.082400
     18 C24         1.7420    0.0140   -3.9810 c3        1 H15     -0.080400
     19 C25         0.7780    0.2100   -5.1330 c3        1 H15     -0.079400
     20 C26         1.4510   -0.0780   -6.4580 c3        1 H15     -0.079400
     21 C27         0.4900    0.1170   -7.6120 c3        1 H15     -0.079400
     22 C28         1.1610   -0.1700   -8.9380 c3        1 H15     -0.079400
     23 C29         0.2010    0.0250  -10.0910 c3        1 H15     -0.079400
     24 C30         0.8720   -0.2620  -11.4180 c3        1 H15     -0.079400
     25 C31        -0.0880   -0.0670  -12.5710 c3        1 H15     -0.079400
     26 C32         0.5820   -0.3540  -13.8980 c3        1 H15     -0.079400
     27 C33        -0.3780   -0.1590  -15.0520 c3        1 H15     -0.079400
     28 C34         0.2920   -0.4460  -16.3790 c3        1 H15     -0.079400
     29 C35        -0.6600   -0.2530  -17.5310 c3        1 H15     -0.093100
     30 HN2         3.0780   -0.1900    0.8620 hn        1 H15      0.472300
     31 H2          0.7320    0.8470    2.3660 hx        1 H15      0.133700
     32 H1          0.3910   -1.5040    1.7430 h1        1 H15      0.073200
     33 H1A         0.9090   -1.4650    3.5030 h1        1 H15      0.073200
     34 HO1         2.2310   -2.9500    2.4940 ho        1 H15      0.449000
     35 H3          1.9610    0.4920    4.4160 hc        1 H15      0.093200
     36 H3A         3.4130   -0.1870    3.5660 hc        1 H15      0.093200
     37 H4          4.1800    1.9140    2.8440 h1        1 H15      0.043700
     38 H6          5.5780    2.1710    4.7120 ha        1 H15      0.135500
     39 H7          5.9700    3.0860    6.9930 ha        1 H15      0.150500
     40 H8          4.0580    3.9630    8.3380 ha        1 H15      0.152000
     41 H9          1.7450    3.9180    7.3960 ha        1 H15      0.150500
     42 H10         1.3450    2.9910    5.1140 ha        1 H15      0.135500
     43 HO4         2.3230    3.6730    2.9850 ho        1 H15      0.452000
     44 H22         2.9090    0.8070   -1.6330 hc        1 H15      0.099200
     45 H22A        2.4320   -0.9460   -1.5220 hc        1 H15      0.099200
     46 H23         0.6720    1.3550   -2.6510 hc        1 H15      0.070200
     47 H23A        0.1800   -0.3790   -2.5240 hc        1 H15      0.070200
     48 H24         2.6250    0.6940   -4.1100 hc        1 H15      0.047700
     49 H24A        2.1260   -1.0400   -3.9880 hc        1 H15      0.047700
     50 H25        -0.1060   -0.4680   -5.0050 hc        1 H15      0.048200
     51 H25A        0.3930    1.2640   -5.1280 hc        1 H15      0.048200
     52 H26         1.8370   -1.1320   -6.4650 hc        1 H15      0.042700
     53 H26A        2.3360    0.6000   -6.5870 hc        1 H15      0.042700
     54 H27         0.1040    1.1710   -7.6060 hc        1 H15      0.042700
     55 H27A       -0.3950   -0.5600   -7.4830 hc        1 H15      0.042700
     56 H28         2.0460    0.5070   -9.0660 hc        1 H15      0.040700
     57 H28A        1.5480   -1.2240   -8.9440 hc        1 H15      0.040700
     58 H29        -0.1850    1.0780  -10.0860 hc        1 H15      0.040700
     59 H29A       -0.6840   -0.6520   -9.9630 hc        1 H15      0.040700
     60 H30         1.7570    0.4150  -11.5460 hc        1 H15      0.040700
     61 H30A        1.2580   -1.3150  -11.4240 hc        1 H15      0.040700
     62 H31        -0.4750    0.9860  -12.5660 hc        1 H15      0.040700
     63 H31A       -0.9730   -0.7450  -12.4430 hc        1 H15      0.040700
     64 H32         0.9690   -1.4070  -13.9040 hc        1 H15      0.039700
     65 H32A        1.4670    0.3230  -14.0260 hc        1 H15      0.039700
     66 H33        -0.7640    0.8940  -15.0460 hc        1 H15      0.039700
     67 H33A       -1.2620   -0.8370  -14.9240 hc        1 H15      0.039700
     68 H34         1.1780    0.2320  -16.5050 hc        1 H15      0.038700
     69 H34A        0.6790   -1.4990  -16.3830 hc        1 H15      0.038700
     70 H35        -1.0380    0.7970  -17.5590 hc        1 H15      0.034367
     71 H35A       -0.1470   -0.4690  -18.4990 hc        1 H15      0.034367
     72 H35B       -1.5380   -0.9380  -17.4370 hc        1 H15      0.034367
     73 H221        2.6700    1.4320    0.9980 hn        1 H15      0.472300
@<TRIPOS>BOND
     1    1    2 2   
     2    2    3 1   
     3    2   16 1   
     4    3    4 1   
     5    3   30 1   
     6    3   73 1   
     7    4    5 1   
     8    4    7 1   
     9    4   31 1   
    10    5    6 1   
    11    5   32 1   
    12    5   33 1   
    13    6   34 1   
    14    7    8 1   
    15    7   35 1   
    16    7   36 1   
    17    8    9 1   
    18    8   15 1   
    19    8   37 1   
    20    9   10 ar  
    21    9   14 ar  
    22   10   11 ar  
    23   10   38 1   
    24   11   12 ar  
    25   11   39 1   
    26   12   13 ar  
    27   12   40 1   
    28   13   14 ar  
    29   13   41 1   
    30   14   42 1   
    31   15   43 1   
    32   16   17 1   
    33   16   44 1   
    34   16   45 1   
    35   17   18 1   
    36   17   46 1   
    37   17   47 1   
    38   18   19 1   
    39   18   48 1   
    40   18   49 1   
    41   19   20 1   
    42   19   50 1   
    43   19   51 1   
    44   20   21 1   
    45   20   52 1   
    46   20   53 1   
    47   21   22 1   
    48   21   54 1   
    49   21   55 1   
    50   22   23 1   
    51   22   56 1   
    52   22   57 1   
    53   23   24 1   
    54   23   58 1   
    55   23   59 1   
    56   24   25 1   
    57   24   60 1   
    58   24   61 1   
    59   25   26 1   
    60   25   62 1   
    61   25   63 1   
    62   26   27 1   
    63   26   64 1   
    64   26   65 1   
    65   27   28 1   
    66   27   66 1   
    67   27   67 1   
    68   28   29 1   
    69   28   68 1   
    70   28   69 1   
    71   29   70 1   
    72   29   71 1   
    73   29   72 1   
@<TRIPOS>SUBSTRUCTURE
     1 H15         1 TEMP              0 ****  ****    0 ROOT
