@<TRIPOS>MOLECULE
H15
   72    72     1     0     0
SMALL
bcc


@<TRIPOS>ATOM
      1 O21         2.5680   -1.7580    1.4280 o         1 H15     -0.603100
      2 C21         2.6800   -1.1920    0.3230 c         1 H15      0.649100
      3 N2          3.9240   -0.9930   -0.2620 n         1 H15     -0.552900
      4 C2          5.1120   -1.6150    0.2760 c3        1 H15      0.096700
      5 C1          5.3020   -3.0730   -0.2040 c3        1 H15      0.098400
      6 O1          5.4590   -3.0530   -1.6130 oh        1 H15     -0.610800
      7 C3          6.3820   -0.8180   -0.0550 c3        1 H15     -0.107400
      8 C4          6.4760    0.4680    0.7650 c3        1 H15      0.182400
      9 C5          7.5820    1.3400    0.2420 ca        1 H15     -0.116300
     10 C6          7.2820    2.5920   -0.3050 ca        1 H15     -0.119000
     11 C7          8.3030    3.4060   -0.7960 ca        1 H15     -0.128000
     12 C8          9.6290    2.9780   -0.7400 ca        1 H15     -0.125000
     13 C9          9.9330    1.7320   -0.1930 ca        1 H15     -0.128000
     14 C10         8.9150    0.9160    0.2960 ca        1 H15     -0.119000
     15 O4          6.6410    0.1750    2.1450 oh        1 H15     -0.586800
     16 C22         1.4850   -0.6280   -0.4240 c3        1 H15     -0.150400
     17 C23         0.1950   -0.9260    0.3090 c3        1 H15     -0.074400
     18 C24        -0.9930   -0.3490   -0.4290 c3        1 H15     -0.079400
     19 C25        -2.2850   -0.6480    0.3010 c3        1 H15     -0.078400
     20 C26        -3.4770   -0.0720   -0.4330 c3        1 H15     -0.079400
     21 C27        -4.7680   -0.3710    0.2970 c3        1 H15     -0.079400
     22 C28        -5.9600    0.2050   -0.4370 c3        1 H15     -0.078400
     23 C29        -7.2520   -0.0940    0.2930 c3        1 H15     -0.079400
     24 C30        -8.4440    0.4820   -0.4410 c3        1 H15     -0.078400
     25 C31        -9.7360    0.1830    0.2900 c3        1 H15     -0.079400
     26 C32       -10.9280    0.7580   -0.4440 c3        1 H15     -0.079400
     27 C33       -12.2200    0.4600    0.2860 c3        1 H15     -0.079400
     28 C34       -13.4130    1.0350   -0.4470 c3        1 H15     -0.080400
     29 C35       -14.7010    0.7400    0.2770 c3        1 H15     -0.092100
     30 HN2         3.9530   -0.7880   -1.2340 hn        1 H15      0.305500
     31 H2          4.9970   -1.6530    1.4040 h1        1 H15      0.104700
     32 H1          6.2170   -3.5070    0.2790 h1        1 H15      0.035200
     33 H1A         4.4080   -3.6910    0.0790 h1        1 H15      0.035200
     34 HO1         5.5310   -3.9720   -1.8960 ho        1 H15      0.403000
     35 H3          7.2690   -1.4650    0.1740 hc        1 H15      0.058700
     36 H3A         6.4180   -0.5750   -1.1480 hc        1 H15      0.058700
     37 H4          5.4930    1.0230    0.7350 h1        1 H15      0.091700
     38 H6          6.2390    2.9380   -0.3450 ha        1 H15      0.129500
     39 H7          8.0600    4.3890   -1.2250 ha        1 H15      0.132500
     40 H8         10.4330    3.6220   -1.1250 ha        1 H15      0.133000
     41 H9         10.9780    1.3920   -0.1460 ha        1 H15      0.132500
     42 H10         9.1590   -0.0690    0.7220 ha        1 H15      0.129500
     43 HO4         7.5140   -0.2200    2.2580 ho        1 H15      0.395000
     44 H22         1.6140    0.4820   -0.5310 hc        1 H15      0.062200
     45 H22A        1.4480   -1.0690   -1.4550 hc        1 H15      0.062200
     46 H23         0.0770   -2.0370    0.4210 hc        1 H15      0.059200
     47 H23A        0.2490   -0.5010    1.3470 hc        1 H15      0.059200
     48 H24        -0.8700    0.7610   -0.5350 hc        1 H15      0.037200
     49 H24A       -1.0400   -0.7770   -1.4650 hc        1 H15      0.037200
     50 H25        -2.4090   -1.7580    0.4070 hc        1 H15      0.043200
     51 H25A       -2.2380   -0.2200    1.3370 hc        1 H15      0.043200
     52 H26        -3.3530    1.0380   -0.5390 hc        1 H15      0.038700
     53 H26A       -3.5230   -0.5000   -1.4700 hc        1 H15      0.038700
     54 H27        -4.8920   -1.4810    0.4030 hc        1 H15      0.040700
     55 H27A       -4.7220    0.0570    1.3330 hc        1 H15      0.040700
     56 H28        -5.8370    1.3150   -0.5430 hc        1 H15      0.039200
     57 H28A       -6.0070   -0.2230   -1.4730 hc        1 H15      0.039200
     58 H29        -7.3760   -1.2040    0.3990 hc        1 H15      0.039700
     59 H29A       -7.2060    0.3340    1.3290 hc        1 H15      0.039700
     60 H30        -8.3200    1.5920   -0.5470 hc        1 H15      0.039200
     61 H30A       -8.4910    0.0540   -1.4770 hc        1 H15      0.039200
     62 H31        -9.8600   -0.9270    0.3960 hc        1 H15      0.039700
     63 H31A       -9.6900    0.6110    1.3260 hc        1 H15      0.039700
     64 H32       -10.8040    1.8690   -0.5500 hc        1 H15      0.039200
     65 H32A      -10.9740    0.3310   -1.4800 hc        1 H15      0.039200
     66 H33       -12.3440   -0.6500    0.3930 hc        1 H15      0.039700
     67 H33A      -12.1740    0.8880    1.3220 hc        1 H15      0.039700
     68 H34       -13.2860    2.1450   -0.5530 hc        1 H15      0.038200
     69 H34A      -13.4570    0.6070   -1.4830 hc        1 H15      0.038200
     70 H35       -14.6870    1.1800    1.3040 hc        1 H15      0.032700
     71 H35A      -15.5670    1.1730   -0.2800 hc        1 H15      0.032700
     72 H35B      -14.8570   -0.3620    0.3710 hc        1 H15      0.032700
@<TRIPOS>BOND
     1    1    2 2   
     2    2    3 1   
     3    2   16 1   
     4    3    4 1   
     5    3   30 1   
     6    4    5 1   
     7    4    7 1   
     8    4   31 1   
     9    5    6 1   
    10    5   32 1   
    11    5   33 1   
    12    6   34 1   
    13    7    8 1   
    14    7   35 1   
    15    7   36 1   
    16    8    9 1   
    17    8   15 1   
    18    8   37 1   
    19    9   10 ar  
    20    9   14 ar  
    21   10   11 ar  
    22   10   38 1   
    23   11   12 ar  
    24   11   39 1   
    25   12   13 ar  
    26   12   40 1   
    27   13   14 ar  
    28   13   41 1   
    29   14   42 1   
    30   15   43 1   
    31   16   17 1   
    32   16   44 1   
    33   16   45 1   
    34   17   18 1   
    35   17   46 1   
    36   17   47 1   
    37   18   19 1   
    38   18   48 1   
    39   18   49 1   
    40   19   20 1   
    41   19   50 1   
    42   19   51 1   
    43   20   21 1   
    44   20   52 1   
    45   20   53 1   
    46   21   22 1   
    47   21   54 1   
    48   21   55 1   
    49   22   23 1   
    50   22   56 1   
    51   22   57 1   
    52   23   24 1   
    53   23   58 1   
    54   23   59 1   
    55   24   25 1   
    56   24   60 1   
    57   24   61 1   
    58   25   26 1   
    59   25   62 1   
    60   25   63 1   
    61   26   27 1   
    62   26   64 1   
    63   26   65 1   
    64   27   28 1   
    65   27   66 1   
    66   27   67 1   
    67   28   29 1   
    68   28   68 1   
    69   28   69 1   
    70   29   70 1   
    71   29   71 1   
    72   29   72 1   
@<TRIPOS>SUBSTRUCTURE
     1 H15         1 TEMP              0 ****  ****    0 ROOT
