@<TRIPOS>MOLECULE
H15
   73    73     1     0     0
SMALL
bcc


@<TRIPOS>ATOM
      1 O21         0.1590    0.4400    0.0390 o         1 H15     -0.412100
      2 C21         1.3530    0.3350   -0.1900 c         1 H15      0.551100
      3 N2          2.2960    0.4580    0.9890 ny        1 H15     -0.676800
      4 C2          1.6530    0.2070    2.3250 c3        1 H15      0.137500
      5 C1          1.2160   -1.2660    2.4650 c3        1 H15      0.107400
      6 O1          2.3290   -2.0770    2.1280 oh        1 H15     -0.635800
      7 C3          2.5790    0.5750    3.4850 c3        1 H15     -0.117400
      8 C4          3.2070    1.9710    3.3940 c3        1 H15      0.191400
      9 C5          3.4480    2.5350    4.7590 ca        1 H15     -0.163300
     10 C6          4.7420    2.5560    5.2880 ca        1 H15     -0.114000
     11 C7          4.9650    3.0800    6.5610 ca        1 H15     -0.118500
     12 C8          3.9010    3.5870    7.3070 ca        1 H15     -0.099000
     13 C9          2.6080    3.5690    6.7800 ca        1 H15     -0.118500
     14 C10         2.3810    3.0430    5.5100 ca        1 H15     -0.114000
     15 O4          2.3470    2.7840    2.5970 oh        1 H15     -0.659800
     16 C22         2.0310    0.0910   -1.5080 c3        1 H15     -0.155400
     17 C23         1.0580    0.2940   -2.6550 c3        1 H15     -0.082400
     18 C24         1.7360   -0.0040   -3.9770 c3        1 H15     -0.080400
     19 C25         0.7760    0.2020   -5.1300 c3        1 H15     -0.079400
     20 C26         1.4470   -0.0960   -6.4540 c3        1 H15     -0.079400
     21 C27         0.4890    0.1110   -7.6090 c3        1 H15     -0.079400
     22 C28         1.1580   -0.1860   -8.9340 c3        1 H15     -0.079400
     23 C29         0.2020    0.0210  -10.0890 c3        1 H15     -0.079400
     24 C30         0.8700   -0.2750  -11.4140 c3        1 H15     -0.079400
     25 C31        -0.0860   -0.0670  -12.5690 c3        1 H15     -0.079400
     26 C32         0.5820   -0.3630  -13.8950 c3        1 H15     -0.079400
     27 C33        -0.3740   -0.1550  -15.0500 c3        1 H15     -0.079400
     28 C34         0.2930   -0.4510  -16.3760 c3        1 H15     -0.079400
     29 C35        -0.6550   -0.2450  -17.5290 c3        1 H15     -0.093100
     30 HN2         2.6770    1.4170    0.9930 hn        1 H15      0.471800
     31 H2          0.7300    0.8650    2.3640 hx        1 H15      0.132700
     32 H1          0.8840   -1.4380    3.5230 h1        1 H15      0.073200
     33 H1A         0.3660   -1.4890    1.7630 h1        1 H15      0.073200
     34 HO1         2.1910   -2.9460    2.5270 ho        1 H15      0.449000
     35 H3          3.4000   -0.1850    3.5760 hc        1 H15      0.093200
     36 H3A         1.9550    0.5160    4.4190 hc        1 H15      0.093200
     37 H4          4.1890    1.9020    2.8360 h1        1 H15      0.044700
     38 H6          5.5870    2.1630    4.7030 ha        1 H15      0.135500
     39 H7          5.9850    3.0950    6.9760 ha        1 H15      0.150500
     40 H8          4.0800    4.0020    8.3110 ha        1 H15      0.152000
     41 H9          1.7680    3.9710    7.3670 ha        1 H15      0.150500
     42 H10         1.3620    3.0270    5.0930 ha        1 H15      0.135500
     43 HO4         2.3480    3.6800    2.9590 ho        1 H15      0.452000
     44 H22         2.4140   -0.9680   -1.5160 hc        1 H15      0.099200
     45 H22A        2.9100    0.7800   -1.6300 hc        1 H15      0.099200
     46 H23         0.1690   -0.3780   -2.5210 hc        1 H15      0.069700
     47 H23A        0.6800    1.3500   -2.6490 hc        1 H15      0.069700
     48 H24         2.1080   -1.0630   -3.9820 hc        1 H15      0.047700
     49 H24A        2.6270    0.6650   -4.1060 hc        1 H15      0.047700
     50 H25         0.4030    1.2600   -5.1260 hc        1 H15      0.048200
     51 H25A       -0.1160   -0.4660   -5.0020 hc        1 H15      0.048200
     52 H26         2.3400    0.5710   -6.5830 hc        1 H15      0.042700
     53 H26A        1.8190   -1.1540   -6.4600 hc        1 H15      0.042700
     54 H27         0.1160    1.1690   -7.6040 hc        1 H15      0.042700
     55 H27A       -0.4040   -0.5560   -7.4810 hc        1 H15      0.042700
     56 H28         2.0520    0.4800   -9.0620 hc        1 H15      0.040700
     57 H28A        1.5310   -1.2440   -8.9390 hc        1 H15      0.040700
     58 H29        -0.1710    1.0790  -10.0840 hc        1 H15      0.041200
     59 H29A       -0.6920   -0.6450   -9.9610 hc        1 H15      0.041200
     60 H30         1.2420   -1.3330  -11.4200 hc        1 H15      0.040700
     61 H30A        1.7640    0.3910  -11.5420 hc        1 H15      0.040700
     62 H31        -0.9800   -0.7330  -12.4420 hc        1 H15      0.040700
     63 H31A       -0.4590    0.9910  -12.5640 hc        1 H15      0.040700
     64 H32         0.9540   -1.4220  -13.9000 hc        1 H15      0.039700
     65 H32A        1.4760    0.3020  -14.0220 hc        1 H15      0.039700
     66 H33        -0.7460    0.9030  -15.0450 hc        1 H15      0.039700
     67 H33A       -1.2680   -0.8200  -14.9230 hc        1 H15      0.039700
     68 H34         0.6660   -1.5100  -16.3790 hc        1 H15      0.038700
     69 H34A        1.1880    0.2140  -16.5010 hc        1 H15      0.038700
     70 H35        -0.1440   -0.4680  -18.4970 hc        1 H15      0.034367
     71 H35A       -1.0180    0.8110  -17.5580 hc        1 H15      0.034367
     72 H35B       -1.5420   -0.9170  -17.4360 hc        1 H15      0.034367
     73 H221        3.0660   -0.2110    0.8710 hn        1 H15      0.471800
@<TRIPOS>BOND
     1    1    2 2   
     2    2    3 1   
     3    2   16 1   
     4    3    4 1   
     5    3   30 1   
     6    3   73 1   
     7    4    5 1   
     8    4    7 1   
     9    4   31 1   
    10    5    6 1   
    11    5   32 1   
    12    5   33 1   
    13    6   34 1   
    14    7    8 1   
    15    7   35 1   
    16    7   36 1   
    17    8    9 1   
    18    8   15 1   
    19    8   37 1   
    20    9   10 ar  
    21    9   14 ar  
    22   10   11 ar  
    23   10   38 1   
    24   11   12 ar  
    25   11   39 1   
    26   12   13 ar  
    27   12   40 1   
    28   13   14 ar  
    29   13   41 1   
    30   14   42 1   
    31   15   43 1   
    32   16   17 1   
    33   16   44 1   
    34   16   45 1   
    35   17   18 1   
    36   17   46 1   
    37   17   47 1   
    38   18   19 1   
    39   18   48 1   
    40   18   49 1   
    41   19   20 1   
    42   19   50 1   
    43   19   51 1   
    44   20   21 1   
    45   20   52 1   
    46   20   53 1   
    47   21   22 1   
    48   21   54 1   
    49   21   55 1   
    50   22   23 1   
    51   22   56 1   
    52   22   57 1   
    53   23   24 1   
    54   23   58 1   
    55   23   59 1   
    56   24   25 1   
    57   24   60 1   
    58   24   61 1   
    59   25   26 1   
    60   25   62 1   
    61   25   63 1   
    62   26   27 1   
    63   26   64 1   
    64   26   65 1   
    65   27   28 1   
    66   27   66 1   
    67   27   67 1   
    68   28   29 1   
    69   28   68 1   
    70   28   69 1   
    71   29   70 1   
    72   29   71 1   
    73   29   72 1   
@<TRIPOS>SUBSTRUCTURE
     1 H15         1 TEMP              0 ****  ****    0 ROOT
