@<TRIPOS>MOLECULE
H16
   44    58     1     0     0
SMALL
bcc


@<TRIPOS>ATOM
      1 CA          0.0000    0.0000    0.0000 DU        1 H16     -0.291000
      2 CB          1.5280    0.0000    0.0000 DU        1 H16     -0.422000
      3 CC          2.0390    0.0000    1.4410 DU        1 H16     -0.225000
      4 CD          1.5290   -1.2480    2.1640 DU        1 H16     -0.278000
      5 CE         -0.0010   -1.2490    2.1640 DU        1 H16     -0.243000
      6 CF         -0.5110   -1.2480    0.7220 c3        1 H16     -0.328000
      7 N1          0.7990    4.1280   -3.0480 n7        1 H16     -0.171000
      8 C6          1.3240    3.0140   -3.5840 c3        1 H16      0.275000
      9 O2          2.1830    3.1180   -4.4440 o         1 H16     -0.292000
     10 C5          0.9050    1.7360   -3.1930 c2        1 H16      0.026000
     11 C4         -0.0650    1.5960   -2.2220 c2        1 H16     -0.203000
     12 S4         -0.6050    0.0000   -1.7050 s4        1 H16      0.320000
     13 C2         -0.1750    4.0640   -2.0720 c3        1 H16      0.025000
     14 C3         -0.6360    2.8150   -1.6290 c3        1 H16     -0.039000
     15 C7         -1.6220    2.7430   -0.6420 c2        1 H16     -0.115000
     16 C8         -2.1350    3.9050   -0.1080 c2        1 H16     -0.084000
     17 C9         -1.6780    5.1410   -0.5450 c3        1 H16     -0.185000
     18 C10        -0.7060    5.2250   -1.5190 c2        1 H16     -0.293000
     19 Cl         -3.3600    3.8240    1.1200 cl        1 H16      0.212000
     20 C12         0.7770    0.1870   -5.1240 DU        1 H16     -0.236000
     21 C13         1.3180   -1.1210   -5.7050 c3        1 H16     -0.504000
     22 HA          0.2850    0.0640   -1.0430 DU        1 H16      0.222000
     23 HB1         0.5760    0.4470    0.2600 DU        1 H16      0.223000
     24 HB2         1.8880    0.8860   -0.5090 ha        1 H16      0.111000
     25 HC1         1.9640   -0.4490    0.4580 DU        1 H16      0.169000
     26 HC2         3.1220   -0.0030    1.4390 ha        1 H16      0.118000
     27 HD1         1.6020   -0.1730    2.0580 DU        1 H16      0.143000
     28 HD2         1.8890   -2.1330    1.6520 ha        1 H16      0.105000
     29 HE1         0.9500   -1.2470    2.6810 DU        1 H16      0.179000
     30 HE2        -0.3610   -2.1360    2.6720 ha        1 H16      0.114000
     31 HF1        -0.4370   -0.8000    1.7050 DU        1 H16      0.192000
     32 HF2        -1.5940   -1.2440    0.7230 hc        1 H16      0.106000
     33 HN1         0.6660    3.2480   -2.5900 DU        1 H16      0.249000
     34 H7         -0.9600    3.2940   -1.2990 DU        1 H16      0.087000
     35 H9         -1.7750    4.0650   -0.4660 hc        1 H16      0.109000
     36 H10        -1.4080    5.6440   -0.8080 DU        1 H16      0.242000
     37 H111        1.1970    1.4920   -3.4890 ha        1 H16      0.104000
     38 H112        2.1100   -0.2940   -3.4160 ha        1 H16      0.104000
     39 H121        0.4980   -0.1130   -4.1210 DU        1 H16      0.324000
     40 H122        1.2880    1.0230   -5.5860 ha        1 H16      0.151000
     41 H131        0.5080   -0.4270   -5.5150 DU        1 H16      0.237000
     42 H132        1.0390   -2.0520   -5.2270 hc        1 H16      0.111000
     43 H133        2.2990   -1.1160   -6.1640 hc        1 H16      0.111000
     44 C11         1.5190    0.5150   -3.8280 DU        1 H16     -0.458000
@<TRIPOS>BOND
     1    1    2 1   
     2    1    6 1   
     3    1   12 1   
     4    1   22 1   
     5    1   23 1   
     6    2    3 1   
     7    2   23 1   
     8    2   24 1   
     9    2   25 1   
    10    3    4 1   
    11    3   25 1   
    12    3   26 1   
    13    3   27 1   
    14    4    5 1   
    15    4   27 1   
    16    4   28 1   
    17    4   29 1   
    18    5    6 1   
    19    5   29 1   
    20    5   30 1   
    21    5   31 1   
    22    6   31 1   
    23    6   32 1   
    24    7    8 1   
    25    7   13 1   
    26    7   33 1   
    27    8    9 1   
    28    8   10 1   
    29    8   33 1   
    30   10   11 1   
    31   10   44 1   
    32   11   12 1   
    33   11   14 1   
    34   12   22 1   
    35   13   14 1   
    36   13   18 1   
    37   13   33 1   
    38   14   15 1   
    39   14   34 1   
    40   15   16 1   
    41   15   34 1   
    42   16   17 1   
    43   16   19 1   
    44   17   18 1   
    45   17   35 1   
    46   17   36 1   
    47   18   36 1   
    48   20   21 1   
    49   20   39 1   
    50   20   40 1   
    51   20   41 1   
    52   20   44 1   
    53   21   41 1   
    54   21   42 1   
    55   21   43 1   
    56   37   44 1   
    57   38   44 1   
    58   39   44 1   
@<TRIPOS>SUBSTRUCTURE
     1 H16         1 TEMP              0 ****  ****    0 ROOT
