@<TRIPOS>MOLECULE
H16
   44    41     1     0     0
SMALL
bcc


@<TRIPOS>ATOM
      1 CA          0.2210   -0.9780    1.5500 c3        1 H16     -0.215000
      2 CB          1.5600   -1.7790    1.3250 c3        1 H16     -0.146500
      3 CC          2.3780   -1.9400    2.5950 c3        1 H16     -0.154500
      4 CD          1.6290   -1.7460    3.6910 c3        1 H16     -0.157000
      5 CE          0.3550   -2.1640    3.8480 c3        1 H16     -0.154500
      6 CF         -0.4400   -2.0050    2.5780 c3        1 H16     -0.146500
      7 N1         -0.5700    2.7630   -2.3800 n2        1 H16     -0.295000
      8 C6         -0.0580    1.5360   -2.7040 c1        1 H16      0.329000
      9 O2          0.3970    1.3420   -3.8160 o         1 H16     -0.350000
     10 C5          0.0150    0.5340   -1.7400 c1        1 H16     -0.088000
     11 C4         -0.4270    0.7760   -0.4690 c1        1 H16     -0.174000
     12 S4         -0.6300   -0.8490    0.2050 ss        1 H16      0.174000
     13 C2         -1.0180    3.0100   -1.0930 c1        1 H16      0.100000
     14 C3         -0.9480    2.0230   -0.1400 c1        1 H16     -0.095000
     15 C7         -1.5020    2.2370    1.1400 c1        1 H16     -0.079000
     16 C8         -2.1190    3.4470    1.4360 c1        1 H16     -0.099000
     17 C9         -2.1900    4.4470    0.4690 c1        1 H16     -0.076000
     18 C10        -1.6440    4.2360   -0.7920 c1        1 H16     -0.177000
     19 CL         -2.6260    4.1960    2.9270 cl        1 H16     -0.010000
     20 C11         0.6290   -0.5710   -2.5950 c3        1 H16     -0.130000
     21 C12        -0.3920   -1.0510   -3.6140 c3        1 H16     -0.153000
     22 C13         0.2560   -2.0650   -4.5410 c3        1 H16     -0.209000
     23 HA          0.3850   -0.1080    1.9650 h1        1 H16      0.118000
     24 HB1         1.3400   -2.6690    0.9770 hc        1 H16      0.091750
     25 HB2         2.1030   -1.3050    0.6600 hc        1 H16      0.091750
     26 HC1         2.7540   -2.8470    2.6200 hc        1 H16      0.082750
     27 HC2         3.1100   -1.2910    2.5880 hc        1 H16      0.082750
     28 HD1         2.1350   -2.1380    4.4380 hc        1 H16      0.081500
     29 HD2         1.6130   -0.7760    3.8380 hc        1 H16      0.081500
     30 HE1        -0.0690   -1.6390    4.5580 hc        1 H16      0.082750
     31 HE2         0.3580   -3.1110    4.1080 hc        1 H16      0.082750
     32 HF1        -0.5170   -2.8770    2.1440 hc        1 H16      0.091750
     33 HF2        -1.3370   -1.6870    2.8060 hc        1 H16      0.091750
     34 HN1        -0.6120    3.4200   -3.0110 hn        1 H16      0.249000
     35 H7         -1.4520    1.5370    1.8160 ha        1 H16      0.165000
     36 H9         -2.6240    5.2980    0.6770 ha        1 H16      0.152000
     37 H10        -1.6940    4.9390   -1.4710 ha        1 H16      0.144000
     38 H111        0.8940   -1.3180   -2.0210 hc        1 H16      0.110000
     39 H112        1.4150   -0.2230   -3.0610 hc        1 H16      0.110000
     40 H121       -1.1460   -1.4690   -3.1490 hc        1 H16      0.088000
     41 H122       -0.7140   -0.2890   -4.1380 hc        1 H16      0.088000
     42 H131        1.1300   -1.7310   -4.8300 hc        1 H16      0.073667
     43 H132       -0.3180   -2.2030   -5.3270 hc        1 H16      0.073667
     44 H133        0.3700   -2.9150   -4.0660 hc        1 H16      0.073667
@<TRIPOS>BOND
     1    1    2 1   
     2    1    6 1   
     3    1   12 1   
     4    1   23 1   
     5    2    3 1   
     6    2   24 1   
     7    2   25 1   
     8    3    4 1   
     9    3   26 1   
    10    3   27 1   
    11    4    5 1   
    12    4   28 1   
    13    4   29 1   
    14    5    6 1   
    15    5   30 1   
    16    5   31 1   
    17    6   32 1   
    18    6   33 1   
    19    7   13 1   
    20    7   34 1   
    21    8    9 1   
    22    8   10 1   
    23   10   20 1   
    24   11   12 1   
    25   11   14 1   
    26   13   18 1   
    27   14   15 1   
    28   15   35 1   
    29   16   17 1   
    30   16   19 1   
    31   17   36 1   
    32   18   37 1   
    33   20   21 1   
    34   20   38 1   
    35   20   39 1   
    36   21   22 1   
    37   21   40 1   
    38   21   41 1   
    39   22   42 1   
    40   22   43 1   
    41   22   44 1   
@<TRIPOS>SUBSTRUCTURE
     1 H16         1 TEMP              0 ****  ****    0 ROOT
