@<TRIPOS>MOLECULE
H16
   44    46     1     0     0
SMALL
bcc


@<TRIPOS>ATOM
      1 CA          2.1560    0.2230    0.1560 c3        1 H16      0.003400
      2 CB          2.8110    1.2560   -0.7380 c3        1 H16     -0.069400
      3 CC          3.7900    2.1080    0.0450 c3        1 H16     -0.076400
      4 CD          4.8270    1.2540    0.7440 c3        1 H16     -0.079400
      5 CE          4.1730    0.2150    1.6310 c3        1 H16     -0.076400
      6 CF          3.1900   -0.6390    0.8540 c3        1 H16     -0.069400
      7 N1         -3.0330    0.8440   -0.7390 n         1 H16     -0.441100
      8 C6         -2.4100    0.6330   -1.9720 c         1 H16      0.690700
      9 O2         -3.0360    0.9460   -3.0030 o         1 H16     -0.625500
     10 C5         -1.0360    0.0820   -1.9600 cc        1 H16     -0.112400
     11 C4         -0.4250   -0.2390   -0.7860 cd        1 H16      0.080400
     12 S4          1.1590   -0.8970   -0.8250 ss        1 H16     -0.247700
     13 C2         -2.4400    0.4790    0.4620 ca        1 H16      0.092600
     14 C3         -1.1360   -0.0920    0.4690 ca        1 H16     -0.106800
     15 C7         -0.5960   -0.5320    1.6890 ca        1 H16     -0.079000
     16 C8         -1.2940   -0.3580    2.8760 ca        1 H16     -0.020600
     17 C9         -2.5610    0.2490    2.8790 ca        1 H16     -0.076000
     18 C10        -3.1320    0.6580    1.6890 ca        1 H16     -0.177000
     19 CL         -0.6180   -0.8880    4.3430 cl        1 H16     -0.088400
     20 C12        -0.8840   -1.2980   -4.0250 c3        1 H16     -0.074400
     21 C13        -0.2290   -1.4220   -5.3760 c3        1 H16     -0.091100
     22 HA          1.5170    0.7430    0.9160 h1        1 H16      0.079700
     23 HB1         3.3500    0.7380   -1.5750 hc        1 H16      0.052950
     24 HB2         2.0250    1.9120   -1.1960 hc        1 H16      0.052950
     25 HC1         3.2330    2.7170    0.8050 hc        1 H16      0.043950
     26 HC2         4.2990    2.8230   -0.6530 hc        1 H16      0.043950
     27 HD1         5.4970    1.9060    1.3630 hc        1 H16      0.043200
     28 HD2         5.4680    0.7420   -0.0210 hc        1 H16      0.043200
     29 HE1         3.6370    0.7260    2.4740 hc        1 H16      0.043950
     30 HE2         4.9580   -0.4460    2.0820 hc        1 H16      0.043950
     31 HF1         2.6790   -1.3520    1.5530 hc        1 H16      0.052950
     32 HF2         3.7440   -1.2480    0.0910 hc        1 H16      0.052950
     33 HN1        -3.9490    1.2350   -0.7270 hn        1 H16      0.335500
     34 H7          0.3860   -1.0380    1.6880 ha        1 H16      0.165000
     35 H9         -3.1020    0.3910    3.8280 ha        1 H16      0.152000
     36 H10        -4.1320    1.1180    1.6950 ha        1 H16      0.144000
     37 H111        0.7190   -0.1000   -3.1800 hc        1 H16      0.070700
     38 H112       -0.6530    0.8500   -3.9140 hc        1 H16      0.070700
     39 H121       -1.9990   -1.2370   -4.1460 hc        1 H16      0.048700
     40 H122       -0.6580   -2.2080   -3.4090 hc        1 H16      0.048700
     41 H131       -0.5960   -2.3380   -5.8980 hc        1 H16      0.034367
     42 H132       -0.4640   -0.5340   -6.0110 hc        1 H16      0.034367
     43 H133        0.8810   -1.4960   -5.2720 hc        1 H16      0.034367
     44 C11        -0.4000   -0.0560   -3.2970 c3        1 H16     -0.047200
@<TRIPOS>BOND
     1    1    2 1   
     2    1    6 1   
     3    1   12 1   
     4    1   22 1   
     5    2    3 1   
     6    2   23 1   
     7    2   24 1   
     8    3    4 1   
     9    3   25 1   
    10    3   26 1   
    11    4    5 1   
    12    4   27 1   
    13    4   28 1   
    14    5    6 1   
    15    5   29 1   
    16    5   30 1   
    17    6   31 1   
    18    6   32 1   
    19    7    8 1   
    20    7   13 1   
    21    7   33 1   
    22    8    9 2   
    23    8   10 1   
    24   10   11 2   
    25   10   44 1   
    26   11   12 1   
    27   11   14 1   
    28   13   14 ar  
    29   13   18 ar  
    30   14   15 ar  
    31   15   16 ar  
    32   15   34 1   
    33   16   17 ar  
    34   16   19 1   
    35   17   18 ar  
    36   17   35 1   
    37   18   36 1   
    38   20   21 1   
    39   20   39 1   
    40   20   40 1   
    41   20   44 1   
    42   21   41 1   
    43   21   42 1   
    44   21   43 1   
    45   37   44 1   
    46   38   44 1   
@<TRIPOS>SUBSTRUCTURE
     1 H16         1 TEMP              0 ****  ****    0 ROOT
