@<TRIPOS>MOLECULE
H18
   45    58     1     0     0
SMALL
bcc


@<TRIPOS>ATOM
      1 CA          0.0000    0.0000    0.0000 DU        1 H18     -0.386000
      2 CB          1.5290    0.0000    0.0000 DU        1 H18     -0.073000
      3 CC          2.0400    0.0000    1.4420 DU        1 H18     -0.309000
      4 CD          1.5290   -1.2500    2.1630 DU        1 H18     -0.273000
      5 CE         -0.0000   -1.2490    2.1640 DU        1 H18     -0.291000
      6 CF         -0.5110   -1.2490    0.7210 c3        1 H18     -0.448000
      7 N1         -5.1210    0.4000   -1.2020 ns        1 H18     -0.196000
      8 C6         -4.3700    1.4460   -1.5920 c2        1 H18      0.234000
      9 O2         -4.9100    2.5160   -1.8110 o         1 H18     -0.317000
     10 C5         -2.9720    1.3350   -1.7530 c2        1 H18      0.039000
     11 C4         -2.3490    0.1540   -1.5140 c2        1 H18     -0.337000
     12 S4         -0.6050    0.0010   -1.7100 s6        1 H18      1.054000
     13 C2         -4.5480   -0.8270   -0.9440 c3        1 H18      0.069000
     14 C3         -3.1580   -0.9900   -1.0900 c3        1 H18     -0.027000
     15 C7         -2.5710   -2.2330   -0.8300 c2        1 H18      0.019000
     16 C8         -3.3620   -3.2890   -0.4320 c2        1 H18     -0.111000
     17 C9         -4.7330   -3.1260   -0.2890 c3        1 H18     -0.168000
     18 C10        -5.3260   -1.9070   -0.5420 c2        1 H18     -0.310000
     19 Cl         -2.6390   -4.8330   -0.1080 cl        1 H18      0.225000
     20 C12        -2.1900    2.6300   -3.7170 DU        1 H18     -0.265000
     21 C13        -1.3760    3.8450   -4.1620 c3        1 H18     -0.561000
     22 OS         -0.4590   -1.2990   -2.2660 o         1 H18     -0.574000
     23 HA         -0.6280    0.6730   -0.5710 DU        1 H18      0.192000
     24 HB1         0.5780    0.4470    0.2610 DU        1 H18      0.254000
     25 HB2         1.8890    0.8860   -0.5090 ha        1 H18      0.114000
     26 HC1         1.9650   -0.4480    0.4590 DU        1 H18      0.158000
     27 HC2         1.6760    0.8840    1.9530 ha        1 H18      0.094000
     28 HD1         2.3340   -0.6220    1.8000 DU        1 H18      0.201000
     29 HD2         1.8900   -1.2480    3.1840 ha        1 H18      0.115000
     30 HE1         0.9510   -1.6970    1.9030 DU        1 H18      0.210000
     31 HE2        -0.3600   -2.1360    2.6720 ha        1 H18      0.119000
     32 HF1        -0.4360   -0.8010    1.7040 DU        1 H18      0.162000
     33 HF2        -1.5940   -1.2450    0.7230 hc        1 H18      0.089000
     34 HN1        -4.2570   -0.0410   -0.9570 DU        1 H18      0.254000
     35 H7         -3.4260   -1.5700   -0.8940 DU        1 H18     -0.003000
     36 H9         -3.6990   -2.8820   -0.4970 hc        1 H18      0.114000
     37 H10        -5.3360   -2.9510   -0.2540 DU        1 H18      0.243000
     38 H111       -2.8970    1.7890   -1.8870 ha        1 H18      0.154500
     39 H112       -1.7020    3.3770   -1.6980 ha        1 H18      0.154500
     40 H121       -2.8720    3.0550   -2.9900 DU        1 H18      0.333000
     41 H122       -1.5800    1.7390   -3.8000 ha        1 H18      0.126000
     42 H131       -2.2260    3.1820   -4.2600 DU        1 H18      0.270000
     43 H132       -1.8000    4.8320   -4.0200 hc        1 H18      0.106000
     44 H133       -0.2950    3.7960   -4.0960 hc        1 H18      0.106000
     45 C11        -2.1700    2.5330   -2.1900 DU        1 H18     -0.562000
@<TRIPOS>BOND
     1    1    2 1   
     2    1    6 1   
     3    1   12 1   
     4    1   23 1   
     5    1   24 1   
     6    2    3 1   
     7    2   24 1   
     8    2   25 1   
     9    2   26 1   
    10    3    4 1   
    11    3   26 1   
    12    3   27 1   
    13    3   28 1   
    14    4    5 1   
    15    4   28 1   
    16    4   29 1   
    17    4   30 1   
    18    5    6 1   
    19    5   30 1   
    20    5   31 1   
    21    5   32 1   
    22    6   32 1   
    23    6   33 1   
    24    7    8 1   
    25    7   13 1   
    26    7   34 1   
    27    8    9 1   
    28    8   10 1   
    29   10   11 1   
    30   10   45 1   
    31   11   12 1   
    32   11   14 1   
    33   12   22 1   
    34   12   23 1   
    35   13   14 1   
    36   13   18 1   
    37   13   34 1   
    38   14   15 1   
    39   14   35 1   
    40   15   16 1   
    41   15   35 1   
    42   16   17 1   
    43   16   19 1   
    44   17   18 1   
    45   17   36 1   
    46   17   37 1   
    47   18   37 1   
    48   20   21 1   
    49   20   40 1   
    50   20   41 1   
    51   20   42 1   
    52   20   45 1   
    53   21   42 1   
    54   21   43 1   
    55   21   44 1   
    56   38   45 1   
    57   39   45 1   
    58   40   45 1   
@<TRIPOS>SUBSTRUCTURE
     1 H18         1 TEMP              0 ****  ****    0 ROOT
