@<TRIPOS>MOLECULE
H18
   45    47     1     0     0
SMALL
bcc


@<TRIPOS>ATOM
      1 CA          0.5260   -2.0060   -0.2920 c3        1 H18     -0.056400
      2 CB          0.3710   -3.4820    0.0320 c3        1 H18     -0.059900
      3 CC          0.9780   -4.3510   -1.0510 c3        1 H18     -0.070900
      4 CD          2.4340   -4.0010   -1.2810 c3        1 H18     -0.077400
      5 CE          2.5970   -2.5300   -1.6030 c3        1 H18     -0.070900
      6 CF          1.9790   -1.6560   -0.5310 c3        1 H18     -0.059900
      7 N1         -1.7140    2.6670   -0.9990 n         1 H18     -0.432100
      8 C6         -2.5320    1.5440   -0.9020 c         1 H18      0.685700
      9 O2         -3.6840    1.6050   -1.3780 o         1 H18     -0.631500
     10 C5         -1.9660    0.3460   -0.2380 cc        1 H18     -0.094400
     11 C4         -0.6990    0.3450    0.2590 cd        1 H18      0.003500
     12 S4         -0.2340   -1.1370    1.0580 sx        1 H18      0.302200
     13 C2         -0.4170    2.6830   -0.5030 ca        1 H18      0.085600
     14 C3          0.1250    1.5290    0.1340 ca        1 H18     -0.081800
     15 C7          1.4470    1.5910    0.6150 ca        1 H18     -0.075000
     16 C8          2.2030    2.7470    0.4680 ca        1 H18     -0.019600
     17 C9          1.6670    3.8850   -0.1570 ca        1 H18     -0.074000
     18 C10         0.3730    3.8560   -0.6380 ca        1 H18     -0.181000
     19 CL          3.7980    2.7950    1.0520 cl        1 H18     -0.084400
     20 C12        -3.9240   -0.6570    0.9280 c3        1 H18     -0.078400
     21 C13        -4.8580   -1.8380    0.9740 c3        1 H18     -0.093100
     22 OS          0.8420   -0.8510    2.0350 o         1 H18     -0.496200
     23 HA         -0.0520   -1.7820   -1.2280 h1        1 H18      0.088700
     24 HB1         0.8770   -3.7020    1.0100 hc        1 H18      0.050950
     25 HB2        -0.7180   -3.7310    0.1400 hc        1 H18      0.050950
     26 HC1         0.8900   -5.4280   -0.7540 hc        1 H18      0.042200
     27 HC2         0.4040   -4.2140   -2.0050 hc        1 H18      0.042200
     28 HD1         3.0280   -4.2510   -0.3630 hc        1 H18      0.042700
     29 HD2         2.8390   -4.6180   -2.1250 hc        1 H18      0.042700
     30 HE1         3.6870   -2.2840   -1.6980 hc        1 H18      0.042200
     31 HE2         2.1130   -2.3080   -2.5900 hc        1 H18      0.042200
     32 HF1         2.0560   -0.5790   -0.8390 hc        1 H18      0.050950
     33 HF2         2.5480   -1.7730    0.4320 hc        1 H18      0.050950
     34 HN1        -2.0760    3.4860   -1.4370 hn        1 H18      0.336500
     35 H7          1.8930    0.7180    1.1290 ha        1 H18      0.194000
     36 H9          2.2760    4.7960   -0.2640 ha        1 H18      0.152000
     37 H10        -0.0460    4.7490   -1.1270 ha        1 H18      0.143000
     38 H111       -3.4380   -0.8900   -1.1660 hc        1 H18      0.061700
     39 H112       -2.3300   -1.7750   -0.0390 hc        1 H18      0.061700
     40 H121       -3.4040   -0.5450    1.9150 hc        1 H18      0.052700
     41 H122       -4.5090    0.2850    0.7450 hc        1 H18      0.052700
     42 H131       -5.6080   -1.7020    1.7900 hc        1 H18      0.036700
     43 H132       -5.4050   -1.9450    0.0060 hc        1 H18      0.036700
     44 H133       -4.2950   -2.7830    1.1660 hc        1 H18      0.036700
     45 C11        -2.8970   -0.8150   -0.1800 c3        1 H18     -0.050200
@<TRIPOS>BOND
     1    1    2 1   
     2    1    6 1   
     3    1   12 1   
     4    1   23 1   
     5    2    3 1   
     6    2   24 1   
     7    2   25 1   
     8    3    4 1   
     9    3   26 1   
    10    3   27 1   
    11    4    5 1   
    12    4   28 1   
    13    4   29 1   
    14    5    6 1   
    15    5   30 1   
    16    5   31 1   
    17    6   32 1   
    18    6   33 1   
    19    7    8 1   
    20    7   13 1   
    21    7   34 1   
    22    8    9 2   
    23    8   10 1   
    24   10   11 2   
    25   10   45 1   
    26   11   12 1   
    27   11   14 1   
    28   12   22 2   
    29   13   14 ar  
    30   13   18 ar  
    31   14   15 ar  
    32   15   16 ar  
    33   15   35 1   
    34   16   17 ar  
    35   16   19 1   
    36   17   18 ar  
    37   17   36 1   
    38   18   37 1   
    39   20   21 1   
    40   20   40 1   
    41   20   41 1   
    42   20   45 1   
    43   21   42 1   
    44   21   43 1   
    45   21   44 1   
    46   38   45 1   
    47   39   45 1   
@<TRIPOS>SUBSTRUCTURE
     1 H18         1 TEMP              0 ****  ****    0 ROOT
