@<TRIPOS>MOLECULE
H18
   45    42     1     0     0
SMALL
bcc


@<TRIPOS>ATOM
      1 CA          0.0390    1.9860   -0.6510 c3        1 H18     -0.521000
      2 CB          0.2250    2.8970    0.5880 c3        1 H18     -0.137500
      3 CC         -1.0880    3.4150    1.1480 c3        1 H18     -0.159500
      4 CD         -1.9440    4.0800    0.1130 c3        1 H18     -0.157000
      5 CE         -2.1560    3.2440   -1.1010 c3        1 H18     -0.159500
      6 CF         -0.8610    2.7250   -1.6950 c3        1 H18     -0.137500
      7 N1          1.7860   -3.5130   -0.3740 n2        1 H18     -0.287000
      8 C6          1.2230   -3.0580    0.7890 c1        1 H18      0.324000
      9 O2          1.3520   -3.6990    1.8210 o         1 H18     -0.355000
     10 C5          0.5540   -1.8330    0.8090 c1        1 H18     -0.063000
     11 C4          0.4600   -1.0860   -0.3340 c1        1 H18     -0.441000
     12 S4         -0.6030    0.3580   -0.2180 s4        1 H18      1.431000
     13 C2          1.6930   -2.7590   -1.5310 c1        1 H18      0.094000
     14 C3          1.0330   -1.5490   -1.5150 c1        1 H18     -0.072000
     15 C7          0.9090   -0.7990   -2.7040 c1        1 H18     -0.077000
     16 C8          1.4530   -1.2800   -3.8910 c1        1 H18     -0.096000
     17 C9          2.1200   -2.5040   -3.9060 c1        1 H18     -0.075000
     18 C10         2.2430   -3.2450   -2.7340 c1        1 H18     -0.179000
     19 CL          1.2550   -0.3500   -5.3580 cl        1 H18     -0.005000
     20 C11        -0.2610   -1.3560    2.0080 c3        1 H18     -0.133000
     21 C12         0.0420   -2.2380    3.2120 c3        1 H18     -0.158000
     22 C13        -0.7950   -1.7820    4.3990 c3        1 H18     -0.211000
     23 OS         -2.0000    0.1960    0.0840 o         1 H18     -0.768000
     24 HA          0.9010    1.7500   -1.0410 h1        1 H18      0.130000
     25 HB1         0.6840    2.3920    1.2820 hc        1 H18      0.093250
     26 HB2         0.7820    3.6620    0.3340 hc        1 H18      0.093250
     27 HC1        -0.8940    4.0610    1.8600 hc        1 H18      0.081500
     28 HC2        -1.5810    2.6690    1.5290 hc        1 H18      0.081500
     29 HD1        -2.8130    4.2820    0.5090 hc        1 H18      0.083500
     30 HD2        -1.5160    4.9220   -0.1560 hc        1 H18      0.083500
     31 HE1        -2.7190    2.4820   -0.8630 hc        1 H18      0.081500
     32 HE2        -2.6190    3.7800   -1.7760 hc        1 H18      0.081500
     33 HF1        -0.3610    3.4780   -2.0620 hc        1 H18      0.093250
     34 HF2        -1.0740    2.1070   -2.4190 hc        1 H18      0.093250
     35 HN1         2.2180   -4.3240   -0.3880 hn        1 H18      0.250000
     36 H7          0.4430    0.0570   -2.6930 ha        1 H18      0.184000
     37 H9          2.5020   -2.8410   -4.7380 ha        1 H18      0.152000
     38 H10         2.7100   -4.1010   -2.7460 ha        1 H18      0.143000
     39 H111       -1.2110   -1.4090    1.7970 hc        1 H18      0.101500
     40 H112       -0.0260   -0.4320    2.2150 hc        1 H18      0.101500
     41 H121       -0.1740   -3.1650    2.9980 hc        1 H18      0.093500
     42 H122        0.9930   -2.1680    3.4370 hc        1 H18      0.093500
     43 H131       -1.7340   -2.0140    4.2450 hc        1 H18      0.075667
     44 H132       -0.4770   -2.2290    5.2150 hc        1 H18      0.075667
     45 H133       -0.7120   -0.8090    4.5040 hc        1 H18      0.075667
@<TRIPOS>BOND
     1    1    2 1   
     2    1    6 1   
     3    1   12 1   
     4    1   24 1   
     5    2    3 1   
     6    2   25 1   
     7    2   26 1   
     8    3    4 1   
     9    3   27 1   
    10    3   28 1   
    11    4    5 1   
    12    4   29 1   
    13    4   30 1   
    14    5    6 1   
    15    5   31 1   
    16    5   32 1   
    17    6   33 1   
    18    6   34 1   
    19    7   13 1   
    20    7   35 1   
    21    8    9 1   
    22    8   10 1   
    23   10   20 1   
    24   11   12 1   
    25   11   14 1   
    26   12   23 1   
    27   13   18 1   
    28   14   15 1   
    29   15   36 1   
    30   16   17 1   
    31   16   19 1   
    32   17   37 1   
    33   18   38 1   
    34   20   21 1   
    35   20   39 1   
    36   20   40 1   
    37   21   22 1   
    38   21   41 1   
    39   21   42 1   
    40   22   43 1   
    41   22   44 1   
    42   22   45 1   
@<TRIPOS>SUBSTRUCTURE
     1 H18         1 TEMP              0 ****  ****    0 ROOT
