@<TRIPOS>MOLECULE
H1B
   56    59     1     0     0
SMALL
bcc


@<TRIPOS>ATOM
      1 C01         0.3500   -0.3890   -0.5400 c3        1 H1B     -0.119100
      2 C05         1.7890    0.0540   -0.3420 c3        1 H1B      0.068000
      3 N08         2.2150    0.1190    1.0520 n         1 H1B     -0.330000
      4 C09         2.3680   -1.0450    1.7600 cc        1 H1B      0.082600
      5 C11         2.7440   -1.1080    3.0940 cd        1 H1B     -0.119400
      6 C12         2.9140   -2.3920    3.7600 ca        1 H1B     -0.046800
      7 C13         3.4940   -3.4780    3.0850 ca        1 H1B     -0.097000
      8 C15         3.6540   -4.7040    3.7260 ca        1 H1B     -0.117000
      9 C17         3.2470   -4.8670    5.0510 ca        1 H1B     -0.069000
     10 C19         2.6750   -3.7870    5.7260 ca        1 H1B     -0.154300
     11 C20         2.5050   -2.5570    5.0900 ca        1 H1B     -0.097000
     12 C22         2.2410   -3.9310    7.1820 c3        1 H1B      0.687200
     13 F23         2.0360   -5.2220    7.5970 f         1 H1B     -0.231300
     14 F24         3.1480   -3.4210    8.0810 f         1 H1B     -0.231300
     15 F25         1.0700   -3.2790    7.4860 f         1 H1B     -0.231300
     16 C26         2.9520    0.1210    3.7800 cd        1 H1B      0.022100
     17 S27         3.3650    0.3990    5.3590 ss        1 H1B      0.235200
     18 C28         3.3790    2.0790    5.1860 cd        1 H1B     -0.333000
     19 C29         3.0370    2.4660    3.8910 cc        1 H1B     -0.039000
     20 C31         2.7970    1.3400    3.0750 cc        1 H1B     -0.225600
     21 C32         2.4190    1.3830    1.6660 c         1 H1B      0.728100
     22 O33         2.2880    2.4360    1.0180 o         1 H1B     -0.605500
     23 C34         3.6710    2.9540    6.3070 cf        1 H1B      0.664800
     24 N35         4.1280    4.3310    5.8270 n4        1 H1B     -0.873600
     25 N37         3.5560    2.6020    7.5280 n2        1 H1B     -0.545900
     26 C39         3.8410    3.3790    8.7110 c3        1 H1B      0.111500
     27 C41         3.2250    2.6790    9.9450 c3        1 H1B     -0.043900
     28 C44         3.3880    3.5380   11.1740 c3        1 H1B     -0.324600
     29 S47         5.0070    3.8240   11.6400 s6        1 H1B      1.336000
     30 O48         5.6620    2.6190   11.8820 o         1 H1B     -0.625300
     31 O49         5.0380    4.8320   12.6000 o         1 H1B     -0.625300
     32 C50         5.5700    4.4810   10.1490 c3        1 H1B     -0.324600
     33 C53         5.3500    3.5830    8.9620 c3        1 H1B     -0.043900
     34 H011       -0.3640    0.3250   -0.0630 hc        1 H1B      0.056700
     35 H012        0.1400   -0.4190   -1.6370 hc        1 H1B      0.056700
     36 H013        0.1720   -1.4070   -0.1160 hc        1 H1B      0.056700
     37 H051        2.4780   -0.6600   -0.8780 h1        1 H1B      0.083200
     38 H052        1.9270    1.0800   -0.7930 h1        1 H1B      0.083200
     39 H09         2.1700   -1.9800    1.1930 h4        1 H1B      0.178000
     40 H13         3.8330   -3.3590    2.0440 ha        1 H1B      0.141000
     41 H20         2.0240   -1.7280    5.6370 ha        1 H1B      0.144000
     42 H15         4.1060   -5.5510    3.1870 ha        1 H1B      0.157000
     43 H17         3.3700   -5.8360    5.5610 ha        1 H1B      0.167000
     44 H29         2.9340    3.4830    3.5010 ha        1 H1B      0.162000
     45 H351        4.8190    4.2020    5.0810 hn        1 H1B      0.460133
     46 H352        3.3190    4.8300    5.4440 hn        1 H1B      0.460133
     47 H39         3.3530    4.3990    8.6240 h1        1 H1B      0.048700
     48 H411        3.7250    1.6850   10.1060 hc        1 H1B      0.074450
     49 H412        2.1360    2.4830    9.7640 hc        1 H1B      0.074450
     50 H531        5.8420    4.0270    8.0580 hc        1 H1B      0.074450
     51 H532        5.8380    2.5850    9.1510 hc        1 H1B      0.074450
     52 H441        2.8430    3.0190   12.0150 h1        1 H1B      0.125950
     53 H442        2.8310    4.5040   11.0350 h1        1 H1B      0.125950
     54 H501        5.1090    5.4870    9.9640 h1        1 H1B      0.125950
     55 H502        6.6760    4.6790   10.2320 h1        1 H1B      0.125950
     56 H353        4.5420    4.8820    6.5820 hn        1 H1B      0.460133
@<TRIPOS>BOND
     1    1    2 1   
     2    1   34 1   
     3    1   35 1   
     4    1   36 1   
     5    2    3 1   
     6    2   37 1   
     7    2   38 1   
     8    3    4 1   
     9    3   21 1   
    10    4    5 2   
    11    4   39 1   
    12    5    6 1   
    13    5   16 1   
    14    6    7 ar  
    15    6   11 ar  
    16    7    8 ar  
    17    7   40 1   
    18    8    9 ar  
    19    8   42 1   
    20    9   10 ar  
    21    9   43 1   
    22   10   11 ar  
    23   10   12 1   
    24   11   41 1   
    25   12   13 1   
    26   12   14 1   
    27   12   15 1   
    28   16   17 1   
    29   16   20 2   
    30   17   18 1   
    31   18   19 2   
    32   18   23 1   
    33   19   20 1   
    34   19   44 1   
    35   20   21 1   
    36   21   22 2   
    37   23   24 1   
    38   23   25 2   
    39   24   45 1   
    40   24   46 1   
    41   24   56 1   
    42   25   26 1   
    43   26   27 1   
    44   26   33 1   
    45   26   47 1   
    46   27   28 1   
    47   27   48 1   
    48   27   49 1   
    49   28   29 1   
    50   28   52 1   
    51   28   53 1   
    52   29   30 2   
    53   29   31 2   
    54   29   32 1   
    55   32   33 1   
    56   32   54 1   
    57   32   55 1   
    58   33   50 1   
    59   33   51 1   
@<TRIPOS>SUBSTRUCTURE
     1 H1B         1 TEMP              0 ****  ****    0 ROOT
