@<TRIPOS>MOLECULE
H1B
   56    59     1     0     0
SMALL
bcc


@<TRIPOS>ATOM
      1 C01         0.3630   -0.3830   -0.5480 c3        1 H1B     -0.119100
      2 C05         1.8020    0.0590   -0.3470 c3        1 H1B      0.068000
      3 N08         2.2250    0.1230    1.0480 n         1 H1B     -0.330000
      4 C09         2.3750   -1.0420    1.7550 cc        1 H1B      0.082600
      5 C11         2.7480   -1.1060    3.0900 cd        1 H1B     -0.119400
      6 C12         2.9160   -2.3910    3.7570 ca        1 H1B     -0.046800
      7 C13         3.4960   -3.4770    3.0820 ca        1 H1B     -0.097000
      8 C15         3.6530   -4.7040    3.7220 ca        1 H1B     -0.117000
      9 C17         3.2420   -4.8670    5.0460 ca        1 H1B     -0.069000
     10 C19         2.6700   -3.7870    5.7210 ca        1 H1B     -0.154300
     11 C20         2.5020   -2.5570    5.0850 ca        1 H1B     -0.097000
     12 C22         2.2320   -3.9320    7.1750 c3        1 H1B      0.687200
     13 F23         2.0270   -5.2230    7.5890 f         1 H1B     -0.231300
     14 F24         3.1350   -3.4200    8.0770 f         1 H1B     -0.231300
     15 F25         1.0590   -3.2810    7.4760 f         1 H1B     -0.231300
     16 C26         2.9550    0.1220    3.7770 cd        1 H1B      0.022100
     17 S27         3.3650    0.3990    5.3580 ss        1 H1B      0.235200
     18 C28         3.3810    2.0780    5.1860 cd        1 H1B     -0.333000
     19 C29         3.0430    2.4660    3.8900 cc        1 H1B     -0.039000
     20 C31         2.8040    1.3410    3.0730 cc        1 H1B     -0.225600
     21 C32         2.4290    1.3860    1.6630 c         1 H1B      0.728100
     22 O33         2.3000    2.4400    1.0160 o         1 H1B     -0.605500
     23 C34         3.6710    2.9530    6.3080 cf        1 H1B      0.664800
     24 N35         4.1300    4.3300    5.8310 nz        1 H1B     -0.873600
     25 N37         3.5540    2.6000    7.5290 n2        1 H1B     -0.545900
     26 C39         3.8370    3.3750    8.7130 c3        1 H1B      0.111500
     27 C41         3.2180    2.6760    9.9460 c3        1 H1B     -0.043900
     28 C44         3.3800    3.5330   11.1750 c3        1 H1B     -0.324600
     29 S47         4.9980    3.8170   11.6450 s6        1 H1B      1.336000
     30 O48         5.6510    2.6110   11.8870 o         1 H1B     -0.625300
     31 O49         5.0280    4.8240   12.6060 o         1 H1B     -0.625300
     32 C50         5.5640    4.4750   10.1550 c3        1 H1B     -0.324600
     33 C53         5.3460    3.5770    8.9670 c3        1 H1B     -0.043900
     34 H011        0.1560   -0.4110   -1.6460 hc        1 H1B      0.056700
     35 H012        0.1840   -1.4000   -0.1260 hc        1 H1B      0.056700
     36 H013       -0.3510    0.3320   -0.0720 hc        1 H1B      0.056700
     37 H051        1.9430    1.0860   -0.7970 h1        1 H1B      0.083200
     38 H052        2.4930   -0.6550   -0.8810 h1        1 H1B      0.083200
     39 H09         2.1780   -1.9760    1.1880 h4        1 H1B      0.178000
     40 H13         3.8380   -3.3570    2.0420 ha        1 H1B      0.141000
     41 H20         2.0210   -1.7280    5.6310 ha        1 H1B      0.144000
     42 H15         4.1060   -5.5510    3.1840 ha        1 H1B      0.157000
     43 H17         3.3640   -5.8370    5.5560 ha        1 H1B      0.167000
     44 H29         2.9410    3.4840    3.5010 ha        1 H1B      0.162000
     45 H351        4.5430    4.8800    6.5870 hn        1 H1B      0.460133
     46 H352        4.8230    4.2000    5.0860 hn        1 H1B      0.460133
     47 H39         3.3500    4.3960    8.6260 h1        1 H1B      0.048700
     48 H411        2.1290    2.4810    9.7620 hc        1 H1B      0.074450
     49 H412        3.7160    1.6810   10.1060 hc        1 H1B      0.074450
     50 H531        5.8320    2.5790    9.1560 hc        1 H1B      0.074450
     51 H532        5.8410    4.0220    8.0650 hc        1 H1B      0.074450
     52 H441        2.8240    4.5000   11.0360 h1        1 H1B      0.125950
     53 H442        2.8320    3.0150   12.0150 h1        1 H1B      0.125950
     54 H501        6.6700    4.6710   10.2410 h1        1 H1B      0.125950
     55 H502        5.1060    5.4810    9.9700 h1        1 H1B      0.125950
     56 H353        3.3230    4.8300    5.4470 hn        1 H1B      0.460133
@<TRIPOS>BOND
     1    1    2 1   
     2    1   34 1   
     3    1   35 1   
     4    1   36 1   
     5    2    3 1   
     6    2   37 1   
     7    2   38 1   
     8    3    4 1   
     9    3   21 1   
    10    4    5 2   
    11    4   39 1   
    12    5    6 1   
    13    5   16 1   
    14    6    7 ar  
    15    6   11 ar  
    16    7    8 ar  
    17    7   40 1   
    18    8    9 ar  
    19    8   42 1   
    20    9   10 ar  
    21    9   43 1   
    22   10   11 ar  
    23   10   12 1   
    24   11   41 1   
    25   12   13 1   
    26   12   14 1   
    27   12   15 1   
    28   16   17 1   
    29   16   20 2   
    30   17   18 1   
    31   18   19 2   
    32   18   23 1   
    33   19   20 1   
    34   19   44 1   
    35   20   21 1   
    36   21   22 2   
    37   23   24 1   
    38   23   25 2   
    39   24   45 1   
    40   24   46 1   
    41   24   56 1   
    42   25   26 1   
    43   26   27 1   
    44   26   33 1   
    45   26   47 1   
    46   27   28 1   
    47   27   48 1   
    48   27   49 1   
    49   28   29 1   
    50   28   52 1   
    51   28   53 1   
    52   29   30 2   
    53   29   31 2   
    54   29   32 1   
    55   32   33 1   
    56   32   54 1   
    57   32   55 1   
    58   33   50 1   
    59   33   51 1   
@<TRIPOS>SUBSTRUCTURE
     1 H1B         1 TEMP              0 ****  ****    0 ROOT
