@<TRIPOS>MOLECULE
H1D
   32    31     1     0     0
SMALL
bcc


@<TRIPOS>ATOM
      1 OXT         6.1820   -0.8350   -0.0330 o         1 H1D     -0.837300
      2 C           4.9530   -1.1120   -0.1290 c         1 H1D      0.890600
      3 O           4.4860   -2.1380   -0.6940 o         1 H1D     -0.837300
      4 CA          3.9270   -0.1250    0.5270 c3        1 H1D      0.017500
      5 N           4.5260    1.0490    1.1480 n3        1 H1D     -0.894800
      6 CB          2.8680    0.2230   -0.5230 c3        1 H1D     -0.062400
      7 CG          1.6620    0.8670    0.1090 c3        1 H1D      0.017700
      8 SD          0.4620    1.1690   -1.1760 ss        1 H1D     -0.342200
      9 C5         -0.9970    1.5250   -0.2520 c3        1 H1D     -0.057300
     10 C4         -1.9820    0.3670   -0.2940 c3        1 H1D      0.124100
     11 O4         -1.5070   -0.7610    0.4250 oh        1 H1D     -0.632800
     12 C3         -3.3110    0.7740    0.3800 c3        1 H1D      0.073100
     13 O3         -3.8460    1.9300   -0.2260 oh        1 H1D     -0.581800
     14 C2         -4.3140   -0.3760    0.2880 c         1 H1D      0.571100
     15 O2         -5.2610   -0.3240   -0.5180 o         1 H1D     -0.587100
     16 N1         -4.2070   -1.4180    1.2480 n         1 H1D     -0.343400
     17 O1         -4.8640   -2.5390    0.9380 oh        1 H1D     -0.435100
     18 HA          3.4230   -0.7040    1.3560 h1        1 H1D      0.039700
     19 HN1A        5.3250    0.7310    1.6710 hn        1 H1D      0.333800
     20 HN2         4.8870    1.6430    0.4210 hn        1 H1D      0.333800
     21 HB1         3.3030    0.9030   -1.3010 hc        1 H1D      0.064700
     22 HB2         2.5810   -0.7370   -1.0320 hc        1 H1D      0.064700
     23 HG1         1.2210    0.1980    0.8860 h1        1 H1D      0.059700
     24 HG2         1.9350    1.8330    0.5960 h1        1 H1D      0.059700
     25 H51        -0.7450    1.7680    0.8080 h1        1 H1D      0.084200
     26 H52        -1.4850    2.4220   -0.7090 h1        1 H1D      0.084200
     27 H4         -2.1770    0.0730   -1.3650 h1        1 H1D      0.057700
     28 HO4        -0.6200   -0.9550    0.0830 ho        1 H1D      0.445000
     29 H3         -3.1250    1.0650    1.4520 h1        1 H1D      0.108700
     30 HO3        -4.2320    1.6680   -1.0750 ho        1 H1D      0.422000
     31 HN1        -3.2370   -1.6690    1.4410 hn        1 H1D      0.332500
     32 HO1        -5.8140   -2.3210    1.0120 ho        1 H1D      0.426000
@<TRIPOS>BOND
     1    1    2 1   
     2    2    3 1   
     3    2    4 1   
     4    4    5 1   
     5    4    6 1   
     6    4   18 1   
     7    5   19 1   
     8    5   20 1   
     9    6    7 1   
    10    6   21 1   
    11    6   22 1   
    12    7    8 1   
    13    7   23 1   
    14    7   24 1   
    15    8    9 1   
    16    9   10 1   
    17    9   25 1   
    18    9   26 1   
    19   10   11 1   
    20   10   12 1   
    21   10   27 1   
    22   11   28 1   
    23   12   13 1   
    24   12   14 1   
    25   12   29 1   
    26   13   30 1   
    27   14   15 2   
    28   14   16 1   
    29   16   17 1   
    30   16   31 1   
    31   17   32 1   
@<TRIPOS>SUBSTRUCTURE
     1 H1D         1 TEMP              0 ****  ****    0 ROOT
