@<TRIPOS>MOLECULE
H1D
   34    33     1     0     0
SMALL
bcc


@<TRIPOS>ATOM
      1 OXT         4.5620   -3.0560    1.7580 o         1 H1D     -0.818800
      2 C           4.3110   -1.9320    2.2890 c         1 H1D      0.911600
      3 O           5.1080   -1.3350    3.0570 o         1 H1D     -0.818800
      4 CA          2.9210   -1.2900    2.0290 c3        1 H1D     -0.001500
      5 N           2.3600   -1.8330    0.7470 n4        1 H1D     -0.833600
      6 CB          2.0120   -1.5900    3.2270 c3        1 H1D     -0.086400
      7 CG          2.4500   -0.8070    4.4470 c3        1 H1D     -0.032300
      8 SD          2.5990   -1.8120    5.8960 ss        1 H1D     -0.247200
      9 C5          4.3440   -2.0480    6.0810 c3        1 H1D     -0.094300
     10 C4          4.6960   -3.5190    6.2590 c3        1 H1D      0.151100
     11 O4          4.1690   -4.3310    5.2210 oh        1 H1D     -0.638800
     12 C3          6.2330   -3.7080    6.2610 c3        1 H1D      0.098100
     13 O3          6.4990   -4.5840    7.3300 oh        1 H1D     -0.548800
     14 C2          6.8210   -4.3250    4.9840 c         1 H1D      0.519100
     15 O2          7.6280   -5.2350    4.9530 o         1 H1D     -0.380100
     16 N1          6.3590   -3.6980    3.6910 n4        1 H1D     -0.448300
     17 O1          7.0540   -4.1910    2.6420 oh        1 H1D     -0.370300
     18 HA          3.0430   -0.1740    1.9080 hx        1 H1D      0.120700
     19 HN1A        1.3390   -1.8270    0.7610 hn        1 H1D      0.461800
     20 HN2         2.7060   -2.8040    0.6390 hn        1 H1D      0.461800
     21 HB1         0.9480   -1.3220    2.9810 hc        1 H1D      0.069200
     22 HB2         2.0400   -2.6920    3.4470 hc        1 H1D      0.069200
     23 HG1         3.4090   -0.2610    4.2530 h1        1 H1D      0.108700
     24 HG2         1.6710   -0.0430    4.7060 h1        1 H1D      0.108700
     25 H51         4.8910   -1.6080    5.2090 h1        1 H1D      0.101200
     26 H52         4.6640   -1.4960    7.0020 h1        1 H1D      0.101200
     27 H4          4.3060   -3.8910    7.2550 h1        1 H1D      0.112700
     28 HO4         3.2020   -4.2720    5.2790 ho        1 H1D      0.453000
     29 H3          6.7480   -2.7150    6.4140 h1        1 H1D      0.090700
     30 HO3         7.4590   -4.6970    7.4090 ho        1 H1D      0.440000
     31 HN1         6.4680   -2.6550    3.7220 hn        1 H1D      0.495800
     32 HO1         6.5420   -3.9670    1.8230 ho        1 H1D      0.486000
     33 HN3         2.7000   -1.2800   -0.0410 hn        1 H1D      0.461800
     34 H12         5.3330   -3.8960    3.5720 hn        1 H1D      0.495800
@<TRIPOS>BOND
     1    1    2 1   
     2    2    3 1   
     3    2    4 1   
     4    4    5 1   
     5    4    6 1   
     6    4   18 1   
     7    5   19 1   
     8    5   20 1   
     9    5   33 1   
    10    6    7 1   
    11    6   21 1   
    12    6   22 1   
    13    7    8 1   
    14    7   23 1   
    15    7   24 1   
    16    8    9 1   
    17    9   10 1   
    18    9   25 1   
    19    9   26 1   
    20   10   11 1   
    21   10   12 1   
    22   10   27 1   
    23   11   28 1   
    24   12   13 1   
    25   12   14 1   
    26   12   29 1   
    27   13   30 1   
    28   14   15 2   
    29   14   16 1   
    30   16   17 1   
    31   16   31 1   
    32   16   34 1   
    33   17   32 1   
@<TRIPOS>SUBSTRUCTURE
     1 H1D         1 TEMP              0 ****  ****    0 ROOT
