@<TRIPOS>MOLECULE
H1D
   34    33     1     0     0
SMALL
bcc


@<TRIPOS>ATOM
      1 OXT         4.1590   -3.2970    2.2640 o         1 H1D     -0.810800
      2 C           4.3360   -2.0710    2.5180 c         1 H1D      0.901600
      3 O           5.3860   -1.6210    3.0520 o         1 H1D     -0.810800
      4 CA          3.2150   -1.0650    2.1490 c3        1 H1D      0.007500
      5 N           2.6260   -1.4830    0.8310 n4        1 H1D     -0.833600
      6 CB          2.1360   -0.9980    3.2350 c3        1 H1D     -0.081400
      7 CG          2.7160   -0.9630    4.6310 c3        1 H1D     -0.034300
      8 SD          2.1670   -2.4430    5.4410 ss        1 H1D     -0.259200
      9 C5          3.4480   -2.9650    6.5280 c3        1 H1D     -0.065300
     10 C4          4.5120   -3.9030    5.9720 c3        1 H1D      0.155100
     11 O4          4.1510   -4.6210    4.8160 oh        1 H1D     -0.621800
     12 C3          5.8290   -3.1190    5.6910 c3        1 H1D      0.049100
     13 O3          6.3800   -2.8280    6.9510 oh        1 H1D     -0.547800
     14 C2          6.8000   -4.0160    4.9260 c         1 H1D      0.509100
     15 O2          7.7490   -4.6460    5.3660 o         1 H1D     -0.421100
     16 N1          6.5450   -4.1360    3.4390 n4        1 H1D     -0.471300
     17 O1          7.4450   -4.8880    2.7720 oh        1 H1D     -0.368300
     18 HA          3.6800   -0.0430    2.0150 hx        1 H1D      0.121700
     19 HN1A        1.7000   -1.0740    0.6980 hn        1 H1D      0.461800
     20 HN2         3.2460   -1.1960    0.0710 hn        1 H1D      0.461800
     21 HB1         1.5140   -0.0770    3.0670 hc        1 H1D      0.074700
     22 HB2         1.4480   -1.8880    3.1480 hc        1 H1D      0.074700
     23 HG1         3.8290   -0.8660    4.6300 h1        1 H1D      0.096700
     24 HG2         2.3070   -0.0830    5.1900 h1        1 H1D      0.096700
     25 H51         2.8820   -3.5230    7.3240 h1        1 H1D      0.112200
     26 H52         3.9510   -2.0990    7.0270 h1        1 H1D      0.112200
     27 H4          4.7500   -4.6910    6.7500 h1        1 H1D      0.114700
     28 HO4         3.4780   -4.1150    4.3210 ho        1 H1D      0.453000
     29 H3          5.6330   -2.1830    5.0920 h1        1 H1D      0.117700
     30 HO3         7.1060   -2.2000    6.8250 ho        1 H1D      0.434000
     31 HN1         6.5770   -3.1730    3.0030 hn        1 H1D      0.519800
     32 HO1         7.7690   -5.6040    3.3660 ho        1 H1D      0.469000
     33 HN3         2.5580   -2.5150    0.8320 hn        1 H1D      0.461800
     34 H12         5.5670   -4.4990    3.2710 hn        1 H1D      0.519800
@<TRIPOS>BOND
     1    1    2 1   
     2    2    3 1   
     3    2    4 1   
     4    4    5 1   
     5    4    6 1   
     6    4   18 1   
     7    5   19 1   
     8    5   20 1   
     9    5   33 1   
    10    6    7 1   
    11    6   21 1   
    12    6   22 1   
    13    7    8 1   
    14    7   23 1   
    15    7   24 1   
    16    8    9 1   
    17    9   10 1   
    18    9   25 1   
    19    9   26 1   
    20   10   11 1   
    21   10   12 1   
    22   10   27 1   
    23   11   28 1   
    24   12   13 1   
    25   12   14 1   
    26   12   29 1   
    27   13   30 1   
    28   14   15 2   
    29   14   16 1   
    30   16   17 1   
    31   16   31 1   
    32   16   34 1   
    33   17   32 1   
@<TRIPOS>SUBSTRUCTURE
     1 H1D         1 TEMP              0 ****  ****    0 ROOT
