@<TRIPOS>MOLECULE
H1D
   34    33     1     0     0
SMALL
bcc


@<TRIPOS>ATOM
      1 OXT         4.8040   -2.8230    1.7610 o         1 H1D     -0.818800
      2 C           4.4200   -1.7740    2.3610 c         1 H1D      0.911600
      3 O           5.0950   -1.2000    3.2530 o         1 H1D     -0.818800
      4 CA          3.0150   -1.2050    2.0220 c3        1 H1D     -0.001500
      5 N           2.6170   -1.6630    0.6490 nz        1 H1D     -0.833600
      6 CB          2.0250   -1.6780    3.0940 c3        1 H1D     -0.086400
      7 CG          2.2870   -0.9860    4.4140 c3        1 H1D     -0.032300
      8 SD          2.3780   -2.1100    5.7780 ss        1 H1D     -0.247200
      9 C5          4.1120   -2.2450    6.1130 c3        1 H1D     -0.094300
     10 C4          4.5570   -3.6980    6.1950 c3        1 H1D      0.151100
     11 O4          4.1920   -4.4430    5.0440 oh        1 H1D     -0.638800
     12 C3          6.0980   -3.7830    6.3320 c3        1 H1D      0.098100
     13 O3          6.3300   -4.7350    7.3420 oh        1 H1D     -0.548800
     14 C2          6.8460   -4.2350    5.0710 c         1 H1D      0.519100
     15 O2          7.7200   -5.0810    5.0410 o         1 H1D     -0.380100
     16 N1          6.4590   -3.5210    3.7980 ny        1 H1D     -0.448300
     17 O1          7.2840   -3.8650    2.7840 oh        1 H1D     -0.370300
     18 HA          3.0620   -0.0780    2.0120 hx        1 H1D      0.120700
     19 HN1A        3.0450   -2.5940    0.4910 hn        1 H1D      0.461800
     20 HN2         1.6030   -1.7270    0.5620 hn        1 H1D      0.461800
     21 HB1         0.9710   -1.4620    2.7680 hc        1 H1D      0.069200
     22 HB2         2.1170   -2.7920    3.2190 hc        1 H1D      0.069200
     23 HG1         3.2160   -0.3600    4.3650 h1        1 H1D      0.108700
     24 HG2         1.4320   -0.3040    4.6610 h1        1 H1D      0.108700
     25 H51         4.7020   -1.6880    5.3410 h1        1 H1D      0.101200
     26 H52         4.3030   -1.7610    7.1060 h1        1 H1D      0.101200
     27 H4          4.1070   -4.1880    7.1110 h1        1 H1D      0.112700
     28 HO4         3.2220   -4.4550    5.0110 ho        1 H1D      0.453000
     29 H3          6.5190   -2.7760    6.6220 h1        1 H1D      0.090700
     30 HO3         7.2840   -4.7910    7.5050 ho        1 H1D      0.440000
     31 HN1         5.4670   -3.7760    3.5620 hn        1 H1D      0.495800
     32 HO1         6.8330   -3.6000    1.9420 ho        1 H1D      0.486000
     33 HN3         2.9850   -1.0150   -0.0500 hn        1 H1D      0.461800
     34 H12         6.4850   -2.4810    3.9310 hn        1 H1D      0.495800
@<TRIPOS>BOND
     1    1    2 1   
     2    2    3 1   
     3    2    4 1   
     4    4    5 1   
     5    4    6 1   
     6    4   18 1   
     7    5   19 1   
     8    5   20 1   
     9    5   33 1   
    10    6    7 1   
    11    6   21 1   
    12    6   22 1   
    13    7    8 1   
    14    7   23 1   
    15    7   24 1   
    16    8    9 1   
    17    9   10 1   
    18    9   25 1   
    19    9   26 1   
    20   10   11 1   
    21   10   12 1   
    22   10   27 1   
    23   11   28 1   
    24   12   13 1   
    25   12   14 1   
    26   12   29 1   
    27   13   30 1   
    28   14   15 2   
    29   14   16 1   
    30   16   17 1   
    31   16   31 1   
    32   16   34 1   
    33   17   32 1   
@<TRIPOS>SUBSTRUCTURE
     1 H1D         1 TEMP              0 ****  ****    0 ROOT
