@<TRIPOS>MOLECULE
H1I
   73    76     1     0     0
SMALL
bcc


@<TRIPOS>ATOM
      1 C1         -0.8110    4.1750    4.5660 ca        1 H1I     -0.108000
      2 C2         -0.1910    3.8850    3.3330 ca        1 H1I     -0.063000
      3 C3          0.3070    2.6210    3.0620 ca        1 H1I     -0.093000
      4 C4          0.1890    1.6210    4.0320 ca        1 H1I     -0.086100
      5 C5         -0.4430    1.9120    5.2960 ca        1 H1I      0.074400
      6 C6         -0.9450    3.2130    5.5470 ca        1 H1I     -0.055000
      7 N7         -0.5050    0.8350    6.1700 nc        1 H1I     -0.490100
      8 C8          0.0480   -0.2330    5.5720 cd        1 H1I      0.272100
      9 S9          0.6830    0.0170    3.9910 ss        1 H1I      0.173900
     10 N10         0.1120   -1.5430    6.2400 n4        1 H1I     -0.353100
     11 N11         1.0480   -1.6870    7.2660 n2        1 H1I     -0.567400
     12 C12         0.8630   -1.2240    8.4900 ce        1 H1I      0.494300
     13 C13        -0.3070   -0.4720    9.0290 c3        1 H1I     -0.202400
     14 C14         1.9440   -1.4850    9.4260 cc        1 H1I      0.147400
     15 C15         3.2220   -2.0100    9.2750 cd        1 H1I     -0.115300
     16 C16         3.8200   -2.0290   10.5830 cd        1 H1I     -0.228300
     17 C17         2.8760   -1.5170   11.4650 cc        1 H1I      0.332200
     18 O18         1.7070   -1.1670   10.7770 os        1 H1I     -0.352800
     19 C19         2.8930   -1.3100   12.8950 ca        1 H1I     -0.154500
     20 C20         3.9440   -1.8550   13.6580 ca        1 H1I      0.034000
     21 C21         3.9770   -1.6650   15.0420 ca        1 H1I     -0.142000
     22 C22         2.9740   -0.9480   15.6740 ca        1 H1I      0.030000
     23 C23         1.8960   -0.3920   14.9370 ca        1 H1I     -0.585500
     24 C24         1.8890   -0.5830   13.5340 ca        1 H1I      0.059000
     25 S25         0.7270    0.3700   15.6680 s4        1 H1I      1.664300
     26 O25        -0.4210    0.5670   14.9730 o         1 H1I     -0.422400
     27 O26         0.8180    0.4920   17.0170 o         1 H1I     -0.422400
     28 N26         1.5620    2.5140   15.2950 n         1 H1I     -0.740000
     29 C27         0.9930    3.1280   14.1070 c         1 H1I      0.628100
     30 O27         1.2990    2.6130   13.0280 o         1 H1I     -0.518100
     31 C28         0.0510    4.2850   14.2970 c3        1 H1I     -0.155400
     32 C29        -0.4470    4.8090   12.9650 c3        1 H1I     -0.075400
     33 C30        -1.4000    5.9680   13.1690 c3        1 H1I     -0.083400
     34 C31        -1.8970    6.4920   11.8380 c3        1 H1I     -0.074400
     35 C32        -2.8650    7.6440   12.0330 c3        1 H1I     -0.035100
     36 C33        -3.3370    8.1850   10.7290 ca        1 H1I     -0.091300
     37 C34        -4.6330    7.9160   10.2760 ca        1 H1I     -0.128000
     38 C35        -5.0770    8.4440    9.0640 ca        1 H1I     -0.126000
     39 C36        -4.2310    9.2420    8.2960 ca        1 H1I     -0.126000
     40 C37        -2.9380    9.5140    8.7430 ca        1 H1I     -0.126000
     41 C38        -2.4920    8.9880    9.9540 ca        1 H1I     -0.128000
     42 H1         -1.1990    5.1940    4.7410 ha        1 H1I      0.168000
     43 H2         -0.1050    4.6820    2.5730 ha        1 H1I      0.170000
     44 H6         -1.4340    3.4390    6.5070 ha        1 H1I      0.165000
     45 H3          0.7880    2.4040    2.0940 ha        1 H1I      0.167000
     46 H10        -0.8500   -1.7940    6.5420 hn        1 H1I      0.472800
     47 H131       -0.4730   -0.7300   10.1060 hc        1 H1I      0.096033
     48 H132       -1.2550   -0.6760    8.4720 hc        1 H1I      0.096033
     49 H133       -0.0910    0.6290    8.9630 hc        1 H1I      0.096033
     50 H15         3.6940   -2.3460    8.3500 ha        1 H1I      0.200000
     51 H16         4.8260   -2.3800   10.8120 ha        1 H1I      0.192000
     52 H20         4.7440   -2.4350   13.1620 ha        1 H1I      0.179000
     53 H24         1.0720   -0.1360   12.9300 ha        1 H1I      0.186000
     54 H21         4.8050   -2.0950   15.6350 ha        1 H1I      0.192000
     55 H22         3.0050   -0.8150   16.7740 ha        1 H1I      0.184000
     56 H26         2.5550    2.3770   15.1870 hn        1 H1I      0.310500
     57 H281        0.5820    5.1050   14.8550 hc        1 H1I      0.095200
     58 H282       -0.8200    3.9510   14.9250 hc        1 H1I      0.095200
     59 H291       -0.9630    3.9830   12.4070 hc        1 H1I      0.060200
     60 H292        0.4250    5.1360   12.3400 hc        1 H1I      0.060200
     61 H301       -0.8830    6.7920   13.7280 hc        1 H1I      0.050700
     62 H302       -2.2720    5.6380   13.7930 hc        1 H1I      0.050700
     63 H311       -1.0280    6.8360   11.2170 hc        1 H1I      0.044700
     64 H312       -2.4050    5.6660   11.2730 hc        1 H1I      0.044700
     65 H321       -2.3580    8.4620   12.6130 hc        1 H1I      0.053700
     66 H322       -3.7400    7.2960   12.6450 hc        1 H1I      0.053700
     67 H34        -5.3100    7.2970   10.8840 ha        1 H1I      0.130000
     68 H38        -1.4760    9.2140   10.3110 ha        1 H1I      0.130000
     69 H35        -6.1020    8.2370    8.7190 ha        1 H1I      0.137000
     70 H36        -4.5860    9.6670    7.3450 ha        1 H1I      0.139000
     71 H37        -2.2720   10.1540    8.1450 ha        1 H1I      0.137000
     72 H102        0.4300   -2.2340    5.5310 hn        1 H1I      0.472800
     73 H262        1.3850    3.0630   16.1210 hn        1 H1I      0.310500
@<TRIPOS>BOND
     1    1    2 ar  
     2    1    6 ar  
     3    1   42 1   
     4    2    3 ar  
     5    2   43 1   
     6    3    4 ar  
     7    3   45 1   
     8    4    5 ar  
     9    4    9 1   
    10    5    6 ar  
    11    5    7 1   
    12    6   44 1   
    13    7    8 2   
    14    8    9 1   
    15    8   10 1   
    16   10   11 1   
    17   10   46 1   
    18   10   72 1   
    19   11   12 2   
    20   12   13 1   
    21   12   14 1   
    22   13   47 1   
    23   13   48 1   
    24   13   49 1   
    25   14   15 2   
    26   14   18 1   
    27   15   16 1   
    28   15   50 1   
    29   16   17 2   
    30   16   51 1   
    31   17   18 1   
    32   17   19 1   
    33   19   20 ar  
    34   19   24 ar  
    35   20   21 ar  
    36   20   52 1   
    37   21   22 ar  
    38   21   54 1   
    39   22   23 ar  
    40   22   55 1   
    41   23   24 ar  
    42   23   25 1   
    43   24   53 1   
    44   25   26 1   
    45   25   27 1   
    46   28   29 1   
    47   28   56 1   
    48   28   73 1   
    49   29   30 2   
    50   29   31 1   
    51   31   32 1   
    52   31   57 1   
    53   31   58 1   
    54   32   33 1   
    55   32   59 1   
    56   32   60 1   
    57   33   34 1   
    58   33   61 1   
    59   33   62 1   
    60   34   35 1   
    61   34   63 1   
    62   34   64 1   
    63   35   36 1   
    64   35   65 1   
    65   35   66 1   
    66   36   37 ar  
    67   36   41 ar  
    68   37   38 ar  
    69   37   67 1   
    70   38   39 ar  
    71   38   69 1   
    72   39   40 ar  
    73   39   70 1   
    74   40   41 ar  
    75   40   71 1   
    76   41   68 1   
@<TRIPOS>SUBSTRUCTURE
     1 H1I         1 TEMP              0 ****  ****    0 ROOT
