@<TRIPOS>MOLECULE
H1I
   71    60     1     0     0
SMALL
bcc


@<TRIPOS>ATOM
      1 C1          3.7700   -3.6290   -9.5030 c1        1 H1I     -0.113167
      2 C2          4.8500   -2.8180   -9.0970 c1        1 H1I     -0.113167
      3 C3          4.6210   -1.7010   -8.2890 c1        1 H1I     -0.113167
      4 C4          3.3300   -1.3890   -7.8850 c1        1 H1I     -0.189500
      5 C5          2.2390   -2.2090   -8.2960 c1        1 H1I     -0.189500
      6 C6          2.4680   -3.3170   -9.0980 c1        1 H1I     -0.113167
      7 N7          0.9050   -1.6070   -7.6850 n1        1 H1I     -0.151000
      8 C8          1.2390   -0.4480   -6.9290 c1        1 H1I     -0.119000
      9 S9          2.7630   -0.2520   -7.0130 s         1 H1I      0.489000
     10 N10         0.1350    0.2040   -6.3200 n2        1 H1I     -0.171000
     11 N11         0.3430    1.0860   -5.2750 n2        1 H1I     -0.069000
     12 C12        -0.6760    1.5590   -4.6050 c1        1 H1I     -0.021000
     13 C13        -2.0840    1.1400   -4.9730 c2        1 H1I     -0.216000
     14 C14        -0.4470    2.5250   -3.4600 c2        1 H1I      0.004000
     15 C15        -0.4100    3.9020   -3.5550 c1        1 H1I     -0.144000
     16 C16        -0.1910    4.4060   -2.3030 c1        1 H1I     -0.177000
     17 C17        -0.0930    3.3430   -1.4280 c1        1 H1I      0.002000
     18 O18        -0.2520    2.1860   -2.1460 os        1 H1I     -0.100000
     19 C19         0.1820    3.4380    0.0580 c1        1 H1I     -0.041000
     20 C20         1.4880    3.4770    0.5190 c2        1 H1I     -0.050000
     21 C21         1.7410    3.6290    1.8740 c1        1 H1I     -0.155000
     22 C22         0.6870    3.7410    2.7670 c1        1 H1I     -0.013000
     23 C23        -0.6200    3.7020    2.3060 c1        1 H1I     -0.835000
     24 C24        -0.8730    3.5500    0.9510 c1        1 H1I      0.003000
     25 S25        -1.9700    3.8100    3.4530 s4        1 H1I      2.076800
     26 O25        -1.9010    5.0200    4.2260 o         1 H1I     -0.522400
     27 O26        -3.2220    3.9860    2.7700 o         1 H1I     -0.522400
     28 N26        -2.0000    2.4840    4.4230 n2        1 H1I     -0.861000
     29 C27        -3.2410    1.9530    4.8590 c2        1 H1I      0.327000
     30 O27        -4.2350    2.6510    4.8550 o         1 H1I     -0.320000
     31 C28        -3.3130    0.5400    5.3900 c3        1 H1I     -0.183000
     32 C29        -3.4480   -0.4270    4.2360 c3        1 H1I     -0.155000
     33 C30        -3.1280   -1.8260    4.7100 c3        1 H1I     -0.160000
     34 C31        -1.7340   -2.2030    4.2620 c3        1 H1I     -0.157000
     35 C32        -1.2710   -3.4200    5.0290 c3        1 H1I     -0.123000
     36 C33         0.2380   -3.4240    5.1040 c2        1 H1I     -0.073000
     37 C34         0.9760   -4.1090    4.1510 c2        1 H1I     -0.127000
     38 C35         2.3560   -4.1790    4.2620 c1        1 H1I     -0.128000
     39 C36         2.9970   -3.5650    5.3260 c1        1 H1I     -0.113167
     40 C37         2.2590   -2.8810    6.2790 c1        1 H1I     -0.113167
     41 C38         0.8800   -2.8100    6.1680 c1        1 H1I     -0.129000
     42 H1          3.9310   -4.4090  -10.0680 ha        1 H1I      0.137500
     43 H2          5.7580   -3.0370   -9.3800 ha        1 H1I      0.137500
     44 H6          1.7210   -3.8790   -9.3800 ha        1 H1I      0.137500
     45 H3          5.3690   -1.1410   -8.0080 ha        1 H1I      0.137500
     46 H10        -0.7080    0.0700   -6.6410 hn        1 H1I      0.210000
     47 H131       -2.3270    1.5340   -5.8370 ha        1 H1I      0.104333
     48 H132       -2.7090    1.4520   -4.2850 ha        1 H1I      0.104333
     49 H133       -2.1290    0.1630   -5.0360 ha        1 H1I      0.104333
     50 H15        -0.5200    4.4240   -4.3730 DU        1 H1I      0.170500
     51 H16        -0.1180    5.3510   -2.0700 DU        1 H1I      0.170500
     52 H20         2.2310    3.3980   -0.1100 ha        1 H1I      0.144000
     53 H24        -1.7930    3.5220    0.6260 ha        1 H1I      0.170000
     54 H21         2.6620    3.6570    2.1990 ha        1 H1I      0.148000
     55 H22         0.8640    3.8480    3.7210 ha        1 H1I      0.161000
     56 H26        -1.2190    2.1080    4.7060 hn        1 H1I      0.245000
     57 H281       -4.0870    0.4520    5.9810 hc        1 H1I      0.117500
     58 H282       -2.4970    0.3370    5.8910 hc        1 H1I      0.117500
     59 H291       -2.8270   -0.1740    3.5250 hc        1 H1I      0.088000
     60 H292       -4.3640   -0.4000    3.8940 hc        1 H1I      0.088000
     61 H301       -3.7740   -2.4540    4.3310 hc        1 H1I      0.087000
     62 H302       -3.1770   -1.8580    5.6870 hc        1 H1I      0.087000
     63 H311       -1.1230   -1.4580    4.4340 hc        1 H1I      0.082500
     64 H312       -1.7420   -2.4040    3.3050 hc        1 H1I      0.082500
     65 H321       -1.5760   -4.2290    4.5730 hc        1 H1I      0.089000
     66 H322       -1.6420   -3.3960    5.9330 hc        1 H1I      0.089000
     67 H34         0.5240   -4.5420    3.4010 ha        1 H1I      0.131000
     68 H38         0.3600   -2.3280    6.8390 ha        1 H1I      0.130000
     69 H35         2.8760   -4.6610    3.5910 ha        1 H1I      0.131000
     70 H36         3.9690   -3.6150    5.4050 ha        1 H1I      0.137500
     71 H37         2.7110   -2.4480    7.0280 ha        1 H1I      0.137500
@<TRIPOS>BOND
     1    1    6 1   
     2    1   42 1   
     3    2    3 1   
     4    2   43 1   
     5    3   45 1   
     6    4    5 1   
     7    6   44 1   
     8    7    8 1   
     9    8    9 1   
    10   10   11 1   
    11   10   46 1   
    12   11   12 1   
    13   12   14 1   
    14   13   47 1   
    15   13   48 1   
    16   13   49 1   
    17   14   15 1   
    18   14   18 1   
    19   15   16 1   
    20   16   17 1   
    21   17   18 1   
    22   19   20 1   
    23   19   24 1   
    24   20   21 1   
    25   20   52 1   
    26   21   54 1   
    27   22   23 1   
    28   22   55 1   
    29   23   25 1   
    30   24   53 1   
    31   25   26 1   
    32   25   27 1   
    33   28   29 1   
    34   28   56 1   
    35   29   30 1   
    36   29   31 1   
    37   31   32 1   
    38   31   57 1   
    39   31   58 1   
    40   32   33 1   
    41   32   59 1   
    42   32   60 1   
    43   33   34 1   
    44   33   61 1   
    45   33   62 1   
    46   34   35 1   
    47   34   63 1   
    48   34   64 1   
    49   35   36 1   
    50   35   65 1   
    51   35   66 1   
    52   36   37 1   
    53   36   41 1   
    54   37   38 1   
    55   37   67 1   
    56   38   69 1   
    57   39   40 1   
    58   39   70 1   
    59   40   71 1   
    60   41   68 1   
@<TRIPOS>SUBSTRUCTURE
     1 H1I         1 TEMP              0 ****  ****    0 ROOT
