@<TRIPOS>MOLECULE
H1I
   71    75     1     0     0
SMALL
bcc


@<TRIPOS>ATOM
      1 C1         -9.2890   -2.5750   -0.2290 ca        1 H1I     -0.126000
      2 C2         -9.7300   -1.5130    0.5790 ca        1 H1I     -0.129000
      3 C3         -8.9360   -0.3950    0.7780 ca        1 H1I     -0.084000
      4 C4         -7.6830   -0.3270    0.1660 ca        1 H1I     -0.120100
      5 C5         -7.2260   -1.4100   -0.6590 ca        1 H1I      0.107400
      6 C6         -8.0520   -2.5380   -0.8490 ca        1 H1I     -0.084000
      7 N7         -5.9510   -1.2360   -1.2060 nc        1 H1I     -0.581100
      8 C8         -5.4710   -0.0450   -0.8240 cd        1 H1I      0.548100
      9 S9         -6.5170    0.8900    0.2240 ss        1 H1I      0.035900
     10 N10        -4.2560    0.5080   -1.3010 nh        1 H1I     -0.440300
     11 N11        -3.5730    1.2540   -0.4220 n2        1 H1I     -0.448400
     12 C12        -2.2980    1.5320   -0.6070 ce        1 H1I      0.319300
     13 C13        -1.4230    1.0060   -1.7010 c3        1 H1I     -0.175400
     14 C14        -1.6910    2.4520    0.3450 cc        1 H1I      0.226400
     15 C15        -2.1780    3.1400    1.4450 cd        1 H1I     -0.210300
     16 C16        -1.0770    3.8950    1.9840 cd        1 H1I     -0.248300
     17 C17         0.0260    3.6290    1.1850 cc        1 H1I      0.309200
     18 O18        -0.3300    2.7370    0.1620 os        1 H1I     -0.349800
     19 C19         1.3970    4.0730    1.2100 ca        1 H1I     -0.151500
     20 C20         1.8300    4.9440    2.2220 ca        1 H1I     -0.047000
     21 C21         3.1550    5.3770    2.2510 ca        1 H1I     -0.160000
     22 C22         4.0510    4.9480    1.2770 ca        1 H1I     -0.013000
     23 C23         3.6390    4.0790    0.2560 ca        1 H1I     -0.394500
     24 C24         2.3100    3.6470    0.2340 ca        1 H1I      0.023000
     25 S25         4.7180    3.6240   -0.9470 sy        1 H1I      1.511900
     26 O25         4.0850    3.6260   -2.1950 o         1 H1I     -0.639800
     27 O26         5.8900    4.4060   -0.8320 o         1 H1I     -0.639800
     28 N26         5.1690    2.0920   -0.5110 n         1 H1I     -0.679300
     29 C27         4.4200    0.9120   -0.5440 c         1 H1I      0.691100
     30 O27         3.2150    0.9570   -0.8400 o         1 H1I     -0.576100
     31 C28         5.1410   -0.3770   -0.2060 c3        1 H1I     -0.150400
     32 C29         4.2040   -1.5630   -0.2880 c3        1 H1I     -0.076400
     33 C30         4.9300   -2.8460    0.0520 c3        1 H1I     -0.080400
     34 C31         3.9970   -4.0350   -0.0330 c3        1 H1I     -0.076400
     35 C32         4.7230   -5.3220    0.3110 c3        1 H1I     -0.036100
     36 C33         3.8120   -6.4980    0.2600 ca        1 H1I     -0.079300
     37 C34         3.9040   -7.4250   -0.7840 ca        1 H1I     -0.127500
     38 C35         3.0540   -8.5290   -0.8220 ca        1 H1I     -0.127500
     39 C36         2.1040   -8.7170    0.1820 ca        1 H1I     -0.131000
     40 C37         2.0070   -7.7960    1.2260 ca        1 H1I     -0.127500
     41 C38         2.8570   -6.6930    1.2650 ca        1 H1I     -0.127500
     42 H1         -9.9430   -3.4490   -0.3700 ha        1 H1I      0.135000
     43 H2        -10.7200   -1.5740    1.0560 ha        1 H1I      0.135000
     44 H6         -7.7070   -3.3690   -1.4820 ha        1 H1I      0.150000
     45 H3         -9.2860    0.4340    1.4110 ha        1 H1I      0.138000
     46 H10        -3.7260   -0.1320   -1.8830 hn        1 H1I      0.413800
     47 H131       -1.7670    1.4010   -2.6900 hc        1 H1I      0.066700
     48 H132       -0.3570    1.3130   -1.5540 hc        1 H1I      0.066700
     49 H133       -1.4570   -0.1120   -1.7300 hc        1 H1I      0.066700
     50 H15        -3.1940    3.1200    1.8320 ha        1 H1I      0.176000
     51 H16        -1.1190    4.5470    2.8530 ha        1 H1I      0.162000
     52 H20         1.1210    5.2840    2.9930 ha        1 H1I      0.142000
     53 H24         1.9720    2.9550   -0.5640 ha        1 H1I      0.185000
     54 H21         3.4900    6.0620    3.0440 ha        1 H1I      0.145000
     55 H22         5.0980    5.3050    1.2940 ha        1 H1I      0.161000
     56 H26         6.1110    1.9630   -0.2090 hn        1 H1I      0.334500
     57 H281        5.9960   -0.5150   -0.9210 hc        1 H1I      0.070200
     58 H282        5.5670   -0.2970    0.8290 hc        1 H1I      0.070200
     59 H291        3.3430   -1.4090    0.4140 hc        1 H1I      0.061700
     60 H292        3.7720   -1.6270   -1.3220 hc        1 H1I      0.061700
     61 H301        5.7910   -2.9930   -0.6520 hc        1 H1I      0.039200
     62 H302        5.3570   -2.7760    1.0880 hc        1 H1I      0.039200
     63 H311        3.1350   -3.8920    0.6700 hc        1 H1I      0.048200
     64 H312        3.5720   -4.1080   -1.0690 hc        1 H1I      0.048200
     65 H321        5.5790   -5.4670   -0.4010 hc        1 H1I      0.047200
     66 H322        5.1600   -5.2380    1.3430 hc        1 H1I      0.047200
     67 H34         4.6520   -7.2830   -1.5790 ha        1 H1I      0.130000
     68 H38         2.7800   -5.9680    2.0890 ha        1 H1I      0.130000
     69 H35         3.1330   -9.2530   -1.6470 ha        1 H1I      0.131000
     70 H36         1.4340   -9.5880    0.1510 ha        1 H1I      0.131000
     71 H37         1.2600   -7.9420    2.0190 ha        1 H1I      0.131000
@<TRIPOS>BOND
     1    1    2 ar  
     2    1    6 ar  
     3    1   42 1   
     4    2    3 ar  
     5    2   43 1   
     6    3    4 ar  
     7    3   45 1   
     8    4    5 ar  
     9    4    9 1   
    10    5    6 ar  
    11    5    7 1   
    12    6   44 1   
    13    7    8 2   
    14    8    9 1   
    15    8   10 1   
    16   10   11 1   
    17   10   46 1   
    18   11   12 2   
    19   12   13 1   
    20   12   14 1   
    21   13   47 1   
    22   13   48 1   
    23   13   49 1   
    24   14   15 2   
    25   14   18 1   
    26   15   16 1   
    27   15   50 1   
    28   16   17 2   
    29   16   51 1   
    30   17   18 1   
    31   17   19 1   
    32   19   20 ar  
    33   19   24 ar  
    34   20   21 ar  
    35   20   52 1   
    36   21   22 ar  
    37   21   54 1   
    38   22   23 ar  
    39   22   55 1   
    40   23   24 ar  
    41   23   25 1   
    42   24   53 1   
    43   25   26 2   
    44   25   27 2   
    45   25   28 1   
    46   28   29 1   
    47   28   56 1   
    48   29   30 2   
    49   29   31 1   
    50   31   32 1   
    51   31   57 1   
    52   31   58 1   
    53   32   33 1   
    54   32   59 1   
    55   32   60 1   
    56   33   34 1   
    57   33   61 1   
    58   33   62 1   
    59   34   35 1   
    60   34   63 1   
    61   34   64 1   
    62   35   36 1   
    63   35   65 1   
    64   35   66 1   
    65   36   37 ar  
    66   36   41 ar  
    67   37   38 ar  
    68   37   67 1   
    69   38   39 ar  
    70   38   69 1   
    71   39   40 ar  
    72   39   70 1   
    73   40   41 ar  
    74   40   71 1   
    75   41   68 1   
@<TRIPOS>SUBSTRUCTURE
     1 H1I         1 TEMP              0 ****  ****    0 ROOT
