@<TRIPOS>MOLECULE
H1I
   72    75     1     0     0
SMALL
bcc


@<TRIPOS>ATOM
      1 C1         -0.1900   -0.9000    0.3350 ca        1 H1I     -0.122000
      2 C2          1.2100   -0.9670    0.2230 ca        1 H1I     -0.114000
      3 C3          2.0250   -0.6740    1.3050 ca        1 H1I     -0.087000
      4 C4          1.4410   -0.3080    2.5210 ca        1 H1I     -0.110100
      5 C5          0.0120   -0.2420    2.6400 ca        1 H1I      0.097400
      6 C6         -0.7990   -0.5420    1.5250 ca        1 H1I     -0.076000
      7 N7         -0.4540    0.1210    3.9080 nc        1 H1I     -0.557100
      8 C8          0.5960    0.3430    4.7080 cd        1 H1I      0.518100
      9 S9          2.1660    0.1030    3.9870 ss        1 H1I      0.048900
     10 N10         0.4820    0.8390    6.0390 nu        1 H1I     -0.435300
     11 N11         1.2400    0.2430    6.9540 n2        1 H1I     -0.398400
     12 C12         0.9900    0.3630    8.2450 ce        1 H1I      0.258300
     13 C13        -0.1860    1.0450    8.8630 c3        1 H1I     -0.163400
     14 C14         1.9780   -0.2230    9.1400 cc        1 H1I      0.295400
     15 C15         3.1800   -0.8840    8.9190 cd        1 H1I     -0.233300
     16 C16         3.7080   -1.2330   10.2090 cd        1 H1I     -0.172300
     17 C17         2.8030   -0.7680   11.1550 cc        1 H1I      0.220200
     18 O18         1.7200   -0.1360   10.5130 os        1 H1I     -0.366800
     19 C19         2.7680   -0.8090   12.5900 ca        1 H1I     -0.096500
     20 C20         3.8030   -1.4410   13.3050 ca        1 H1I      0.014000
     21 C21         3.7680   -1.4870   14.7020 ca        1 H1I     -0.139000
     22 C22         2.7180   -0.9100   15.3960 ca        1 H1I      0.002000
     23 C23         1.6570   -0.2620   14.7110 ca        1 H1I     -0.591500
     24 C24         1.7120   -0.2260   13.2970 ca        1 H1I      0.032000
     25 S25         0.4540    0.3560   15.4930 s4        1 H1I      1.667300
     26 O25        -0.6260    0.7850   14.7890 o         1 H1I     -0.436400
     27 O26         0.4090    0.1580   16.8390 o         1 H1I     -0.436400
     28 N26         1.3750    2.4880   15.7490 nt        1 H1I     -0.736000
     29 C27         0.9350    3.4380   14.7430 c         1 H1I      0.609100
     30 O27         1.6600    3.5840   13.7570 o         1 H1I     -0.486100
     31 C28        -0.4000    4.0990   14.9600 c3        1 H1I     -0.154400
     32 C29        -0.6100    5.2360   13.9780 c3        1 H1I     -0.077400
     33 C30        -1.9740    5.8620   14.1740 c3        1 H1I     -0.081400
     34 C31        -2.1930    6.9900   13.1890 c3        1 H1I     -0.076400
     35 C32        -3.5580    7.6240   13.3840 c3        1 H1I     -0.033100
     36 C33        -3.7800    8.7460   12.4310 ca        1 H1I     -0.089300
     37 C34        -4.6510    8.5950   11.3470 ca        1 H1I     -0.127000
     38 C35        -4.8620    9.6540   10.4640 ca        1 H1I     -0.125000
     39 C36        -4.2070   10.8690   10.6570 ca        1 H1I     -0.125000
     40 C37        -3.3390   11.0260   11.7390 ca        1 H1I     -0.125000
     41 C38        -3.1270    9.9700   12.6220 ca        1 H1I     -0.127000
     42 H1         -0.8090   -1.1370   -0.5450 ha        1 H1I      0.143000
     43 H2          1.6610   -1.2540   -0.7400 ha        1 H1I      0.143000
     44 H6         -1.8940   -0.4890    1.6110 ha        1 H1I      0.155000
     45 H3          3.1200   -0.7270    1.2120 ha        1 H1I      0.143000
     46 H10        -0.4680    1.0880    6.2940 hn        1 H1I      0.420800
     47 H131       -0.2010    0.9050    9.9700 hc        1 H1I      0.060700
     48 H132       -1.1430    0.6340    8.4500 hc        1 H1I      0.060700
     49 H133       -0.1500    2.1440    8.6500 hc        1 H1I      0.060700
     50 H15         3.6380   -1.0990    7.9540 ha        1 H1I      0.194000
     51 H16         4.6420   -1.7610   10.3890 ha        1 H1I      0.170000
     52 H20         4.6430   -1.9040   12.7580 ha        1 H1I      0.175000
     53 H24         0.8990    0.2710   12.7300 ha        1 H1I      0.186000
     54 H21         4.5820   -1.9900   15.2530 ha        1 H1I      0.179000
     55 H22         2.6950   -0.9620   16.5010 ha        1 H1I      0.171000
     56 H26         2.3750    2.3620   15.7110 hn        1 H1I      0.306000
     57 H281       -1.2000    3.3180   14.8190 hc        1 H1I      0.089700
     58 H282       -0.4740    4.4880   16.0110 hc        1 H1I      0.089700
     59 H291       -0.5110    4.8490   12.9290 hc        1 H1I      0.065200
     60 H292        0.1900    6.0090   14.1200 hc        1 H1I      0.065200
     61 H301       -2.7710    5.0840   14.0390 hc        1 H1I      0.044700
     62 H302       -2.0650    6.2530   15.2220 hc        1 H1I      0.044700
     63 H311       -1.3970    7.7700   13.3210 hc        1 H1I      0.050200
     64 H312       -2.1060    6.6000   12.1410 hc        1 H1I      0.050200
     65 H321       -3.6430    8.0080   14.4370 hc        1 H1I      0.048200
     66 H322       -4.3540    6.8430   13.2510 hc        1 H1I      0.048200
     67 H34        -5.1740    7.6410   11.1910 ha        1 H1I      0.128500
     68 H38        -2.4450   10.0960   13.4770 ha        1 H1I      0.128500
     69 H35        -5.5500    9.5290    9.6140 ha        1 H1I      0.135000
     70 H36        -4.3770   11.7040    9.9610 ha        1 H1I      0.137000
     71 H37        -2.8240   11.9850   11.8960 ha        1 H1I      0.135000
     72 H262        1.1030    2.7790   16.6740 hn        1 H1I      0.306000
@<TRIPOS>BOND
     1    1    2 ar  
     2    1    6 ar  
     3    1   42 1   
     4    2    3 ar  
     5    2   43 1   
     6    3    4 ar  
     7    3   45 1   
     8    4    5 ar  
     9    4    9 1   
    10    5    6 ar  
    11    5    7 1   
    12    6   44 1   
    13    7    8 2   
    14    8    9 1   
    15    8   10 1   
    16   10   11 1   
    17   10   46 1   
    18   11   12 2   
    19   12   13 1   
    20   12   14 1   
    21   13   47 1   
    22   13   48 1   
    23   13   49 1   
    24   14   15 2   
    25   14   18 1   
    26   15   16 1   
    27   15   50 1   
    28   16   17 2   
    29   16   51 1   
    30   17   18 1   
    31   17   19 1   
    32   19   20 ar  
    33   19   24 ar  
    34   20   21 ar  
    35   20   52 1   
    36   21   22 ar  
    37   21   54 1   
    38   22   23 ar  
    39   22   55 1   
    40   23   24 ar  
    41   23   25 1   
    42   24   53 1   
    43   25   26 1   
    44   25   27 1   
    45   28   29 1   
    46   28   56 1   
    47   28   72 1   
    48   29   30 2   
    49   29   31 1   
    50   31   32 1   
    51   31   57 1   
    52   31   58 1   
    53   32   33 1   
    54   32   59 1   
    55   32   60 1   
    56   33   34 1   
    57   33   61 1   
    58   33   62 1   
    59   34   35 1   
    60   34   63 1   
    61   34   64 1   
    62   35   36 1   
    63   35   65 1   
    64   35   66 1   
    65   36   37 ar  
    66   36   41 ar  
    67   37   38 ar  
    68   37   67 1   
    69   38   39 ar  
    70   38   69 1   
    71   39   40 ar  
    72   39   70 1   
    73   40   41 ar  
    74   40   71 1   
    75   41   68 1   
@<TRIPOS>SUBSTRUCTURE
     1 H1I         1 TEMP              0 ****  ****    0 ROOT
