@<TRIPOS>MOLECULE
H1K
   36    37     1     0     0
SMALL
bcc


@<TRIPOS>ATOM
      1 O1         -1.2440   -1.2670    0.5170 o         1 H1K     -0.309100
      2 C4         -0.2800   -0.6580    0.0870 c         1 H1K      0.505100
      3 N2          1.1110   -1.1060    0.4300 n4        1 H1K     -0.612500
      4 C5          1.6390   -0.3450    1.5850 ca        1 H1K      0.272900
      5 C8          2.4110   -0.9940    2.5830 ca        1 H1K      0.394900
      6 N4          2.9080   -0.2830    3.6260 nb        1 H1K     -0.566000
      7 C7          2.6370    1.0250    3.6790 ca        1 H1K      0.389900
      8 C6          1.8430    1.6740    2.6650 ca        1 H1K      0.350900
      9 N3          1.3470    0.9980    1.6290 nb        1 H1K     -0.683000
     10 N1         -0.4250    0.5360   -0.8100 n4        1 H1K     -0.446200
     11 C3         -0.3430    0.1460   -2.2090 ca        1 H1K     -0.216400
     12 C2         -1.5330   -0.0880   -2.9430 ca        1 H1K     -0.042000
     13 C9          0.9140    0.0560   -2.8650 ca        1 H1K      0.215100
     14 O2          2.0180    0.2220   -2.0580 os        1 H1K     -0.420900
     15 C10         3.2780    0.4490   -2.7170 c3        1 H1K      0.117700
     16 C11         0.9740   -0.2130   -4.2280 ca        1 H1K     -0.278000
     17 C12        -0.2110   -0.4190   -4.9600 ca        1 H1K      0.277100
     18 C1         -1.4830   -0.3670   -4.2960 ca        1 H1K     -0.023600
     19 CL         -2.9200   -0.6300   -5.1310 cl        1 H1K      0.048600
     20 O3         -0.2440   -0.6800   -6.2820 os        1 H1K     -0.255900
     21 C13         0.9950   -0.7200   -7.0080 c3        1 H1K      0.098700
     22 H3          1.0680   -2.1080    0.6930 hn        1 H1K      0.507800
     23 H6          2.6520   -2.0760    2.5770 h4        1 H1K      0.081100
     24 H5          3.0450    1.5970    4.5420 h4        1 H1K      0.106100
     25 H4          1.6160    2.7600    2.7200 h4        1 H1K      0.092100
     26 H2          0.3060    1.2440   -0.6100 hn        1 H1K      0.510800
     27 H1         -2.5190   -0.0400   -2.4420 ha        1 H1K      0.183000
     28 H9          3.6100   -0.4900   -3.2220 h1        1 H1K      0.082033
     29 H7          3.9590    0.7190   -1.8700 h1        1 H1K      0.082033
     30 H8          3.1880    1.2940   -3.4420 h1        1 H1K      0.082033
     31 H10         1.9490   -0.2640   -4.7400 ha        1 H1K      0.190000
     32 H12         1.5090    0.2690   -6.9500 h1        1 H1K      0.082700
     33 H11         1.6390   -1.5470   -6.6250 h1        1 H1K      0.082700
     34 H13         0.6470   -0.9330   -8.0550 h1        1 H1K      0.082700
     35 H22         1.7530   -0.9870   -0.3790 hn        1 H1K      0.507800
     36 H121       -1.3610    0.9450   -0.6210 hn        1 H1K      0.510800
@<TRIPOS>BOND
     1    1    2 2   
     2    2    3 1   
     3    2   10 1   
     4    3    4 1   
     5    3   22 1   
     6    3   35 1   
     7    4    5 ar  
     8    4    9 ar  
     9    5    6 ar  
    10    5   23 1   
    11    6    7 ar  
    12    7    8 ar  
    13    7   24 1   
    14    8    9 ar  
    15    8   25 1   
    16   10   11 1   
    17   10   26 1   
    18   10   36 1   
    19   11   12 ar  
    20   11   13 ar  
    21   12   18 ar  
    22   12   27 1   
    23   13   14 1   
    24   13   16 ar  
    25   14   15 1   
    26   15   28 1   
    27   15   29 1   
    28   15   30 1   
    29   16   17 ar  
    30   16   31 1   
    31   17   18 ar  
    32   17   20 1   
    33   18   19 1   
    34   20   21 1   
    35   21   32 1   
    36   21   33 1   
    37   21   34 1   
@<TRIPOS>SUBSTRUCTURE
     1 H1K         1 TEMP              0 ****  ****    0 ROOT
