@<TRIPOS>MOLECULE
H1K
   34    35     1     0     0
SMALL
bcc


@<TRIPOS>ATOM
      1 O1          1.4050   -0.7560   -0.6130 o         1 H1K     -0.605100
      2 C4          1.4210    0.1920    0.2010 c         1 H1K      0.755100
      3 N2          2.6220    0.8870    0.5010 n         1 H1K     -0.528400
      4 C5          3.8830    0.3380    0.1810 ca        1 H1K      0.402900
      5 C8          4.1100   -0.3560   -1.0600 ca        1 H1K      0.296900
      6 N4          5.3260   -0.8050   -1.4080 nb        1 H1K     -0.615000
      7 C7          6.3370   -0.5820   -0.5440 ca        1 H1K      0.256900
      8 C6          6.1250    0.0920    0.6840 ca        1 H1K      0.305900
      9 N3          4.9190    0.5490    1.0580 nb        1 H1K     -0.683000
     10 N1          0.2530    0.6070    0.8830 n         1 H1K     -0.425100
     11 C3         -1.0260    0.3060    0.3580 ca        1 H1K     -0.011400
     12 C2         -1.3530   -0.9930   -0.0690 ca        1 H1K     -0.061000
     13 C9         -2.0470    1.3000    0.3150 ca        1 H1K      0.127100
     14 O2         -1.6710    2.5650    0.7300 os        1 H1K     -0.344900
     15 C10        -2.6970    3.5500    0.7930 c3        1 H1K      0.118700
     16 C11        -3.3370    0.9880   -0.1160 ca        1 H1K     -0.258000
     17 C12        -3.6370   -0.3140   -0.5330 ca        1 H1K      0.157100
     18 C1         -2.6380   -1.3080   -0.5120 ca        1 H1K     -0.028600
     19 CL         -2.9490   -2.9010   -1.0120 cl        1 H1K     -0.063400
     20 O3         -4.8860   -0.7010   -0.9720 os        1 H1K     -0.307900
     21 C13        -5.8800    0.3150   -1.0480 c3        1 H1K      0.112700
     22 H3          2.6160    1.4820    1.3060 hn        1 H1K      0.321500
     23 H6          3.2820   -0.5590   -1.7660 h4        1 H1K      0.070100
     24 H5          7.3340   -0.9480   -0.8370 h4        1 H1K      0.036100
     25 H4          6.9500    0.2680    1.3950 h4        1 H1K      0.033100
     26 H2          0.2870    1.4940    1.3470 hn        1 H1K      0.316500
     27 H1         -0.5730   -1.7770   -0.0710 ha        1 H1K      0.186000
     28 H9         -3.1070    3.7530   -0.2260 h1        1 H1K      0.048367
     29 H7         -3.5090    3.2320    1.4910 h1        1 H1K      0.048367
     30 H8         -2.1630    4.4510    1.1900 h1        1 H1K      0.048367
     31 H10        -4.1130    1.7650   -0.1350 ha        1 H1K      0.149000
     32 H12        -6.0970    0.7300   -0.0340 h1        1 H1K      0.047033
     33 H11        -5.5660    1.1250   -1.7490 h1        1 H1K      0.047033
     34 H13        -6.7710   -0.2330   -1.4490 h1        1 H1K      0.047033
@<TRIPOS>BOND
     1    1    2 2   
     2    2    3 1   
     3    2   10 1   
     4    3    4 1   
     5    3   22 1   
     6    4    5 ar  
     7    4    9 ar  
     8    5    6 ar  
     9    5   23 1   
    10    6    7 ar  
    11    7    8 ar  
    12    7   24 1   
    13    8    9 ar  
    14    8   25 1   
    15   10   11 1   
    16   10   26 1   
    17   11   12 ar  
    18   11   13 ar  
    19   12   18 ar  
    20   12   27 1   
    21   13   14 1   
    22   13   16 ar  
    23   14   15 1   
    24   15   28 1   
    25   15   29 1   
    26   15   30 1   
    27   16   17 ar  
    28   16   31 1   
    29   17   18 ar  
    30   17   20 1   
    31   18   19 1   
    32   20   21 1   
    33   21   32 1   
    34   21   33 1   
    35   21   34 1   
@<TRIPOS>SUBSTRUCTURE
     1 H1K         1 TEMP              0 ****  ****    0 ROOT
