@<TRIPOS>MOLECULE
H1K
   34    28     1     0     0
SMALL
bcc


@<TRIPOS>ATOM
      1 O1         -0.3620   -1.1430    1.0690 o         1 H1K     -0.366000
      2 C4          0.5620   -0.4110    1.3350 c1        1 H1K      0.387000
      3 N2          1.3480   -0.6440    2.5360 n2        1 H1K     -0.294000
      4 C5          1.0250   -1.7500    3.4040 c2        1 H1K      0.059000
      5 C8          1.9930   -2.2550    4.2810 c2        1 H1K     -0.102000
      6 N4          1.6550   -3.2010    5.1990 n1        1 H1K     -0.089000
      7 C7          0.4040   -3.6480    5.2640 c1        1 H1K     -0.118000
      8 C6         -0.5770   -3.1400    4.3790 c1        1 H1K     -0.118000
      9 N3         -0.2450   -2.2040    3.4710 n1        1 H1K     -0.155000
     10 N1          0.8300    0.7070    0.5200 n3        1 H1K     -0.288000
     11 C3         -0.0010    0.9720   -0.6260 c1        1 H1K      0.032000
     12 C2         -1.3850    0.8430   -0.5220 c1        1 H1K     -0.088000
     13 C9          0.5630    1.2930   -1.8170 c1        1 H1K      0.054000
     14 O2          2.0020    1.3630   -1.9420 os        1 H1K     -0.229000
     15 C10         2.4900    2.6580   -2.1560 c3        1 H1K     -0.072000
     16 C11        -0.2350    1.4930   -2.9300 c1        1 H1K     -0.191000
     17 C12        -1.6130    1.3650   -2.8250 c1        1 H1K      0.074000
     18 C1         -2.1790    1.0400   -1.6220 c1        1 H1K     -0.093000
     19 CL         -3.9200    0.9650   -1.4640 cl        1 H1K      0.008000
     20 O3         -2.4460    1.6710   -3.9440 os        1 H1K     -0.219000
     21 C13        -2.7750    0.5450   -4.7440 c3        1 H1K     -0.074000
     22 H3          2.0810   -0.1230    2.7120 hn        1 H1K      0.236000
     23 H6          2.9330   -1.9200    4.2330 h4        1 H1K      0.206000
     24 H5          0.1620   -4.3300    5.9260 ha        1 H1K      0.172000
     25 H4         -1.4980   -3.4690    4.4270 ha        1 H1K      0.172000
     26 H2          1.5130    1.2820    0.7370 hn        1 H1K      0.235000
     27 H1         -1.7990    0.6060    0.3540 ha        1 H1K      0.186000
     28 H9          3.3550    2.7690   -1.6760 h1        1 H1K      0.089000
     29 H7          2.6310    2.8060   -3.1450 h1        1 H1K      0.089000
     30 H8          1.8550    3.2960   -1.8240 h1        1 H1K      0.089000
     31 H10         0.1860    1.7330   -3.8160 ha        1 H1K      0.158000
     32 H12        -1.9810   -0.0820   -4.7850 h1        1 H1K      0.084333
     33 H11        -3.0090    0.8500   -5.6660 h1        1 H1K      0.084333
     34 H13        -3.5620    0.0640   -4.3420 h1        1 H1K      0.084333
@<TRIPOS>BOND
     1    1    2 1   
     2    2   10 1   
     3    3    4 1   
     4    3   22 1   
     5    4    5 1   
     6    4    9 1   
     7    5    6 1   
     8    5   23 1   
     9    7    8 1   
    10    7   24 1   
    11    8   25 1   
    12   10   11 1   
    13   10   26 1   
    14   11   13 1   
    15   12   18 1   
    16   12   27 1   
    17   13   14 1   
    18   14   15 1   
    19   15   28 1   
    20   15   29 1   
    21   15   30 1   
    22   16   17 1   
    23   16   31 1   
    24   17   20 1   
    25   20   21 1   
    26   21   32 1   
    27   21   33 1   
    28   21   34 1   
@<TRIPOS>SUBSTRUCTURE
     1 H1K         1 TEMP              0 ****  ****    0 ROOT
