@<TRIPOS>MOLECULE
H1K
   34    35     1     0     0
SMALL
bcc


@<TRIPOS>ATOM
      1 O1         -0.3230   -0.0940    0.0330 o         1 H1K     -0.605100
      2 C4          0.8560    0.3140   -0.0430 c         1 H1K      0.755100
      3 N2          1.6980    0.3560    1.0990 n         1 H1K     -0.528400
      4 C5          1.1630    0.2770    2.4040 ca        1 H1K      0.402900
      5 C8          0.0830   -0.6200    2.7230 ca        1 H1K      0.296900
      6 N4         -0.3720   -0.7620    3.9780 nb        1 H1K     -0.615000
      7 C7          0.2240   -0.0260    4.9370 ca        1 H1K      0.256900
      8 C6          1.2830    0.8650    4.6350 ca        1 H1K      0.305900
      9 N3          1.7550    1.0300    3.3880 nb        1 H1K     -0.683000
     10 N1          1.4050    0.7800   -1.2620 n         1 H1K     -0.425100
     11 C3          0.8400    0.3830   -2.4970 ca        1 H1K     -0.011400
     12 C2         -0.5450    0.4590   -2.7250 ca        1 H1K     -0.061000
     13 C9          1.6730   -0.0370   -3.5750 ca        1 H1K      0.127100
     14 O2          3.0260   -0.1110   -3.2960 os        1 H1K     -0.344900
     15 C10         3.8870   -0.4320   -4.3820 c3        1 H1K      0.118700
     16 C11         1.1320   -0.3430   -4.8250 ca        1 H1K     -0.258000
     17 C12        -0.2510   -0.2560   -5.0260 ca        1 H1K      0.157100
     18 C1         -1.0930    0.1430   -3.9690 ca        1 H1K     -0.028600
     19 CL         -2.7760    0.2590   -4.1600 cl        1 H1K     -0.063400
     20 O3         -0.8620   -0.5400   -6.2290 os        1 H1K     -0.307900
     21 C13        -0.0190   -1.0000   -7.2800 c3        1 H1K      0.112700
     22 H3          2.5440    0.8860    1.0230 hn        1 H1K      0.321500
     23 H6         -0.4240   -1.2130    1.9380 h4        1 H1K      0.070100
     24 H5         -0.1500   -0.1500    5.9660 h4        1 H1K      0.036100
     25 H4          1.7660    1.4730    5.4190 h4        1 H1K      0.033100
     26 H2          2.3990    0.8860   -1.3020 hn        1 H1K      0.316500
     27 H1         -1.2170    0.7570   -1.8980 ha        1 H1K      0.186000
     28 H9          4.9080   -0.3870   -3.9220 h1        1 H1K      0.048367
     29 H7          3.7900    0.3210   -5.2010 h1        1 H1K      0.048367
     30 H8          3.6730   -1.4600   -4.7620 h1        1 H1K      0.048367
     31 H10         1.7890   -0.6570   -5.6470 ha        1 H1K      0.149000
     32 H12         0.4990   -1.9460   -6.9890 h1        1 H1K      0.047033
     33 H11         0.7220   -0.2140   -7.5650 h1        1 H1K      0.047033
     34 H13        -0.7390   -1.1860   -8.1190 h1        1 H1K      0.047033
@<TRIPOS>BOND
     1    1    2 2   
     2    2    3 1   
     3    2   10 1   
     4    3    4 1   
     5    3   22 1   
     6    4    5 ar  
     7    4    9 ar  
     8    5    6 ar  
     9    5   23 1   
    10    6    7 ar  
    11    7    8 ar  
    12    7   24 1   
    13    8    9 ar  
    14    8   25 1   
    15   10   11 1   
    16   10   26 1   
    17   11   12 ar  
    18   11   13 ar  
    19   12   18 ar  
    20   12   27 1   
    21   13   14 1   
    22   13   16 ar  
    23   14   15 1   
    24   15   28 1   
    25   15   29 1   
    26   15   30 1   
    27   16   17 ar  
    28   16   31 1   
    29   17   18 ar  
    30   17   20 1   
    31   18   19 1   
    32   20   21 1   
    33   21   32 1   
    34   21   33 1   
    35   21   34 1   
@<TRIPOS>SUBSTRUCTURE
     1 H1K         1 TEMP              0 ****  ****    0 ROOT
