@<TRIPOS>MOLECULE
H1K
   34    35     1     0     0
SMALL
bcc


@<TRIPOS>ATOM
      1 O1         -0.3220   -0.1190    0.0330 o         1 H1K     -0.605100
      2 C4          0.8520    0.3050   -0.0410 c         1 H1K      0.755100
      3 N2          1.6930    0.3530    1.1010 ns        1 H1K     -0.528400
      4 C5          1.1600    0.2630    2.4050 ca        1 H1K      0.402900
      5 C8          0.0910   -0.6490    2.7210 ca        1 H1K      0.296900
      6 N4         -0.3620   -0.8020    3.9750 nb        1 H1K     -0.615000
      7 C7          0.2250   -0.0620    4.9380 ca        1 H1K      0.256900
      8 C6          1.2710    0.8450    4.6380 ca        1 H1K      0.305900
      9 N3          1.7420    1.0200    3.3930 nb        1 H1K     -0.683000
     10 N1          1.3950    0.7830   -1.2580 ns        1 H1K     -0.425100
     11 C3          0.8340    0.3840   -2.4950 ca        1 H1K     -0.011400
     12 C2         -0.5520    0.4430   -2.7220 ca        1 H1K     -0.061000
     13 C9          1.6720   -0.0210   -3.5750 ca        1 H1K      0.127100
     14 O2          3.0260   -0.0780   -3.2960 os        1 H1K     -0.344900
     15 C10         3.8910   -0.3830   -4.3850 c3        1 H1K      0.118700
     16 C11         1.1350   -0.3280   -4.8260 ca        1 H1K     -0.258000
     17 C12        -0.2490   -0.2590   -5.0270 ca        1 H1K      0.157100
     18 C1         -1.0960    0.1250   -3.9670 ca        1 H1K     -0.028600
     19 Cl         -2.7800    0.2200   -4.1570 cl        1 H1K     -0.063400
     20 O3         -0.8560   -0.5450   -6.2310 os        1 H1K     -0.307900
     21 C13        -0.0080   -0.9880   -7.2840 c3        1 H1K      0.112700
     22 H3          2.5320    0.8940    1.0270 hn        1 H1K      0.321500
     23 H6         -0.4080   -1.2460    1.9340 h4        1 H1K      0.070100
     24 H5         -0.1480   -0.1940    5.9660 h4        1 H1K      0.036100
     25 H4          1.7470    1.4560    5.4240 h4        1 H1K      0.033100
     26 H2          2.3870    0.9020   -1.2980 hn        1 H1K      0.316500
     27 H1         -1.2270    0.7280   -1.8940 ha        1 H1K      0.186000
     28 H9          4.9110   -0.3270   -3.9250 h1        1 H1K      0.048367
     29 H7          3.7840    0.3730   -5.2000 h1        1 H1K      0.048367
     30 H8          3.6900   -1.4120   -4.7690 h1        1 H1K      0.048367
     31 H10         1.7960   -0.6300   -5.6490 ha        1 H1K      0.149000
     32 H12         0.5230   -1.9280   -6.9990 h1        1 H1K      0.047033
     33 H11        -0.7250   -1.1790   -8.1240 h1        1 H1K      0.047033
     34 H13         0.7220   -0.1910   -7.5650 h1        1 H1K      0.047033
@<TRIPOS>BOND
     1    1    2 2   
     2    2    3 1   
     3    2   10 1   
     4    3    4 1   
     5    3   22 1   
     6    4    5 ar  
     7    4    9 ar  
     8    5    6 ar  
     9    5   23 1   
    10    6    7 ar  
    11    7    8 ar  
    12    7   24 1   
    13    8    9 ar  
    14    8   25 1   
    15   10   11 1   
    16   10   26 1   
    17   11   12 ar  
    18   11   13 ar  
    19   12   18 ar  
    20   12   27 1   
    21   13   14 1   
    22   13   16 ar  
    23   14   15 1   
    24   15   28 1   
    25   15   29 1   
    26   15   30 1   
    27   16   17 ar  
    28   16   31 1   
    29   17   18 ar  
    30   17   20 1   
    31   18   19 1   
    32   20   21 1   
    33   21   32 1   
    34   21   33 1   
    35   21   34 1   
@<TRIPOS>SUBSTRUCTURE
     1 H1K         1 TEMP              0 ****  ****    0 ROOT
