@<TRIPOS>MOLECULE
H1L
   34    35     1     0     0
SMALL
bcc


@<TRIPOS>ATOM
      1 O1A         0.5870    1.8060   -0.0090 o         1 H1L     -0.811800
      2 C1          1.0920    0.6580   -0.0730 c         1 H1L      0.933600
      3 O1B         1.0140   -0.1420   -1.0420 o         1 H1L     -0.811800
      4 C2          1.9650    0.1640    1.1390 c3        1 H1L     -0.009900
      5 C2A         2.9830    1.2130    1.5180 c3        1 H1L     -0.111100
      6 O2          1.0380   -0.0580    2.2190 os        1 H1L     -0.280900
      7 C3          1.4520   -0.8080    3.2770 ca        1 H1L      0.185100
      8 C4          2.7120   -1.4220    3.4030 ca        1 H1L     -0.200000
      9 C5          3.0090   -2.1770    4.5330 ca        1 H1L     -0.078500
     10 C6          0.4860   -0.9620    4.3030 ca        1 H1L     -0.200000
     11 C7          0.7830   -1.7110    5.4290 ca        1 H1L     -0.078500
     12 C8          2.0500   -2.3010    5.5410 ca        1 H1L     -0.004900
     13 O8          2.4080   -2.9240    6.7480 os        1 H1L     -0.340400
     14 C9          2.1470   -4.2650    6.8870 ca        1 H1L      0.679600
     15 N9          1.5540   -4.9800    5.8900 nb        1 H1L     -0.694000
     16 C10         1.3360   -6.2840    6.1040 ca        1 H1L      0.489200
     17 C11         1.6850   -6.9450    7.2970 ca        1 H1L     -0.346600
     18 C12         1.4240   -8.4270    7.4630 c3        1 H1L      0.703200
     19 F1          0.3630   -8.9080    6.7330 f         1 H1L     -0.240633
     20 F2          2.4730   -9.2360    7.0920 f         1 H1L     -0.240633
     21 F3          1.1490   -8.8200    8.7510 f         1 H1L     -0.240633
     22 C13         2.2920   -6.2120    8.3220 ca        1 H1L     -0.021000
     23 C14         2.5340   -4.8520    8.1340 ca        1 H1L     -0.143900
     24 Cl1         3.2660   -3.9560    9.3680 cl        1 H1L     -0.054400
     25 H2          2.4510   -0.8080    0.8580 h1        1 H1L      0.039700
     26 H2A1        3.5020    0.9560    2.4730 hc        1 H1L      0.034700
     27 H2A2        2.4670    2.1980    1.6380 hc        1 H1L      0.034700
     28 H2A3        3.7390    1.3030    0.7030 hc        1 H1L      0.034700
     29 H4          3.4660   -1.3120    2.6100 ha        1 H1L      0.152500
     30 H6         -0.4940   -0.4800    4.1810 ha        1 H1L      0.152500
     31 H5          3.9890   -2.6630    4.6400 ha        1 H1L      0.132000
     32 H7          0.0430   -1.8400    6.2310 ha        1 H1L      0.132000
     33 H10         0.8470   -6.8300    5.2730 h4        1 H1L      0.045100
     34 H13         2.5680   -6.7080    9.2680 ha        1 H1L      0.161000
@<TRIPOS>BOND
     1    1    2 1   
     2    2    3 1   
     3    2    4 1   
     4    4    5 1   
     5    4    6 1   
     6    4   25 1   
     7    5   26 1   
     8    5   27 1   
     9    5   28 1   
    10    6    7 1   
    11    7    8 ar  
    12    7   10 ar  
    13    8    9 ar  
    14    8   29 1   
    15    9   12 ar  
    16    9   31 1   
    17   10   11 ar  
    18   10   30 1   
    19   11   12 ar  
    20   11   32 1   
    21   12   13 1   
    22   13   14 1   
    23   14   15 ar  
    24   14   23 ar  
    25   15   16 ar  
    26   16   17 ar  
    27   16   33 1   
    28   17   18 1   
    29   17   22 ar  
    30   18   19 1   
    31   18   20 1   
    32   18   21 1   
    33   22   23 ar  
    34   22   34 1   
    35   23   24 1   
@<TRIPOS>SUBSTRUCTURE
     1 H1L         1 TEMP              0 ****  ****    0 ROOT
