@<TRIPOS>MOLECULE
H1L
   34    30     1     0     0
SMALL
bcc


@<TRIPOS>ATOM
      1 O1A        -0.8560    5.4220   -0.5500 o         1 H1L     -0.576000
      2 C1         -1.4540    4.4250   -0.0660 c1        1 H1L      0.322000
      3 O1B        -1.5810    4.3120    1.1810 os        1 H1L     -0.534000
      4 C2         -2.0050    3.3560   -0.9830 c3        1 H1L     -0.054000
      5 C2A        -3.2740    3.8580   -1.6350 c3        1 H1L     -0.200000
      6 O2         -1.0560    3.0540   -1.9750 os        1 H1L     -0.205000
      7 C3         -0.2810    1.9160   -1.6930 c2        1 H1L      0.137000
      8 C4         -0.6440    0.6850   -2.2160 c2        1 H1L     -0.186000
      9 C5          0.1580   -0.4240   -1.9990 c1        1 H1L     -0.093000
     10 C6          0.8850    2.0380   -0.9540 c1        1 H1L     -0.195000
     11 C7          1.6870    0.9290   -0.7370 c1        1 H1L     -0.081000
     12 C8          1.3240   -0.3020   -1.2590 c1        1 H1L     -0.046000
     13 O8          2.1670   -1.4130   -1.0890 os        1 H1L     -0.121000
     14 C9          1.7960   -2.1080    0.0740 c2        1 H1L      0.186000
     15 N9          1.6940   -1.4460    1.2610 n2        1 H1L     -0.172000
     16 C10         1.3780   -2.1260    2.3980 c1        1 H1L      0.023000
     17 C11         1.1580   -3.4940    2.3490 c1        1 H1L     -0.278000
     18 C12         0.7700   -4.2430    3.6050 c3        1 H1L      0.483000
     19 F1          1.4060   -3.7110    4.6560 f         1 H1L     -0.170667
     20 F2         -0.5520   -4.1510    3.7890 f         1 H1L     -0.170667
     21 F3          1.1150   -5.5310    3.4810 f         1 H1L     -0.170667
     22 C13         1.2600   -4.1590    1.1620 c1        1 H1L     -0.021000
     23 C14         1.5770   -3.4760    0.0230 c1        1 H1L     -0.157000
     24 CL1         1.7150   -4.3250   -1.4930 cl        1 H1L      0.026000
     25 H2         -2.2020    2.5520   -0.4640 h1        1 H1L      0.073000
     26 H2A1       -3.8380    3.0950   -1.8840 hc        1 H1L      0.074667
     27 H2A2       -3.0480    4.3720   -2.4390 hc        1 H1L      0.074667
     28 H2A3       -3.7600    4.4320   -1.0070 hc        1 H1L      0.074667
     29 H4         -1.4650    0.5980   -2.7370 ha        1 H1L      0.141000
     30 H6          1.1400    2.9060   -0.5860 ha        1 H1L      0.215000
     31 H5         -0.0970   -1.2910   -2.3670 ha        1 H1L      0.127000
     32 H7          2.5080    1.0160   -0.2160 ha        1 H1L      0.138000
     33 H10         1.3050   -1.6510    3.2470 ha        1 H1L      0.178000
     34 H13         1.0710   -5.1150    1.1200 ha        1 H1L      0.160000
@<TRIPOS>BOND
     1    1    2 1   
     2    2    4 1   
     3    4    5 1   
     4    4    6 1   
     5    4   25 1   
     6    5   26 1   
     7    5   27 1   
     8    5   28 1   
     9    6    7 1   
    10    7    8 1   
    11    7   10 1   
    12    8    9 1   
    13    8   29 1   
    14    9   31 1   
    15   10   30 1   
    16   11   12 1   
    17   11   32 1   
    18   12   13 1   
    19   13   14 1   
    20   14   15 1   
    21   14   23 1   
    22   15   16 1   
    23   16   33 1   
    24   17   18 1   
    25   17   22 1   
    26   18   19 1   
    27   18   20 1   
    28   18   21 1   
    29   22   34 1   
    30   23   24 1   
@<TRIPOS>SUBSTRUCTURE
     1 H1L         1 TEMP              0 ****  ****    0 ROOT
