@<TRIPOS>MOLECULE
H1L
   34    35     1     0     0
SMALL
bcc


@<TRIPOS>ATOM
      1 O1A         7.5340   -0.6600   -0.8260 o         1 H1L     -0.811800
      2 C1          6.7160   -1.1100    0.0130 c         1 H1L      0.933600
      3 O1B         6.7850   -2.2170    0.6070 o         1 H1L     -0.811800
      4 C2          5.5050   -0.1960    0.4320 c3        1 H1L     -0.009900
      5 C2A         5.9890    1.1890    0.7920 c3        1 H1L     -0.111100
      6 O2          4.6410   -0.1480   -0.7200 os        1 H1L     -0.280900
      7 C3          3.3600    0.2790   -0.5440 ca        1 H1L      0.185100
      8 C4          2.7840    0.6570    0.6830 ca        1 H1L     -0.200000
      9 C5          1.4550    1.0650    0.7310 ca        1 H1L     -0.078500
     10 C6          2.5830    0.3130   -1.7290 ca        1 H1L     -0.200000
     11 C7          1.2610    0.7210   -1.6810 ca        1 H1L     -0.078500
     12 C8          0.7110    1.1080   -0.4510 ca        1 H1L     -0.004900
     13 O8         -0.5750    1.6720   -0.4280 os        1 H1L     -0.340400
     14 C9         -1.6460    0.8350   -0.2310 ca        1 H1L      0.679600
     15 N9         -1.4760   -0.5060   -0.0620 nb        1 H1L     -0.694000
     16 C10        -2.5720   -1.2530    0.1270 ca        1 H1L      0.489200
     17 C11        -3.8770   -0.7250    0.1580 ca        1 H1L     -0.346600
     18 C12        -5.0690   -1.6270    0.3930 c3        1 H1L      0.703200
     19 F1         -4.8970   -2.9260   -0.0220 f         1 H1L     -0.240633
     20 F2         -5.4400   -1.7500    1.7120 f         1 H1L     -0.240633
     21 F3         -6.2250   -1.2260   -0.2350 f         1 H1L     -0.240633
     22 C13        -4.0520    0.6520   -0.0190 ca        1 H1L     -0.021000
     23 C14        -2.9340    1.4600   -0.2180 ca        1 H1L     -0.143900
     24 CL1        -3.1350    3.1250   -0.4330 cl        1 H1L     -0.054400
     25 H2          4.9650   -0.6850    1.2840 h1        1 H1L      0.039700
     26 H2A1        6.6500    1.5710   -0.0250 hc        1 H1L      0.034700
     27 H2A2        5.1380    1.8970    0.9330 hc        1 H1L      0.034700
     28 H2A3        6.5830    1.1360    1.7350 hc        1 H1L      0.034700
     29 H4          3.3770    0.6300    1.6080 ha        1 H1L      0.152500
     30 H6          3.0520    0.0070   -2.6750 ha        1 H1L      0.152500
     31 H5          0.9940    1.3590    1.6840 ha        1 H1L      0.132000
     32 H7          0.6470    0.7500   -2.5920 ha        1 H1L      0.132000
     33 H10        -2.3950   -2.3390    0.2560 h4        1 H1L      0.045100
     34 H13        -5.0660    1.0860   -0.0050 ha        1 H1L      0.161000
@<TRIPOS>BOND
     1    1    2 1   
     2    2    3 1   
     3    2    4 1   
     4    4    5 1   
     5    4    6 1   
     6    4   25 1   
     7    5   26 1   
     8    5   27 1   
     9    5   28 1   
    10    6    7 1   
    11    7    8 ar  
    12    7   10 ar  
    13    8    9 ar  
    14    8   29 1   
    15    9   12 ar  
    16    9   31 1   
    17   10   11 ar  
    18   10   30 1   
    19   11   12 ar  
    20   11   32 1   
    21   12   13 1   
    22   13   14 1   
    23   14   15 ar  
    24   14   23 ar  
    25   15   16 ar  
    26   16   17 ar  
    27   16   33 1   
    28   17   18 1   
    29   17   22 ar  
    30   18   19 1   
    31   18   20 1   
    32   18   21 1   
    33   22   23 ar  
    34   22   34 1   
    35   23   24 1   
@<TRIPOS>SUBSTRUCTURE
     1 H1L         1 TEMP              0 ****  ****    0 ROOT
