@<TRIPOS>MOLECULE
H1L
   34    35     1     0     0
SMALL
bcc


@<TRIPOS>ATOM
      1 O1A         0.6320    1.8020   -0.0270 o         1 H1L     -0.811800
      2 C1          1.1210    0.6470   -0.0820 c         1 H1L      0.933600
      3 O1B         1.0360   -0.1580   -1.0450 o         1 H1L     -0.811800
      4 C2          1.9840    0.1500    1.1370 c3        1 H1L     -0.009900
      5 C2A         3.0140    1.1890    1.5130 c3        1 H1L     -0.111100
      6 O2          1.0510   -0.0540    2.2150 os        1 H1L     -0.280900
      7 C3          1.4520   -0.8020    3.2780 ca        1 H1L      0.185100
      8 C4          2.7040   -1.4310    3.4130 ca        1 H1L     -0.200000
      9 C5          2.9870   -2.1820    4.5490 ca        1 H1L     -0.078500
     10 C6          0.4810   -0.9380    4.3020 ca        1 H1L     -0.200000
     11 C7          0.7640   -1.6840    5.4340 ca        1 H1L     -0.078500
     12 C8          2.0230   -2.2880    5.5540 ca        1 H1L     -0.004900
     13 O8          2.3670   -2.9080    6.7670 os        1 H1L     -0.340400
     14 C9          2.1100   -4.2500    6.9040 ca        1 H1L      0.679600
     15 N9          1.5380   -4.9700    5.8990 nb        1 H1L     -0.694000
     16 C10         1.3220   -6.2740    6.1120 ca        1 H1L      0.489200
     17 C11         1.6550   -6.9310    7.3120 ca        1 H1L     -0.346600
     18 C12         1.3990   -8.4140    7.4760 c3        1 H1L      0.703200
     19 F1          0.3530   -8.9020    6.7290 f         1 H1L     -0.240633
     20 F2          2.4580   -9.2190    7.1250 f         1 H1L     -0.240633
     21 F3          1.1030   -8.8060    8.7610 f         1 H1L     -0.240633
     22 C13         2.2410   -6.1930    8.3460 ca        1 H1L     -0.021000
     23 C14         2.4790   -4.8330    8.1590 ca        1 H1L     -0.143900
     24 CL1         3.1860   -3.9300    9.4030 cl        1 H1L     -0.054400
     25 H2          2.4590   -0.8290    0.8640 h1        1 H1L      0.039700
     26 H2A1        3.5260    0.9310    2.4710 hc        1 H1L      0.034700
     27 H2A2        2.5110    2.1810    1.6240 hc        1 H1L      0.034700
     28 H2A3        3.7740    1.2640    0.6990 hc        1 H1L      0.034700
     29 H4          3.4620   -1.3350    2.6220 ha        1 H1L      0.152500
     30 H6         -0.4930   -0.4440    4.1740 ha        1 H1L      0.152500
     31 H5          3.9610   -2.6790    4.6620 ha        1 H1L      0.132000
     32 H7          0.0200   -1.7980    6.2340 ha        1 H1L      0.132000
     33 H10         0.8510   -6.8240    5.2740 h4        1 H1L      0.045100
     34 H13         2.5030   -6.6860    9.2960 ha        1 H1L      0.161000
@<TRIPOS>BOND
     1    1    2 1   
     2    2    3 1   
     3    2    4 1   
     4    4    5 1   
     5    4    6 1   
     6    4   25 1   
     7    5   26 1   
     8    5   27 1   
     9    5   28 1   
    10    6    7 1   
    11    7    8 ar  
    12    7   10 ar  
    13    8    9 ar  
    14    8   29 1   
    15    9   12 ar  
    16    9   31 1   
    17   10   11 ar  
    18   10   30 1   
    19   11   12 ar  
    20   11   32 1   
    21   12   13 1   
    22   13   14 1   
    23   14   15 ar  
    24   14   23 ar  
    25   15   16 ar  
    26   16   17 ar  
    27   16   33 1   
    28   17   18 1   
    29   17   22 ar  
    30   18   19 1   
    31   18   20 1   
    32   18   21 1   
    33   22   23 ar  
    34   22   34 1   
    35   23   24 1   
@<TRIPOS>SUBSTRUCTURE
     1 H1L         1 TEMP              0 ****  ****    0 ROOT
