@<TRIPOS>MOLECULE
H1M
   33    33     1     0     0
SMALL
bcc


@<TRIPOS>ATOM
      1 C9         -3.2290    0.0350   -1.4310 c3        1 H1M      0.117700
      2 O1         -1.8190    0.0350   -1.4310 os        1 H1M     -0.453600
      3 C1         -1.2350    0.0350   -0.1140 c3        1 H1M      0.331900
      4 C2         -0.1930    1.0160   -0.0770 c3        1 H1M     -0.110700
      5 C7          0.2850    1.2050    1.4900 c3        1 H1M     -0.090400
      6 C8         -0.1570    2.5610    1.9920 c3        1 H1M      0.133400
      7 O8          0.3220    2.7560    3.3050 oh        1 H1M     -0.597800
      8 C3          0.9450    0.6880   -0.8520 c3        1 H1M      0.106100
      9 O3          2.0160    1.7000   -0.5780 oh        1 H1M     -0.606800
     10 C4          1.4890   -0.6660   -0.5650 c3        1 H1M      0.123100
     11 O4          2.5480   -0.9210   -1.4570 oh        1 H1M     -0.596800
     12 C5          0.4190   -1.8450   -0.6990 c3        1 H1M      0.144100
     13 O5         -0.7780   -1.3270    0.1950 os        1 H1M     -0.434600
     14 C6          0.9040   -2.9790   -0.2290 c3        1 H1M      0.134400
     15 O6         -0.0390   -4.0100   -0.4240 oh        1 H1M     -0.599800
     16 H9         -3.5540   -0.6980   -0.8750 h1        1 H1M      0.042367
     17 H9A        -3.5540    0.8830   -1.0750 h1        1 H1M      0.042367
     18 H9B        -3.5540   -0.0810   -2.3440 h1        1 H1M      0.042367
     19 H1         -1.9220    0.2860    0.5320 h2        1 H1M      0.076700
     20 H2         -0.5540    1.8640   -0.3980 hc        1 H1M      0.068700
     21 H7         -0.1190    0.5070    2.0400 hc        1 H1M      0.074700
     22 H7A         1.2580    1.1390    1.5440 hc        1 H1M      0.074700
     23 H8         -1.1320    2.6070    1.9920 h1        1 H1M      0.018700
     24 H8A         0.2020    3.2570    1.4090 h1        1 H1M      0.018700
     25 HO8         0.0410    3.5410    3.6090 ho        1 H1M      0.401000
     26 H3          0.7040    0.7340   -1.7970 h1        1 H1M      0.066700
     27 HO3         2.2910    2.0550   -1.3430 ho        1 H1M      0.410000
     28 H4          1.8420   -0.6710    0.3450 h1        1 H1M      0.057700
     29 HO4         3.3180   -0.8910   -1.0180 ho        1 H1M      0.423000
     30 H5          0.1350   -1.9480   -1.6280 h1        1 H1M      0.086700
     31 H6          1.7300   -3.2000   -0.6990 h1        1 H1M      0.045700
     32 H6A         1.0880   -2.8840    0.7250 h1        1 H1M      0.045700
     33 HO6         0.3030   -4.7800   -0.1440 ho        1 H1M      0.401000
@<TRIPOS>BOND
     1    1    2 1   
     2    1   16 1   
     3    1   17 1   
     4    1   18 1   
     5    2    3 1   
     6    3    4 1   
     7    3   13 1   
     8    3   19 1   
     9    4    5 1   
    10    4    8 1   
    11    4   20 1   
    12    5    6 1   
    13    5   21 1   
    14    5   22 1   
    15    6    7 1   
    16    6   23 1   
    17    6   24 1   
    18    7   25 1   
    19    8    9 1   
    20    8   10 1   
    21    8   26 1   
    22    9   27 1   
    23   10   11 1   
    24   10   12 1   
    25   10   28 1   
    26   11   29 1   
    27   12   13 1   
    28   12   14 1   
    29   12   30 1   
    30   14   15 1   
    31   14   31 1   
    32   14   32 1   
    33   15   33 1   
@<TRIPOS>SUBSTRUCTURE
     1 H1M         1 TEMP              0 ****  ****    0 ROOT
