@<TRIPOS>MOLECULE
H1M
   33    33     1     0     0
SMALL
bcc


@<TRIPOS>ATOM
      1 C9         -0.0150   -0.1180    0.0930 c3        1 H1M      0.117700
      2 O1          1.4030   -0.0340    0.1140 os        1 H1M     -0.453600
      3 C1          1.9650   -0.1310    1.4110 c3        1 H1M      0.331900
      4 C2          3.4690    0.1580    1.2840 c3        1 H1M     -0.110700
      5 C7          4.0770    0.3850    2.6560 c3        1 H1M     -0.090400
      6 C8          3.8660    1.8140    3.1270 c3        1 H1M      0.133400
      7 O8          4.4730    1.9200    4.4040 oh        1 H1M     -0.597800
      8 C3          4.1400   -0.9990    0.5380 c3        1 H1M      0.106100
      9 O3          5.5570   -0.9140    0.5600 oh        1 H1M     -0.606800
     10 C4          3.7840   -2.3480    1.1880 c3        1 H1M      0.123100
     11 O4          4.3250   -3.4250    0.4430 oh        1 H1M     -0.596800
     12 C5          2.2540   -2.5020    1.1810 c3        1 H1M      0.144100
     13 O5          1.6630   -1.4190    1.9050 os        1 H1M     -0.434600
     14 C6          1.8270   -3.7810    1.9010 c3        1 H1M      0.134400
     15 O6          0.5570   -4.1420    1.3830 oh        1 H1M     -0.599800
     16 H9         -0.2760   -0.0650   -0.9930 h1        1 H1M      0.042367
     17 H9A        -0.3550   -1.0850    0.5380 h1        1 H1M      0.042367
     18 H9B        -0.4610    0.7430    0.6490 h1        1 H1M      0.042367
     19 H1          1.4620    0.5700    2.1380 h2        1 H1M      0.076700
     20 H2          3.5880    1.0880    0.6610 hc        1 H1M      0.068700
     21 H7          3.6230   -0.3230    3.4000 hc        1 H1M      0.074700
     22 H7A         5.1780    0.1700    2.6230 hc        1 H1M      0.074700
     23 H8          2.7700    2.0520    3.2020 h1        1 H1M      0.018700
     24 H8A         4.3440    2.5420    2.4160 h1        1 H1M      0.018700
     25 HO8         4.3210    2.8230    4.7070 ho        1 H1M      0.401000
     26 H3          3.7800   -0.9980   -0.5310 h1        1 H1M      0.066700
     27 HO3         5.7940   -0.0700    0.1570 ho        1 H1M      0.410000
     28 H4          4.1810   -2.3760    2.2400 h1        1 H1M      0.057700
     29 HO4         5.2660   -3.2330    0.3300 ho        1 H1M      0.423000
     30 H5          1.8670   -2.5000    0.1240 h1        1 H1M      0.086700
     31 H6          2.5750   -4.5900    1.6820 h1        1 H1M      0.045700
     32 H6A         1.7620   -3.6030    3.0070 h1        1 H1M      0.045700
     33 HO6         0.2630   -4.9070    1.8910 ho        1 H1M      0.401000
@<TRIPOS>BOND
     1    1    2 1   
     2    1   16 1   
     3    1   17 1   
     4    1   18 1   
     5    2    3 1   
     6    3    4 1   
     7    3   13 1   
     8    3   19 1   
     9    4    5 1   
    10    4    8 1   
    11    4   20 1   
    12    5    6 1   
    13    5   21 1   
    14    5   22 1   
    15    6    7 1   
    16    6   23 1   
    17    6   24 1   
    18    7   25 1   
    19    8    9 1   
    20    8   10 1   
    21    8   26 1   
    22    9   27 1   
    23   10   11 1   
    24   10   12 1   
    25   10   28 1   
    26   11   29 1   
    27   12   13 1   
    28   12   14 1   
    29   12   30 1   
    30   14   15 1   
    31   14   31 1   
    32   14   32 1   
    33   15   33 1   
@<TRIPOS>SUBSTRUCTURE
     1 H1M         1 TEMP              0 ****  ****    0 ROOT
