@<TRIPOS>MOLECULE
H1M
   33    33     1     0     0
SMALL
bcc


@<TRIPOS>ATOM
      1 C9          1.1670    2.7600    1.5240 c3        1 H1M      0.119700
      2 O1          0.4620    1.5280    1.5810 os        1 H1M     -0.445600
      3 C1         -0.1840    1.1810    0.3700 c3        1 H1M      0.328900
      4 C2         -1.1200   -0.0030    0.6560 c3        1 H1M     -0.073700
      5 C7         -2.0470   -0.2330   -0.5240 c3        1 H1M     -0.087400
      6 C8         -3.2530    0.6900   -0.4660 c3        1 H1M      0.133400
      7 O8         -3.9650    0.5130   -1.6810 oh        1 H1M     -0.599800
      8 C3         -0.2790   -1.2380    0.9890 c3        1 H1M      0.156100
      9 O3         -1.1480   -2.3470    1.1290 oh        1 H1M     -0.597800
     10 C4          0.7600   -1.4910   -0.1200 c3        1 H1M      0.077100
     11 O4          1.5180   -2.6100    0.3140 oh        1 H1M     -0.600800
     12 C5          1.6410   -0.2460   -0.2760 c3        1 H1M      0.073100
     13 O5          0.8390    0.9020   -0.5680 os        1 H1M     -0.450600
     14 C6          2.6050   -0.3700   -1.4590 c3        1 H1M      0.135400
     15 O6          3.4390    0.7630   -1.5630 oh        1 H1M     -0.593800
     16 H9          1.6400    2.8530    2.5330 h1        1 H1M      0.039700
     17 H9A         1.9450    2.7270    0.7220 h1        1 H1M      0.039700
     18 H9B         0.4580    3.6050    1.3400 h1        1 H1M      0.039700
     19 H1         -0.7380    2.0540   -0.0810 h2        1 H1M      0.079700
     20 H2         -1.7290    0.2460    1.5700 hc        1 H1M      0.084700
     21 H7         -1.4970   -0.0680   -1.4880 hc        1 H1M      0.074700
     22 H7A        -2.4040   -1.2980   -0.5180 hc        1 H1M      0.074700
     23 H8         -3.9070    0.4290    0.4090 h1        1 H1M      0.020200
     24 H8A        -2.9340    1.7630   -0.3710 h1        1 H1M      0.020200
     25 HO8        -4.7800    1.0220   -1.5980 ho        1 H1M      0.400000
     26 H3          0.2670   -1.0600    1.9610 h1        1 H1M      0.066700
     27 HO3        -0.5820   -3.1160    1.2840 ho        1 H1M      0.422000
     28 H4          0.2370   -1.7270   -1.0880 h1        1 H1M      0.060700
     29 HO4         2.1160   -2.8420   -0.4060 ho        1 H1M      0.409000
     30 H5          2.2110   -0.0590    0.6760 h1        1 H1M      0.079700
     31 H6          3.3040   -1.2320   -1.2920 h1        1 H1M      0.050700
     32 H6A         2.0280   -0.5170   -2.4110 h1        1 H1M      0.050700
     33 HO6         2.8610    1.5350   -1.6260 ho        1 H1M      0.415000
@<TRIPOS>BOND
     1    1    2 1   
     2    1   16 1   
     3    1   17 1   
     4    1   18 1   
     5    2    3 1   
     6    3    4 1   
     7    3   13 1   
     8    3   19 1   
     9    4    5 1   
    10    4    8 1   
    11    4   20 1   
    12    5    6 1   
    13    5   21 1   
    14    5   22 1   
    15    6    7 1   
    16    6   23 1   
    17    6   24 1   
    18    7   25 1   
    19    8    9 1   
    20    8   10 1   
    21    8   26 1   
    22    9   27 1   
    23   10   11 1   
    24   10   12 1   
    25   10   28 1   
    26   11   29 1   
    27   12   13 1   
    28   12   14 1   
    29   12   30 1   
    30   14   15 1   
    31   14   31 1   
    32   14   32 1   
    33   15   33 1   
@<TRIPOS>SUBSTRUCTURE
     1 H1M         1 TEMP              0 ****  ****    0 ROOT
