@<TRIPOS>MOLECULE
H1M
   33    33     1     0     0
SMALL
bcc


@<TRIPOS>ATOM
      1 C9         -0.0290   -0.1220    0.1190 c3        1 H1M      0.117700
      2 O1          1.3900   -0.0350    0.1280 os        1 H1M     -0.453600
      3 C1          1.9620   -0.1310    1.4210 c3        1 H1M      0.331900
      4 C2          3.4650    0.1600    1.2810 c3        1 H1M     -0.110700
      5 C7          4.0840    0.3880    2.6480 c3        1 H1M     -0.090400
      6 C8          3.8750    1.8180    3.1190 c3        1 H1M      0.133400
      7 O8          4.4920    1.9250    4.3920 oh        1 H1M     -0.597800
      8 C3          4.1320   -0.9960    0.5290 c3        1 H1M      0.106100
      9 O3          5.5490   -0.9080    0.5390 oh        1 H1M     -0.606800
     10 C4          3.7840   -2.3460    1.1820 c3        1 H1M      0.123100
     11 O4          4.3200   -3.4220    0.4330 oh        1 H1M     -0.596800
     12 C5          2.2540   -2.5020    1.1880 c3        1 H1M      0.144100
     13 O5          1.6670   -1.4200    1.9170 os        1 H1M     -0.434600
     14 C6          1.8350   -3.7820    1.9130 c3        1 H1M      0.134400
     15 O6          0.5610   -4.1440    1.4050 oh        1 H1M     -0.599800
     16 H9         -0.4710    0.7380    0.6790 h1        1 H1M      0.042367
     17 H9A        -0.3630   -1.0900    0.5680 h1        1 H1M      0.042367
     18 H9B        -0.2990   -0.0700   -0.9650 h1        1 H1M      0.042367
     19 H1          1.4650    0.5690    2.1510 h2        1 H1M      0.076700
     20 H2          3.5770    1.0900    0.6560 hc        1 H1M      0.068700
     21 H7          5.1860    0.1750    2.6040 hc        1 H1M      0.074700
     22 H7A         3.6380   -0.3200    3.3950 hc        1 H1M      0.074700
     23 H8          2.7790    2.0540    3.2040 h1        1 H1M      0.018700
     24 H8A         4.3450    2.5460    2.4040 h1        1 H1M      0.018700
     25 HO8         4.3420    2.8270    4.6960 ho        1 H1M      0.401000
     26 H3          3.7630   -0.9950   -0.5370 h1        1 H1M      0.066700
     27 HO3         5.7800   -0.0640    0.1340 ho        1 H1M      0.410000
     28 H4          4.1900   -2.3730    2.2310 h1        1 H1M      0.057700
     29 HO4         5.2600   -3.2280    0.3120 ho        1 H1M      0.423000
     30 H5          1.8580   -2.5000    0.1350 h1        1 H1M      0.086700
     31 H6          2.5830   -4.5900    1.6870 h1        1 H1M      0.045700
     32 H6A         1.7800   -3.6040    3.0190 h1        1 H1M      0.045700
     33 HO6         0.2730   -4.9100    1.9160 ho        1 H1M      0.401000
@<TRIPOS>BOND
     1    1    2 1   
     2    1   16 1   
     3    1   17 1   
     4    1   18 1   
     5    2    3 1   
     6    3    4 1   
     7    3   13 1   
     8    3   19 1   
     9    4    5 1   
    10    4    8 1   
    11    4   20 1   
    12    5    6 1   
    13    5   21 1   
    14    5   22 1   
    15    6    7 1   
    16    6   23 1   
    17    6   24 1   
    18    7   25 1   
    19    8    9 1   
    20    8   10 1   
    21    8   26 1   
    22    9   27 1   
    23   10   11 1   
    24   10   12 1   
    25   10   28 1   
    26   11   29 1   
    27   12   13 1   
    28   12   14 1   
    29   12   30 1   
    30   14   15 1   
    31   14   31 1   
    32   14   32 1   
    33   15   33 1   
@<TRIPOS>SUBSTRUCTURE
     1 H1M         1 TEMP              0 ****  ****    0 ROOT
