@<TRIPOS>MOLECULE
H1N
   69    62     1     0     0
SMALL
bcc


@<TRIPOS>ATOM
      1 CAJ         2.9070   -4.1720    3.6380 c3        1 H1N     -0.069000
      2 CAL         4.2720   -4.7280    3.2670 c3        1 H1N     -0.155500
      3 CAW         5.3620   -4.1010    4.0360 c3        1 H1N     -0.157000
      4 CAV         5.3140   -2.6290    3.9760 c3        1 H1N     -0.155500
      5 CAK         3.9450   -2.0810    4.3450 c3        1 H1N     -0.069000
      6 NAI         2.8650   -2.7100    3.5820 n3        1 H1N     -0.254000
      7 CAH         1.5860   -2.2440    4.0830 c3        1 H1N     -0.029000
      8 CAG         0.7900   -1.5650    2.9280 c2        1 H1N     -0.077000
      9 CAS        -0.4810   -2.0210    2.6010 c2        1 H1N     -0.128000
     10 CAR        -1.1520   -1.4900    1.4960 c1        1 H1N     -0.107000
     11 CAF         1.4000   -0.5720    2.1490 c1        1 H1N     -0.103000
     12 CAE         0.7310   -0.0430    1.0490 c1        1 H1N     -0.145000
     13 CAQ        -0.5460   -0.5020    0.7210 c1        1 H1N     -0.012000
     14 NAP        -1.2610    0.0770   -0.4110 n2        1 H1N     -0.130000
     15 CAO        -1.0140   -0.3520   -1.6430 c1        1 H1N      0.061000
     16 CAN         0.0450   -1.4810   -1.8800 c1        1 H1N     -0.104000
     17 CAM        -0.3250   -2.8140   -1.7590 c2        1 H1N     -0.097000
     18 CAC         0.6180   -3.8240   -1.9730 c1        1 H1N     -0.128000
     19 CAA         1.9260   -3.4940   -2.3070 c1        1 H1N     -0.129500
     20 CAB         2.2970   -2.1600   -2.4290 c1        1 H1N     -0.129500
     21 CAD         1.3530   -1.1500   -2.2150 c1        1 H1N     -0.117000
     22 CBD        -1.7910    0.2720   -2.8660 c2        1 H1N     -0.051000
     23 CBC        -2.6580    1.2830   -2.3820 c1        1 H1N     -0.108000
     24 CBB        -2.3710    2.6030   -1.9560 c1        1 H1N     -0.099000
     25 CBJ        -2.6660   -0.7140   -3.3910 c2        1 H1N      0.323000
     26 OBK        -2.3210   -1.7630   -3.9200 o         1 H1N     -0.316000
     27 NBI        -3.9590   -0.2970   -3.2210 n2        1 H1N     -0.322000
     28 CBH        -3.9530    0.9050   -2.6130 c1        1 H1N      0.063000
     29 CBG        -5.0140    1.8410   -2.4240 c1        1 H1N     -0.129500
     30 CBF        -4.7330    3.1380   -2.0060 c1        1 H1N     -0.129500
     31 CBA        -3.4160    3.5230   -1.7710 c1        1 H1N      0.031000
     32 NAZ        -3.1300    4.8530   -1.2740 n3        1 H1N     -0.832000
     33 SAY        -3.6520    6.2070   -2.1370 s4        1 H1N      2.024800
     34 OBE        -3.8720    5.8910   -3.5200 o         1 H1N     -0.536400
     35 OAU        -4.9760    6.6110   -1.7280 o         1 H1N     -0.536400
     36 CAX        -2.4810    7.5460   -1.9560 c2        1 H1N     -0.861000
     37 CAT        -2.0750    8.0570   -3.3340 c3        1 H1N     -0.185000
     38 HAJ1        2.6840   -4.4610    4.5470 h1        1 H1N      0.070750
     39 HAJ2        2.2420   -4.5310    3.0190 h1        1 H1N      0.070750
     40 HAL1        4.4280   -4.5730    2.3120 hc        1 H1N      0.086000
     41 HAL2        4.2780   -5.6960    3.4380 hc        1 H1N      0.086000
     42 HAW1        5.2950   -4.3820    4.9700 hc        1 H1N      0.079000
     43 HAW2        6.2260   -4.4060    3.6720 hc        1 H1N      0.079000
     44 HAV1        5.9770   -2.2660    4.5940 hc        1 H1N      0.086000
     45 HAV2        5.5370   -2.3410    3.0630 hc        1 H1N      0.086000
     46 HAK1        3.9340   -1.1190    4.1740 h1        1 H1N      0.070750
     47 HAK2        3.7900   -2.2350    5.2990 h1        1 H1N      0.070750
     48 HAH1        1.0730   -3.0050    4.4310 h1        1 H1N      0.078500
     49 HAH2        1.7330   -1.5970    4.7990 h1        1 H1N      0.078500
     50 HAS        -0.9070   -2.7140    3.1450 ha        1 H1N      0.134000
     51 HAR        -2.0500   -1.8120    1.2650 ha        1 H1N      0.146000
     52 HAF         2.2990   -0.2490    2.3790 ha        1 H1N      0.150000
     53 HAE         1.1580    0.6530    0.5030 ha        1 H1N      0.136000
     54 HAM        -1.2460   -3.0480   -1.5230 ha        1 H1N      0.152000
     55 HAC         0.3560   -4.7680   -1.8860 ha        1 H1N      0.139000
     56 HAA         2.5890   -4.2050   -2.4580 ha        1 H1N      0.148750
     57 HAB         3.2220   -1.9270   -2.6650 ha        1 H1N      0.148750
     58 HAD         1.6130   -0.2150   -2.3000 ha        1 H1N      0.130000
     59 HBB        -1.4530    2.8710   -1.7930 ha        1 H1N      0.139000
     60 HBI        -4.7110   -0.7630   -3.4790 DU        1 H1N      0.203500
     61 HBG        -5.9380    1.5720   -2.5880 ha        1 H1N      0.148750
     62 HBF        -5.4630    3.7800   -1.8760 ha        1 H1N      0.148750
     63 HAZ        -2.6160    4.9600   -0.5250 hn        1 H1N      0.253000
     64 HAX1       -2.8940    8.2760   -1.4430 ha        1 H1N      0.157500
     65 HAX2       -1.6900    7.2240   -1.4840 ha        1 H1N      0.157500
     66 HAT1       -1.3260    8.6930   -3.2410 hc        1 H1N      0.087667
     67 HAT2       -1.7960    7.3030   -3.8930 hc        1 H1N      0.087667
     68 HAT3       -2.8370    8.5090   -3.7510 hc        1 H1N      0.087667
     69 HC1        -1.0700    0.5700   -3.4590 DU        1 H1N      0.203500
@<TRIPOS>BOND
     1    1    2 1   
     2    1    6 1   
     3    1   38 1   
     4    1   39 1   
     5    2    3 1   
     6    2   40 1   
     7    2   41 1   
     8    3    4 1   
     9    3   42 1   
    10    3   43 1   
    11    4    5 1   
    12    4   44 1   
    13    4   45 1   
    14    5    6 1   
    15    5   46 1   
    16    5   47 1   
    17    6    7 1   
    18    7    8 1   
    19    7   48 1   
    20    7   49 1   
    21    8    9 1   
    22    8   11 1   
    23    9   10 1   
    24    9   50 1   
    25   10   51 1   
    26   11   52 1   
    27   12   13 1   
    28   12   53 1   
    29   13   14 1   
    30   14   15 1   
    31   15   22 1   
    32   16   17 1   
    33   16   21 1   
    34   17   18 1   
    35   17   54 1   
    36   18   55 1   
    37   19   20 1   
    38   19   56 1   
    39   20   57 1   
    40   21   58 1   
    41   22   23 1   
    42   22   25 1   
    43   23   28 1   
    44   24   31 1   
    45   24   59 1   
    46   25   26 1   
    47   25   27 1   
    48   27   28 1   
    49   29   30 1   
    50   29   61 1   
    51   30   62 1   
    52   31   32 1   
    53   32   33 1   
    54   32   63 1   
    55   33   34 1   
    56   33   35 1   
    57   36   37 1   
    58   36   64 1   
    59   36   65 1   
    60   37   66 1   
    61   37   67 1   
    62   37   68 1   
@<TRIPOS>SUBSTRUCTURE
     1 H1N         1 TEMP              0 ****  ****    0 ROOT
