@<TRIPOS>MOLECULE
H1N
   69    73     1     0     0
SMALL
bcc


@<TRIPOS>ATOM
      1 CAJ        -1.0310    1.2860    0.9520 c3        1 H1N      0.168300
      2 CAL         0.3760    0.9390    0.4710 c3        1 H1N     -0.076900
      3 CAW         1.1620    0.2350    1.5560 c3        1 H1N     -0.078400
      4 CAV         1.1560    1.0550    2.8280 c3        1 H1N     -0.076900
      5 CAK        -0.2680    1.4040    3.2540 c3        1 H1N      0.168300
      6 NAI        -1.0430    2.0440    2.1970 n3        1 H1N     -0.728600
      7 CAH        -2.3950    2.3600    2.6440 c3        1 H1N      0.214100
      8 CAG        -3.1550    3.2550    1.7100 ca        1 H1N     -0.083300
      9 CAS        -2.5930    4.4480    1.2440 ca        1 H1N     -0.115500
     10 CAR        -3.3200    5.3060    0.4270 ca        1 H1N     -0.126000
     11 CAF        -4.4630    2.9280    1.3420 ca        1 H1N     -0.115500
     12 CAE        -5.1990    3.7730    0.5180 ca        1 H1N     -0.126000
     13 CAQ        -4.6420    4.9800    0.0460 ca        1 H1N      0.123400
     14 NAP        -5.3750    5.9290   -0.6960 ne        1 H1N     -0.557100
     15 CAO        -6.1400    5.6440   -1.6950 cf        1 H1N      0.505900
     16 CAN        -6.3950    4.3240   -2.3170 ca        1 H1N     -0.195900
     17 CAM        -5.3630    3.6310   -2.9590 ca        1 H1N     -0.107000
     18 CAC        -5.6250    2.4020   -3.5640 ca        1 H1N     -0.133000
     19 CAA        -6.9100    1.8610   -3.5260 ca        1 H1N     -0.117000
     20 CAB        -7.9390    2.5520   -2.8850 ca        1 H1N     -0.133000
     21 CAD        -7.6870    3.7830   -2.2840 ca        1 H1N     -0.107000
     22 CBD        -6.9200    6.7610   -2.3600 c3        1 H1N     -0.129700
     23 CBC        -6.1430    8.0270   -2.5950 ca        1 H1N     -0.107300
     24 CBB        -5.0020    8.2510   -3.3280 ca        1 H1N     -0.097000
     25 CBJ        -8.0720    7.2410   -1.4360 c         1 H1N      0.711500
     26 OBK        -8.9830    6.5530   -0.9660 o         1 H1N     -0.601500
     27 NBI        -7.9510    8.6300   -1.2530 n         1 H1N     -0.466100
     28 CBH        -6.7960    9.1000   -1.9030 ca        1 H1N      0.051600
     29 CBG        -6.2830   10.3910   -1.9660 ca        1 H1N     -0.140000
     30 CBF        -5.1290   10.6180   -2.7210 ca        1 H1N     -0.131000
     31 CBA        -4.4720    9.5690   -3.3940 ca        1 H1N      0.113600
     32 NAZ        -3.3050    9.8030   -4.1450 nh        1 H1N     -0.784500
     33 SAY        -2.0920   10.8270   -3.7870 s6        1 H1N      1.454900
     34 OBE        -1.1830   10.7910   -4.8660 o         1 H1N     -0.648800
     35 OAU        -2.5760   12.0910   -3.4030 o         1 H1N     -0.648800
     36 CAX        -1.3590   10.0880   -2.4200 c3        1 H1N     -0.318600
     37 CAT        -0.2040   10.9180   -1.9230 c3        1 H1N     -0.076100
     38 HAJ1       -1.5400    1.9210    0.1720 h1        1 H1N      0.031200
     39 HAJ2       -1.6210    0.3260    1.0490 h1        1 H1N      0.031200
     40 HAL1        0.9120    1.8730    0.1630 hc        1 H1N      0.046700
     41 HAL2        0.2890    0.2810   -0.4310 hc        1 H1N      0.046700
     42 HAW1        0.7110   -0.7720    1.7560 hc        1 H1N      0.039700
     43 HAW2        2.2170    0.0700    1.2160 hc        1 H1N      0.039700
     44 HAV1        1.6430    0.4830    3.6590 hc        1 H1N      0.046700
     45 HAV2        1.7440    1.9970    2.6710 hc        1 H1N      0.046700
     46 HAK1       -0.7720    0.4610    3.6220 h1        1 H1N      0.031200
     47 HAK2       -0.2200    2.1230    4.1200 h1        1 H1N      0.031200
     48 HAH1       -2.3070    2.8970    3.6340 h1        1 H1N      0.039700
     49 HAH2       -2.9990    1.4190    2.8250 h1        1 H1N      0.039700
     50 HAS        -1.5610    4.7110    1.5290 ha        1 H1N      0.141500
     51 HAR        -2.8610    6.2440    0.0800 ha        1 H1N      0.142500
     52 HAF        -4.9200    1.9940    1.7020 ha        1 H1N      0.141500
     53 HAE        -6.2290    3.4980    0.2380 ha        1 H1N      0.142500
     54 HAM        -4.3470    4.0510   -2.9820 ha        1 H1N      0.150000
     55 HAC        -4.8130    1.8590   -4.0700 ha        1 H1N      0.137000
     56 HAA        -7.1120    0.8900   -4.0030 ha        1 H1N      0.135000
     57 HAB        -8.9520    2.1260   -2.8530 ha        1 H1N      0.137000
     58 HAD        -8.4970    4.3390   -1.7800 ha        1 H1N      0.150000
     59 HBB        -4.5080    7.4210   -3.8560 ha        1 H1N      0.142000
     60 HBI        -8.4630    9.1560   -0.5940 hn        1 H1N      0.343500
     61 HBG        -6.7680   11.2280   -1.4450 ha        1 H1N      0.148000
     62 HBF        -4.7360   11.6500   -2.7760 ha        1 H1N      0.174000
     63 HAZ        -3.2460    9.2330   -4.9600 hn        1 H1N      0.457800
     64 HAX1       -2.0870    9.9510   -1.5770 h1        1 H1N      0.112200
     65 HAX2       -0.9790    9.0600   -2.6590 h1        1 H1N      0.112200
     66 HAT1        0.2640   10.4390   -1.0290 hc        1 H1N      0.054700
     67 HAT2        0.5780   11.0170   -2.7160 hc        1 H1N      0.054700
     68 HAT3       -0.5530   11.9400   -1.6300 hc        1 H1N      0.054700
     69 HC1        -7.3700    6.3840   -3.3180 hc        1 H1N      0.112700
@<TRIPOS>BOND
     1    1    2 1   
     2    1    6 1   
     3    1   38 1   
     4    1   39 1   
     5    2    3 1   
     6    2   40 1   
     7    2   41 1   
     8    3    4 1   
     9    3   42 1   
    10    3   43 1   
    11    4    5 1   
    12    4   44 1   
    13    4   45 1   
    14    5    6 1   
    15    5   46 1   
    16    5   47 1   
    17    6    7 1   
    18    7    8 1   
    19    7   48 1   
    20    7   49 1   
    21    8    9 ar  
    22    8   11 ar  
    23    9   10 ar  
    24    9   50 1   
    25   10   13 ar  
    26   10   51 1   
    27   11   12 ar  
    28   11   52 1   
    29   12   13 ar  
    30   12   53 1   
    31   13   14 1   
    32   14   15 2   
    33   15   16 1   
    34   15   22 1   
    35   16   17 ar  
    36   16   21 ar  
    37   17   18 ar  
    38   17   54 1   
    39   18   19 ar  
    40   18   55 1   
    41   19   20 ar  
    42   19   56 1   
    43   20   21 ar  
    44   20   57 1   
    45   21   58 1   
    46   22   23 1   
    47   22   25 1   
    48   22   69 1   
    49   23   24 ar  
    50   23   28 ar  
    51   24   31 ar  
    52   24   59 1   
    53   25   26 2   
    54   25   27 1   
    55   27   28 1   
    56   27   60 1   
    57   28   29 ar  
    58   29   30 ar  
    59   29   61 1   
    60   30   31 ar  
    61   30   62 1   
    62   31   32 1   
    63   32   33 1   
    64   32   63 1   
    65   33   34 2   
    66   33   35 2   
    67   33   36 1   
    68   36   37 1   
    69   36   64 1   
    70   36   65 1   
    71   37   66 1   
    72   37   67 1   
    73   37   68 1   
@<TRIPOS>SUBSTRUCTURE
     1 H1N         1 TEMP              0 ****  ****    0 ROOT
