@<TRIPOS>MOLECULE
H1N
   69    73     1     0     0
SMALL
bcc


@<TRIPOS>ATOM
      1 CAJ         0.5540    0.3990    0.5070 c3        1 H1N      0.168300
      2 CAL         1.9600    0.8810    0.8590 c3        1 H1N     -0.076900
      3 CAW         2.1630    0.9190    2.3580 c3        1 H1N     -0.078400
      4 CAV         1.0740    1.7380    3.0170 c3        1 H1N     -0.076900
      5 CAK        -0.3130    1.2400    2.6140 c3        1 H1N      0.168300
      6 NAI        -0.4960    1.1610    1.1700 n3        1 H1N     -0.728600
      7 CAH        -1.8310    0.6820    0.8290 c3        1 H1N      0.214100
      8 CAG        -2.1840    0.8330   -0.6220 ca        1 H1N     -0.083300
      9 CAS        -2.0130    2.0560   -1.2780 ca        1 H1N     -0.115500
     10 CAR        -2.3950    2.2110   -2.6060 ca        1 H1N     -0.126000
     11 CAF        -2.7420   -0.2430   -1.3190 ca        1 H1N     -0.115500
     12 CAE        -3.1220   -0.1050   -2.6500 ca        1 H1N     -0.126000
     13 CAQ        -2.9570    1.1270   -3.3190 ca        1 H1N      0.123400
     14 NAP        -3.4250    1.3610   -4.6280 ne        1 H1N     -0.557100
     15 CAO        -3.2520    0.5550   -5.6210 cf        1 H1N      0.505900
     16 CAN        -2.5170   -0.7300   -5.6530 ca        1 H1N     -0.195900
     17 CAM        -1.1350   -0.7630   -5.4360 ca        1 H1N     -0.107000
     18 CAC        -0.4510   -1.9770   -5.4950 ca        1 H1N     -0.133000
     19 CAA        -1.1430   -3.1580   -5.7660 ca        1 H1N     -0.117000
     20 CAB        -2.5210   -3.1260   -5.9800 ca        1 H1N     -0.133000
     21 CAD        -3.2100   -1.9150   -5.9290 ca        1 H1N     -0.107000
     22 CBD        -3.8680    0.9060   -6.9620 c3        1 H1N     -0.129700
     23 CBC        -3.7150    2.3440   -7.3760 ca        1 H1N     -0.107300
     24 CBB        -2.5850    3.0980   -7.5840 ca        1 H1N     -0.097000
     25 CBJ        -5.4100    0.7340   -6.9100 c         1 H1N      0.711500
     26 OBK        -6.0340   -0.2900   -6.6150 o         1 H1N     -0.601500
     27 NBI        -6.0100    1.9390   -7.3150 ns        1 H1N     -0.466100
     28 CBH        -5.0210    2.9080   -7.5590 ca        1 H1N      0.051600
     29 CBG        -5.1620    4.2340   -7.9560 ca        1 H1N     -0.140000
     30 CBF        -4.0110    4.9940   -8.1780 ca        1 H1N     -0.131000
     31 CBA        -2.7250    4.4540   -7.9880 ca        1 H1N      0.113600
     32 NAZ        -1.5700    5.2280   -8.2050 nu        1 H1N     -0.784500
     33 SAY        -1.3610    6.8040   -7.8590 s6        1 H1N      1.454900
     34 OBE        -0.0810    7.1690   -8.3270 o         1 H1N     -0.648800
     35 OAU        -2.4470    7.5810   -8.3010 o         1 H1N     -0.648800
     36 CAX        -1.3470    6.8200   -6.1400 c3        1 H1N     -0.318600
     37 CAT        -1.1810    8.2250   -5.6230 c3        1 H1N     -0.076100
     38 HAJ1        0.4830   -0.7020    0.7560 h1        1 H1N      0.031200
     39 HAJ2        0.3950    0.5080   -0.6030 h1        1 H1N      0.031200
     40 HAL1        2.7000    0.1850    0.3860 hc        1 H1N      0.046700
     41 HAL2        2.1280    1.9030    0.4300 hc        1 H1N      0.046700
     42 HAW1        3.1660    1.3580    2.5960 hc        1 H1N      0.039700
     43 HAW2        2.1470   -0.1260    2.7670 hc        1 H1N      0.039700
     44 HAV1        1.1870    2.8150    2.7270 hc        1 H1N      0.046700
     45 HAV2        1.1620    1.6720    4.1310 hc        1 H1N      0.046700
     46 HAK1       -1.0830    1.9570    3.0150 h1        1 H1N      0.031200
     47 HAK2       -0.4890    0.2380    3.1080 h1        1 H1N      0.031200
     48 HAH1       -2.5720    1.2930    1.4230 h1        1 H1N      0.039700
     49 HAH2       -1.9700   -0.4000    1.1300 h1        1 H1N      0.039700
     50 HAS        -1.5710    2.9070   -0.7360 ha        1 H1N      0.141500
     51 HAR        -2.2600    3.1860   -3.0990 ha        1 H1N      0.142500
     52 HAF        -2.8850   -1.2110   -0.8150 ha        1 H1N      0.141500
     53 HAE        -3.5600   -0.9640   -3.1830 ha        1 H1N      0.142500
     54 HAM        -0.5900    0.1670   -5.2140 ha        1 H1N      0.150000
     55 HAC         0.6350   -2.0010   -5.3260 ha        1 H1N      0.137000
     56 HAA        -0.6010   -4.1140   -5.8090 ha        1 H1N      0.135000
     57 HAB        -3.0680   -4.0570   -6.1920 ha        1 H1N      0.137000
     58 HAD        -4.3000   -1.8810   -6.1040 ha        1 H1N      0.150000
     59 HBB        -1.5870    2.6550   -7.4410 ha        1 H1N      0.142000
     60 HBI        -6.9720    2.1450   -7.2300 hn        1 H1N      0.343500
     61 HBG        -6.1530    4.6860   -8.1040 ha        1 H1N      0.148000
     62 HBF        -4.1340    6.0430   -8.5070 ha        1 H1N      0.174000
     63 HAZ        -0.8130    4.7010   -8.5830 hn        1 H1N      0.457800
     64 HAX1       -0.5170    6.1900   -5.7270 h1        1 H1N      0.112200
     65 HAX2       -2.2910    6.3930   -5.7100 h1        1 H1N      0.112200
     66 HAT1       -2.0190    8.8750   -5.9780 hc        1 H1N      0.054700
     67 HAT2       -1.1810    8.2320   -4.5060 hc        1 H1N      0.054700
     68 HAT3       -0.2120    8.6600   -5.9750 hc        1 H1N      0.054700
     69 HC1        -3.4620    0.2170   -7.7520 hc        1 H1N      0.112700
@<TRIPOS>BOND
     1    1    2 1   
     2    1    6 1   
     3    1   38 1   
     4    1   39 1   
     5    2    3 1   
     6    2   40 1   
     7    2   41 1   
     8    3    4 1   
     9    3   42 1   
    10    3   43 1   
    11    4    5 1   
    12    4   44 1   
    13    4   45 1   
    14    5    6 1   
    15    5   46 1   
    16    5   47 1   
    17    6    7 1   
    18    7    8 1   
    19    7   48 1   
    20    7   49 1   
    21    8    9 ar  
    22    8   11 ar  
    23    9   10 ar  
    24    9   50 1   
    25   10   13 ar  
    26   10   51 1   
    27   11   12 ar  
    28   11   52 1   
    29   12   13 ar  
    30   12   53 1   
    31   13   14 1   
    32   14   15 2   
    33   15   16 1   
    34   15   22 1   
    35   16   17 ar  
    36   16   21 ar  
    37   17   18 ar  
    38   17   54 1   
    39   18   19 ar  
    40   18   55 1   
    41   19   20 ar  
    42   19   56 1   
    43   20   21 ar  
    44   20   57 1   
    45   21   58 1   
    46   22   23 1   
    47   22   25 1   
    48   22   69 1   
    49   23   24 ar  
    50   23   28 ar  
    51   24   31 ar  
    52   24   59 1   
    53   25   26 2   
    54   25   27 1   
    55   27   28 1   
    56   27   60 1   
    57   28   29 ar  
    58   29   30 ar  
    59   29   61 1   
    60   30   31 ar  
    61   30   62 1   
    62   31   32 1   
    63   32   33 1   
    64   32   63 1   
    65   33   34 2   
    66   33   35 2   
    67   33   36 1   
    68   36   37 1   
    69   36   64 1   
    70   36   65 1   
    71   37   66 1   
    72   37   67 1   
    73   37   68 1   
@<TRIPOS>SUBSTRUCTURE
     1 H1N         1 TEMP              0 ****  ****    0 ROOT
