@<TRIPOS>MOLECULE
H1N
   70    74     1     0     0
SMALL
bcc


@<TRIPOS>ATOM
      1 CAJ         0.7030    0.7250    0.3410 c3        1 H1N      0.166800
      2 CAL         2.1010    1.2400    0.6720 c3        1 H1N     -0.076900
      3 CAW         2.2560    1.4710    2.1600 c3        1 H1N     -0.080400
      4 CAV         1.1560    2.3760    2.6710 c3        1 H1N     -0.076900
      5 CAK        -0.2230    1.8390    2.2930 c3        1 H1N      0.166800
      6 NAI        -0.3620    1.5730    0.8640 n3        1 H1N     -0.733600
      7 CAH        -1.6860    1.0520    0.5440 c3        1 H1N      0.207100
      8 CAG        -2.0360    1.1430   -0.9130 ca        1 H1N     -0.059300
      9 CAS        -1.8150    2.3220   -1.6340 ca        1 H1N     -0.113000
     10 CAR        -2.1930    2.4190   -2.9670 ca        1 H1N     -0.122500
     11 CAF        -2.6410    0.0570   -1.5520 ca        1 H1N     -0.113000
     12 CAE        -3.0180    0.1390   -2.8890 ca        1 H1N     -0.122500
     13 CAQ        -2.8010    1.3240   -3.6230 ca        1 H1N      0.108400
     14 NAP        -3.2450    1.5130   -4.9480 ne        1 H1N     -0.580100
     15 CAO        -3.1990    0.6190   -5.8770 cf        1 H1N      0.499900
     16 CAN        -2.6270   -0.7450   -5.8350 ca        1 H1N     -0.211900
     17 CAM        -1.2450   -0.9130   -5.6810 ca        1 H1N     -0.108000
     18 CAC        -0.6980   -2.1950   -5.6640 ca        1 H1N     -0.126000
     19 CAA        -1.5250   -3.3110   -5.7940 ca        1 H1N     -0.104000
     20 CAB        -2.9020   -3.1450   -5.9430 ca        1 H1N     -0.126000
     21 CAD        -3.4550   -1.8650   -5.9660 ca        1 H1N     -0.108000
     22 CBD        -3.7680    0.9770   -7.2400 c3        1 H1N     -0.128700
     23 CBC        -3.5880    2.4210   -7.6230 ca        1 H1N     -0.116300
     24 CBB        -2.4480    3.1760   -7.7210 ca        1 H1N     -0.045000
     25 CBJ        -5.3090    0.8170   -7.2650 c         1 H1N      0.712500
     26 OBK        -5.9770   -0.1830   -7.0210 o         1 H1N     -0.534500
     27 NBI        -5.8800    2.0560   -7.6720 n         1 H1N     -0.461100
     28 CBH        -4.8880    3.0020   -7.8590 ca        1 H1N      0.141600
     29 CBG        -4.9990    4.3510   -8.2230 ca        1 H1N     -0.167000
     30 CBF        -3.8400    5.1140   -8.3190 ca        1 H1N     -0.048000
     31 CBA        -2.5780    4.5530   -8.0380 ca        1 H1N     -0.152400
     32 NAZ        -1.3930    5.3880   -8.1000 n4        1 H1N     -0.557300
     33 SAY        -1.2360    6.5310   -6.5980 s6        1 H1N      1.378900
     34 OBE         0.1160    6.8130   -6.6650 o         1 H1N     -0.561800
     35 OAU        -2.1780    7.4970   -6.8870 o         1 H1N     -0.561800
     36 CAX        -1.6230    5.5070   -5.3510 c3        1 H1N     -0.384600
     37 CAT        -1.9640    6.3020   -4.1040 c3        1 H1N     -0.092100
     38 HAJ1        0.5790    0.6900   -0.7780 h1        1 H1N      0.032450
     39 HAJ2        0.6130   -0.3340    0.7280 h1        1 H1N      0.032450
     40 HAL1        2.8490    0.4840    0.3190 hc        1 H1N      0.047700
     41 HAL2        2.2950    2.1970    0.1210 hc        1 H1N      0.047700
     42 HAW1        2.2170    0.4880    2.7000 hc        1 H1N      0.046200
     43 HAW2        3.2560    1.9310    2.3720 hc        1 H1N      0.046200
     44 HAV1        1.2080    2.4530    3.7880 hc        1 H1N      0.047700
     45 HAV2        1.2900    3.4060    2.2500 hc        1 H1N      0.047700
     46 HAK1       -0.4260    0.9110    2.9050 h1        1 H1N      0.032450
     47 HAK2       -0.9970    2.6080    2.5710 h1        1 H1N      0.032450
     48 HAH1       -2.4480    1.6670    1.1090 h1        1 H1N      0.047700
     49 HAH2       -1.8040   -0.0210    0.8840 h1        1 H1N      0.047700
     50 HAS        -1.3360    3.1800   -1.1360 ha        1 H1N      0.150000
     51 HAR        -2.0170    3.3610   -3.5110 ha        1 H1N      0.130000
     52 HAF        -2.8240   -0.8770   -0.9980 ha        1 H1N      0.150000
     53 HAE        -3.4940   -0.7290   -3.3740 ha        1 H1N      0.130000
     54 HAM        -0.5910   -0.0370   -5.5650 ha        1 H1N      0.144500
     55 HAC         0.3880   -2.3250   -5.5440 ha        1 H1N      0.146500
     56 HAA        -1.0900   -4.3230   -5.7780 ha        1 H1N      0.147000
     57 HAB        -3.5570   -4.0240   -6.0430 ha        1 H1N      0.146500
     58 HAD        -4.5440   -1.7360   -6.0890 ha        1 H1N      0.144500
     59 HBB        -1.4620    2.7170   -7.5450 ha        1 H1N      0.156000
     60 HBI        -6.8530    2.2330   -7.7350 hn        1 H1N      0.363500
     61 HBG        -5.9790    4.8080   -8.4280 ha        1 H1N      0.177000
     62 HBF        -3.9320    6.1790   -8.5990 ha        1 H1N      0.168000
     63 HAZ        -0.5660    4.7980   -8.2010 hn        1 H1N      0.457300
     64 HAX1       -2.4980    4.8160   -5.5480 h1        1 H1N      0.169200
     65 HAX2       -0.7820    4.8030   -5.0790 h1        1 H1N      0.169200
     66 HAT1       -2.8140    7.0020   -4.2990 hc        1 H1N      0.082033
     67 HAT2       -1.0770    6.8790   -3.7430 hc        1 H1N      0.082033
     68 HAT3       -2.2740    5.6030   -3.2850 hc        1 H1N      0.082033
     69 HC1        -3.3310    0.2900   -8.0170 hc        1 H1N      0.129700
     70 HAZ2       -1.4500    5.9610   -8.9460 hn        1 H1N      0.457300
@<TRIPOS>BOND
     1    1    2 1   
     2    1    6 1   
     3    1   38 1   
     4    1   39 1   
     5    2    3 1   
     6    2   40 1   
     7    2   41 1   
     8    3    4 1   
     9    3   42 1   
    10    3   43 1   
    11    4    5 1   
    12    4   44 1   
    13    4   45 1   
    14    5    6 1   
    15    5   46 1   
    16    5   47 1   
    17    6    7 1   
    18    7    8 1   
    19    7   48 1   
    20    7   49 1   
    21    8    9 ar  
    22    8   11 ar  
    23    9   10 ar  
    24    9   50 1   
    25   10   13 ar  
    26   10   51 1   
    27   11   12 ar  
    28   11   52 1   
    29   12   13 ar  
    30   12   53 1   
    31   13   14 1   
    32   14   15 2   
    33   15   16 1   
    34   15   22 1   
    35   16   17 ar  
    36   16   21 ar  
    37   17   18 ar  
    38   17   54 1   
    39   18   19 ar  
    40   18   55 1   
    41   19   20 ar  
    42   19   56 1   
    43   20   21 ar  
    44   20   57 1   
    45   21   58 1   
    46   22   23 1   
    47   22   25 1   
    48   22   69 1   
    49   23   24 ar  
    50   23   28 ar  
    51   24   31 ar  
    52   24   59 1   
    53   25   26 2   
    54   25   27 1   
    55   27   28 1   
    56   27   60 1   
    57   28   29 ar  
    58   29   30 ar  
    59   29   61 1   
    60   30   31 ar  
    61   30   62 1   
    62   31   32 1   
    63   32   33 1   
    64   32   63 1   
    65   32   70 1   
    66   33   34 2   
    67   33   35 2   
    68   33   36 1   
    69   36   37 1   
    70   36   64 1   
    71   36   65 1   
    72   37   66 1   
    73   37   67 1   
    74   37   68 1   
@<TRIPOS>SUBSTRUCTURE
     1 H1N         1 TEMP              0 ****  ****    0 ROOT
