@<TRIPOS>MOLECULE
H20
   44    42     1     0     0
SMALL
bcc


@<TRIPOS>ATOM
      1 CA         -0.0640    0.5210    0.0580 c2        1 H20     -0.051000
      2 CB          3.1930    0.5270    2.2690 c3        1 H20     -0.214000
      3 CC          2.4010   -0.3960    3.1580 c3        1 H20     -0.156000
      4 CD          1.8120   -1.5730    2.4060 c3        1 H20     -0.153000
      5 CE          0.5160   -1.2500    1.6850 c3        1 H20     -0.120000
      6 CF          0.7240   -0.5000    0.4250 c2        1 H20     -0.185000
      7 N1         -1.1420    4.9280   -1.6870 n2        1 H20     -0.182000
      8 C6         -1.1220    4.0550   -2.8140 c2        1 H20      0.295000
      9 O2         -1.7320    4.3190   -3.8580 o         1 H20     -0.291000
     10 C5         -0.1900    2.8670   -2.7030 c3        1 H20     -0.178000
     11 C4         -0.7500    1.8020   -1.8170 c2        1 H20      0.088000
     12 O4          0.2790    1.2110   -1.1050 os        1 H20     -0.175000
     13 C2         -2.1440    5.3200   -1.0660 c1        1 H20      0.113000
     14 C3         -2.0530    1.4460   -1.8230 c2        1 H20     -0.163000
     15 C7         -2.6600    0.4300   -1.0860 c1        1 H20     -0.084000
     16 C8         -3.2530   -0.4340   -0.5020 c1        1 H20     -0.212000
     17 C9         -4.0120    6.2430    0.4440 c2        1 H20     -0.028000
     18 C10        -3.0820    5.7640   -0.3260 c1        1 H20     -0.249000
     19 Cl         -4.0270   -1.5850    0.2840 cl        1 H20      0.167000
     20 C12         0.3470    0.2380   -6.1430 c3        1 H20     -0.273000
     21 C13         1.8160    0.1170   -4.0900 c3        1 H20     -0.273000
     22 HA          2.5580    0.9050    1.4300 hc        1 H20      0.074667
     23 HB1        -0.9280    0.9120    0.6140 h4        1 H20      0.152000
     24 HB2         3.5670    1.4020    2.8540 hc        1 H20      0.074667
     25 HC1         4.0710   -0.0050    1.8310 hc        1 H20      0.074667
     26 HC2         3.0720   -0.7870    3.9690 hc        1 H20      0.077000
     27 HD1         1.5790    0.1790    3.6620 hc        1 H20      0.077000
     28 HD2         1.6010   -2.3960    3.1410 hc        1 H20      0.080000
     29 HE1         2.5640   -1.9660    1.6740 hc        1 H20      0.080000
     30 HE2        -0.1680   -0.6880    2.3760 hc        1 H20      0.088000
     31 HF1         0.0010   -2.2170    1.4270 hc        1 H20      0.088000
     32 HF2         1.5670   -0.8210   -0.2070 ha        1 H20      0.137000
     33 HN1         0.8110    3.2020   -2.3180 hc        1 H20      0.171500
     34 H7         -2.7380    2.0000   -2.4970 ha        1 H20      0.162000
     35 H9         -5.0730    5.9780    0.3140 ha        1 H20      0.130000
     36 H10        -3.7910    6.9410    1.2670 ha        1 H20      0.130000
     37 H11        -0.0220    2.4250   -3.7390 hc        1 H20      0.171500
     38 H121        0.5780    0.9340   -6.9960 hc        1 H20      0.108500
     39 H122       -0.7730    0.2080   -6.0430 hc        1 H20      0.108500
     40 H123        0.7110   -0.7880   -6.4060 hc        1 H20      0.108500
     41 H131        2.0650   -0.9340   -4.3850 hc        1 H20      0.108500
     42 H132        2.7660    0.7170   -4.0590 hc        1 H20      0.108500
     43 H133        1.4000    0.1170   -3.0430 hc        1 H20      0.108500
     44 C11         0.8820    0.8200   -4.9360 c1        1 H20     -0.092000
@<TRIPOS>BOND
     1    1    6 1   
     2    1   12 1   
     3    1   23 1   
     4    2    3 1   
     5    2   22 1   
     6    2   24 1   
     7    2   25 1   
     8    3    4 1   
     9    3   26 1   
    10    3   27 1   
    11    4    5 1   
    12    4   28 1   
    13    4   29 1   
    14    5    6 1   
    15    5   30 1   
    16    5   31 1   
    17    6   32 1   
    18    7    8 1   
    19    7   13 1   
    20    8    9 1   
    21    8   10 1   
    22   10   11 1   
    23   10   33 1   
    24   10   37 1   
    25   11   12 1   
    26   11   14 1   
    27   13   18 1   
    28   14   15 1   
    29   14   34 1   
    30   15   16 1   
    31   16   19 1   
    32   17   18 1   
    33   17   35 1   
    34   17   36 1   
    35   20   38 1   
    36   20   39 1   
    37   20   40 1   
    38   20   44 1   
    39   21   41 1   
    40   21   42 1   
    41   21   43 1   
    42   21   44 1   
@<TRIPOS>SUBSTRUCTURE
     1 H20         1 TEMP              0 ****  ****    0 ROOT
