@<TRIPOS>MOLECULE
H20
   44    42     1     0     0
SMALL
bcc


@<TRIPOS>ATOM
      1 CA         -0.0980    0.6930    0.3440 c2        1 H20     -0.065000
      2 CB          3.0740   -1.5760    0.3020 c3        1 H20     -0.217000
      3 CC          2.7600   -1.7510    1.7660 c3        1 H20     -0.156000
      4 CD          1.3400   -2.2210    2.0090 c3        1 H20     -0.154000
      5 CE          0.3160   -1.1010    1.9970 c3        1 H20     -0.123000
      6 CF          0.0130   -0.6120    0.6330 c2        1 H20     -0.169000
      7 N1         -2.3140    4.6540   -2.2850 n2        1 H20     -0.239000
      8 C6         -1.4120    3.8940   -3.0920 c2        1 H20      0.307000
      9 O2         -1.1090    4.2550   -4.2460 o         1 H20     -0.325000
     10 C5         -0.7980    2.7000   -2.5010 c2        1 H20     -0.257000
     11 C4         -0.9580    2.2260   -1.2440 c2        1 H20      0.154000
     12 O4         -0.2870    1.0340   -0.9980 os        1 H20     -0.171000
     13 C2         -3.2710    5.3270   -2.8330 c2        1 H20      0.124000
     14 C3         -1.7450    2.8330   -0.1700 c2        1 H20     -0.075000
     15 C7         -2.8100    2.2980    0.3540 c1        1 H20     -0.141000
     16 C8         -3.8920    1.8030    0.8800 c2        1 H20     -0.088000
     17 C9         -4.9610    6.7900   -1.4780 c1        1 H20     -0.133000
     18 C10        -4.1800    6.1130   -2.0820 c1        1 H20     -0.169000
     19 CL         -3.8870    0.8200    2.2610 cl        1 H20     -0.014000
     20 C12         2.0300    0.5520   -4.9740 c3        1 H20     -0.276000
     21 C13         2.8750    0.8260   -2.6150 c3        1 H20     -0.276000
     22 HA          2.3610   -0.8540   -0.1690 hc        1 H20      0.075667
     23 HB1         0.0010    1.5280    1.0500 h4        1 H20      0.148000
     24 HB2         4.1120   -1.1850    0.1710 hc        1 H20      0.075667
     25 HC1         2.9940   -2.5500   -0.2390 hc        1 H20      0.075667
     26 HC2         3.4680   -2.5060    2.2030 hc        1 H20      0.078000
     27 HD1         2.9360   -0.7850    2.3080 hc        1 H20      0.078000
     28 HD2         1.2950   -2.7170    3.0160 hc        1 H20      0.082000
     29 HE1         1.0630   -2.9940    1.2450 hc        1 H20      0.082000
     30 HE2         0.6690   -0.2620    2.6540 hc        1 H20      0.089000
     31 HF1        -0.6430   -1.4890    2.4440 hc        1 H20      0.089000
     32 HF2        -0.1140   -1.3780   -0.1490 ha        1 H20      0.143000
     33 HN1        -3.4650    5.3390   -3.9340 h4        1 H20      0.140000
     34 H7         -1.4040    3.8390    0.1500 ha        1 H20      0.179000
     35 H9         -4.9010    1.9800    0.4780 h4        1 H20      0.172000
     36 H10        -5.6570    7.3930   -0.9510 ha        1 H20      0.231000
     37 H11        -0.1410    2.1520   -3.2030 ha        1 H20      0.171000
     38 H121        1.0050    0.7660   -4.5750 hc        1 H20      0.104167
     39 H122        2.2800    1.3250   -5.7520 hc        1 H20      0.104167
     40 H123        2.0130   -0.4430   -5.4960 hc        1 H20      0.104167
     41 H131        1.8110    1.0120   -2.3090 hc        1 H20      0.104167
     42 H132        3.2780   -0.0310   -2.0070 hc        1 H20      0.104167
     43 H133        3.4890    1.7300   -2.3520 hc        1 H20      0.104167
     44 C11         3.1080    0.5350   -4.0120 c1        1 H20     -0.076000
@<TRIPOS>BOND
     1    1    6 1   
     2    1   12 1   
     3    1   23 1   
     4    2    3 1   
     5    2   22 1   
     6    2   24 1   
     7    2   25 1   
     8    3    4 1   
     9    3   26 1   
    10    3   27 1   
    11    4    5 1   
    12    4   28 1   
    13    4   29 1   
    14    5    6 1   
    15    5   30 1   
    16    5   31 1   
    17    6   32 1   
    18    7    8 1   
    19    7   13 1   
    20    8    9 1   
    21    8   10 1   
    22   10   11 1   
    23   10   37 1   
    24   11   12 1   
    25   11   14 1   
    26   13   18 1   
    27   13   33 1   
    28   14   15 1   
    29   14   34 1   
    30   15   16 1   
    31   16   19 1   
    32   16   35 1   
    33   17   18 1   
    34   17   36 1   
    35   20   38 1   
    36   20   39 1   
    37   20   40 1   
    38   20   44 1   
    39   21   41 1   
    40   21   42 1   
    41   21   43 1   
    42   21   44 1   
@<TRIPOS>SUBSTRUCTURE
     1 H20         1 TEMP              0 ****  ****    0 ROOT
