@<TRIPOS>MOLECULE
H20
   44    46     1     0     0
SMALL
bcc


@<TRIPOS>ATOM
      1 CA         -1.9320   -0.0380   -0.0240 c3        1 H20      0.143100
      2 CB         -2.6100    0.6450    1.1580 c3        1 H20     -0.092900
      3 CC         -3.7800    1.4790    0.6830 c3        1 H20     -0.075900
      4 CD         -4.7700    0.6410   -0.1010 c3        1 H20     -0.080400
      5 CE         -4.0980   -0.0680   -1.2590 c3        1 H20     -0.075900
      6 CF         -2.9250   -0.9050   -0.7940 c3        1 H20     -0.092900
      7 N1          2.9310    0.6380    0.9200 n         1 H20     -0.447100
      8 C6          2.2040    0.3070    2.0740 c         1 H20      0.706700
      9 O2          2.7770    0.4820    3.1660 o         1 H20     -0.630500
     10 C5          0.8300   -0.2010    1.8980 cc        1 H20     -0.177400
     11 C4          0.3360   -0.3750    0.6350 cd        1 H20      0.184900
     12 O4         -0.9140   -0.9480    0.4560 os        1 H20     -0.345900
     13 C2          2.4410    0.4360   -0.3600 ca        1 H20      0.100600
     14 C3          1.1330   -0.0890   -0.5450 ca        1 H20     -0.139800
     15 C7          0.6690   -0.3430   -1.8460 ca        1 H20     -0.063000
     16 C8          1.4640   -0.0480   -2.9440 ca        1 H20     -0.026600
     17 C9          2.7460    0.5010   -2.7710 ca        1 H20     -0.071000
     18 C10         3.2330    0.7380   -1.5000 ca        1 H20     -0.180000
     19 CL          0.8900   -0.3520   -4.5150 cl        1 H20     -0.088400
     20 C12         0.6720   -1.6830    3.8810 c3        1 H20     -0.095100
     21 C13        -0.1130    0.6780    4.0300 c3        1 H20     -0.095100
     22 HA         -1.4700    0.7290   -0.7040 h1        1 H20      0.054700
     23 HB1        -2.9640   -0.1360    1.8800 hc        1 H20      0.055450
     24 HB2        -1.8650    1.2880    1.6950 hc        1 H20      0.055450
     25 HC1        -3.4070    2.3190    0.0390 hc        1 H20      0.044200
     26 HC2        -4.2930    1.9370    1.5680 hc        1 H20      0.044200
     27 HD1        -5.5920    1.2970   -0.4890 hc        1 H20      0.043700
     28 HD2        -5.2380   -0.1170    0.5810 hc        1 H20      0.043700
     29 HE1        -3.7450    0.6900   -2.0070 hc        1 H20      0.044200
     30 HE2        -4.8400   -0.7300   -1.7760 hc        1 H20      0.044200
     31 HF1        -2.4130   -1.3730   -1.6740 hc        1 H20      0.055450
     32 HF2        -3.2790   -1.7350   -0.1300 hc        1 H20      0.055450
     33 HN1         3.8570    0.9920    1.0320 hn        1 H20      0.334500
     34 H7         -0.3300   -0.7940   -1.9760 ha        1 H20      0.161000
     35 H9          3.3660    0.7380   -3.6510 ha        1 H20      0.152000
     36 H10         4.2430    1.1570   -1.3730 ha        1 H20      0.145000
     37 H11        -0.9920   -0.8500    2.7910 hc        1 H20      0.063700
     38 H121        0.0480   -1.9340    4.7730 hc        1 H20      0.042533
     39 H122        0.7420   -2.5850    3.2290 hc        1 H20      0.042533
     40 H123        1.6970   -1.4050    4.2280 hc        1 H20      0.042533
     41 H131        0.8820    1.0100    4.4160 hc        1 H20      0.042533
     42 H132       -0.5840    1.5270    3.4780 hc        1 H20      0.042533
     43 H133       -0.7630    0.4140    4.9000 hc        1 H20      0.042533
     44 C11         0.0410   -0.5290    3.1240 c3        1 H20     -0.010500
@<TRIPOS>BOND
     1    1    2 1   
     2    1    6 1   
     3    1   12 1   
     4    1   22 1   
     5    2    3 1   
     6    2   23 1   
     7    2   24 1   
     8    3    4 1   
     9    3   25 1   
    10    3   26 1   
    11    4    5 1   
    12    4   27 1   
    13    4   28 1   
    14    5    6 1   
    15    5   29 1   
    16    5   30 1   
    17    6   31 1   
    18    6   32 1   
    19    7    8 1   
    20    7   13 1   
    21    7   33 1   
    22    8    9 2   
    23    8   10 1   
    24   10   11 2   
    25   10   44 1   
    26   11   12 1   
    27   11   14 1   
    28   13   14 ar  
    29   13   18 ar  
    30   14   15 ar  
    31   15   16 ar  
    32   15   34 1   
    33   16   17 ar  
    34   16   19 1   
    35   17   18 ar  
    36   17   35 1   
    37   18   36 1   
    38   20   38 1   
    39   20   39 1   
    40   20   40 1   
    41   20   44 1   
    42   21   41 1   
    43   21   42 1   
    44   21   43 1   
    45   21   44 1   
    46   37   44 1   
@<TRIPOS>SUBSTRUCTURE
     1 H20         1 TEMP              0 ****  ****    0 ROOT
