@<TRIPOS>MOLECULE
H21
   46    49     1     0     0
SMALL
bcc


@<TRIPOS>ATOM
      1 F3          0.7060   -0.3380   -0.1120 f         1 H21     -0.124000
      2 C17         1.9510   -0.4330   -0.6550 cx        1 H21      0.079000
      3 C11         3.0390    0.4200   -0.1550 cu        1 H21     -0.350000
      4 C9          3.8870    0.7710    0.8040 c2        1 H21      0.100000
      5 N1          3.9500    0.1900    2.0690 n         1 H21     -0.308000
      6 C21         2.9940   -0.8470    2.3950 c3        1 H21     -0.043000
      7 C29         3.1030   -1.4290    3.7620 c2        1 H21     -0.047000
      8 C30         3.9840   -0.9640    4.6820 c2        1 H21     -0.255000
      9 C23         4.6960    0.2330    4.4260 c1        1 H21      0.057000
     10 C8          4.9470    0.5720    3.0030 c2        1 H21      0.257000
     11 O25         5.9360    1.2160    2.6180 o         1 H21     -0.290000
     12 C26         3.4410   -0.8270   -3.3190 c1        1 H21      0.156000
     13 C28         3.4690    0.2760   -2.6150 c2        1 H21     -0.451000
     14 C16         2.5450    0.7160   -1.5260 cx        1 H21      0.120000
     15 N15         1.8710    1.9370   -1.8210 ns        1 H21     -0.356000
     16 C14         0.4690    2.0130   -2.0750 c2        1 H21      0.378000
     17 O27        -0.1320    2.9840   -1.5560 o         1 H21     -0.406000
     18 C22        -0.1960    1.1150   -2.9620 c2        1 H21     -0.612000
     19 N4          0.4550    0.1130   -3.7280 nx        1 H21      0.164000
     20 C20        -0.2730   -0.0330   -5.0800 c2        1 H21     -0.019000
     21 C5          0.0960   -4.2380   -3.0320 c2        1 H21      0.400000
     22 O24         0.7730   -3.8250   -2.0820 o         1 H21     -0.284000
     23 C2         -0.2920   -5.6480   -3.1930 c2        1 H21     -0.481000
     24 C12        -0.3800   -6.3310   -4.4020 c2        1 H21     -0.110000
     25 C19        -0.7500   -7.6880   -4.2100 c2        1 H21     -0.156000
     26 S3         -0.6420   -6.6420   -1.8990 ss        1 H21      0.737000
     27 C10        -0.9300   -7.9740   -2.8610 c2        1 H21     -0.391000
     28 Cl1        -1.3770   -9.4660   -2.2580 cl        1 H21      0.070000
     29 N2         -0.6430   -1.2560   -5.3040 n2        1 H21     -0.129000
     30 N5          0.4890   -1.2340   -3.2190 n2        1 H21     -0.161000
     31 C1         -0.1430   -2.0190   -4.1100 c2        1 H21      0.122000
     32 H11         2.1700   -1.4790   -0.9740 h1        1 H21      0.149000
     33 H26         4.6270    1.5870    0.6510 h4        1 H21      0.179000
     34 H21         3.1240   -1.6930    1.6490 h1        1 H21      0.131500
     35 H29         1.9420   -0.4470    2.2440 h1        1 H21      0.131500
     36 H30         2.3750   -2.2270    3.9850 ha        1 H21      0.152000
     37 H23         4.0700   -1.4130    5.6860 ha        1 H21      0.170000
     38 H28         4.2880    1.0040   -2.8110 ha        1 H21      0.208000
     39 H15         2.1860    2.6900   -1.2370 hn        1 H21      0.210000
     40 H221        1.4430    0.3840   -3.8930 hn        1 H21      0.265000
     41 H222       -1.2880    1.0750   -2.9320 hx        1 H21      0.175000
     42 H20        -0.4500    0.8800   -5.6690 hx        1 H21      0.251000
     43 H7         -0.9180   -3.7810   -4.7860 hn        1 H21      0.266000
     44 H12        -0.1730   -5.9070   -5.3880 ha        1 H21      0.162000
     45 H19        -0.8730   -8.4050   -5.0260 ha        1 H21      0.174000
     46 N7         -0.3730   -3.3840   -4.0490 ns        1 H21     -0.293000
@<TRIPOS>BOND
     1    1    2 1   
     2    2    3 1   
     3    2   14 1   
     4    2   32 1   
     5    3    4 1   
     6    3   14 1   
     7    4    5 1   
     8    4   33 1   
     9    5    6 1   
    10    5   10 1   
    11    6    7 1   
    12    6   34 1   
    13    6   35 1   
    14    7    8 1   
    15    7   36 1   
    16    8    9 1   
    17    8   37 1   
    18    9   10 1   
    19   10   11 1   
    20   12   13 1   
    21   13   14 1   
    22   13   38 1   
    23   14   15 1   
    24   15   16 1   
    25   15   39 1   
    26   16   17 1   
    27   16   18 1   
    28   18   19 1   
    29   18   41 1   
    30   19   20 1   
    31   19   30 1   
    32   19   40 1   
    33   20   29 1   
    34   20   42 1   
    35   21   22 1   
    36   21   23 1   
    37   21   46 1   
    38   23   24 1   
    39   23   26 1   
    40   24   25 1   
    41   24   44 1   
    42   25   27 1   
    43   25   45 1   
    44   26   27 1   
    45   27   28 1   
    46   29   31 1   
    47   30   31 1   
    48   31   46 1   
    49   43   46 1   
@<TRIPOS>SUBSTRUCTURE
     1 H21         1 TEMP              0 ****  ****    0 ROOT
