@<TRIPOS>MOLECULE
H21
   46    49     1     0     0
SMALL
bcc


@<TRIPOS>ATOM
      1 F3          0.7160   -0.3240   -0.1210 f         1 H21     -0.124000
      2 C17         1.9580   -0.4290   -0.6670 cx        1 H21      0.079000
      3 C11         3.0510    0.4260   -0.1800 cu        1 H21     -0.350000
      4 C9          3.9030    0.7840    0.7720 c2        1 H21      0.100000
      5 N1          3.9700    0.2150    2.0420 n         1 H21     -0.308000
      6 C21         3.0120   -0.8160    2.3820 c3        1 H21     -0.043000
      7 C29         3.1250   -1.3850    3.7550 c2        1 H21     -0.047000
      8 C30         4.0110   -0.9140    4.6670 c2        1 H21     -0.255000
      9 C23         4.7250    0.2790    4.3960 c1        1 H21      0.057000
     10 C8          4.9720    0.6030    2.9690 c2        1 H21      0.257000
     11 O25         5.9610    1.2400    2.5730 o         1 H21     -0.290000
     12 C26         3.4360   -0.8530   -3.3330 c1        1 H21      0.156000
     13 C28         3.4710    0.2570   -2.6400 c2        1 H21     -0.451000
     14 C16         2.5530    0.7110   -1.5520 cx        1 H21      0.120000
     15 N15         1.8820    1.9310   -1.8560 n         1 H21     -0.356000
     16 C14         0.4780    2.0090   -2.1050 c2        1 H21      0.378000
     17 O27        -0.1170    2.9870   -1.5930 o         1 H21     -0.406000
     18 C22        -0.1930    1.1040   -2.9810 c2        1 H21     -0.612000
     19 N4          0.4520    0.0930   -3.7390 n4        1 H21      0.164000
     20 C20        -0.2820   -0.0640   -5.0870 c2        1 H21     -0.019000
     21 C5          0.0800   -4.2500   -3.0000 c2        1 H21      0.400000
     22 O24         0.7620   -3.8300   -2.0570 o         1 H21     -0.284000
     23 C2         -0.3150   -5.6600   -3.1460 c2        1 H21     -0.481000
     24 C12        -0.4110   -6.3540   -4.3470 c2        1 H21     -0.111000
     25 C19        -0.7850   -7.7070   -4.1410 c2        1 H21     -0.156000
     26 S3         -0.6640   -6.6390   -1.8410 ss        1 H21      0.737000
     27 C10        -0.9610   -7.9800   -2.7890 c2        1 H21     -0.391000
     28 CL1        -1.4120   -9.4630   -2.1680 cl        1 H21      0.070000
     29 N2         -0.6570   -1.2870   -5.2980 n2        1 H21     -0.129000
     30 N5          0.4830   -1.2490   -3.2170 n2        1 H21     -0.161000
     31 C1         -0.1560   -2.0410   -4.0980 c2        1 H21      0.122000
     32 H11         2.1720   -1.4780   -0.9770 h1        1 H21      0.149000
     33 H26         4.6450    1.5960    0.6090 h4        1 H21      0.179000
     34 H21         3.1370   -1.6700    1.6440 h1        1 H21      0.131500
     35 H29         1.9610   -0.4140    2.2320 h1        1 H21      0.131500
     36 H30         2.3960   -2.1780    3.9880 ha        1 H21      0.152000
     37 H23         4.0990   -1.3530    5.6740 ha        1 H21      0.170000
     38 H28         4.2910    0.9810   -2.8470 ha        1 H21      0.208000
     39 H15         2.2010    2.6880   -1.2810 hn        1 H21      0.210000
     40 H221        1.4400    0.3590   -3.9110 hn        1 H21      0.265000
     41 H222       -1.2860    1.0680   -2.9460 hx        1 H21      0.175000
     42 H20        -0.4580    0.8450   -5.6850 hx        1 H21      0.251000
     43 H7         -0.9400   -3.8060   -4.7550 hn        1 H21      0.266000
     44 H12        -0.2060   -5.9410   -5.3380 ha        1 H21      0.162000
     45 H19        -0.9140   -8.4320   -4.9490 ha        1 H21      0.174000
     46 N7         -0.3910   -3.4040   -4.0240 n         1 H21     -0.293000
@<TRIPOS>BOND
     1    1    2 1   
     2    2    3 1   
     3    2   14 1   
     4    2   32 1   
     5    3    4 1   
     6    3   14 1   
     7    4    5 1   
     8    4   33 1   
     9    5    6 1   
    10    5   10 1   
    11    6    7 1   
    12    6   34 1   
    13    6   35 1   
    14    7    8 1   
    15    7   36 1   
    16    8    9 1   
    17    8   37 1   
    18    9   10 1   
    19   10   11 1   
    20   12   13 1   
    21   13   14 1   
    22   13   38 1   
    23   14   15 1   
    24   15   16 1   
    25   15   39 1   
    26   16   17 1   
    27   16   18 1   
    28   18   19 1   
    29   18   41 1   
    30   19   20 1   
    31   19   30 1   
    32   19   40 1   
    33   20   29 1   
    34   20   42 1   
    35   21   22 1   
    36   21   23 1   
    37   21   46 1   
    38   23   24 1   
    39   23   26 1   
    40   24   25 1   
    41   24   44 1   
    42   25   27 1   
    43   25   45 1   
    44   26   27 1   
    45   27   28 1   
    46   29   31 1   
    47   30   31 1   
    48   31   46 1   
    49   43   46 1   
@<TRIPOS>SUBSTRUCTURE
     1 H21         1 TEMP              0 ****  ****    0 ROOT
