@<TRIPOS>MOLECULE
H21
   46    49     1     0     0
SMALL
bcc


@<TRIPOS>ATOM
      1 F3         -5.5660   11.1290   18.2410 f         1 H21     -0.117900
      2 C17        -5.5110    9.9710   18.9380 ca        1 H21      0.147900
      3 C11        -5.9710    8.7960   18.3180 ca        1 H21     -0.141000
      4 C9         -5.9060    7.5670   18.9910 ca        1 H21      0.046600
      5 N1         -6.3410    6.3650   18.3600 n         1 H21     -0.259200
      6 C21        -5.5750    5.2210   18.5160 cc        1 H21      0.014600
      7 C29        -5.9360    4.0130   17.9820 cd        1 H21     -0.248000
      8 C30        -7.1500    3.9110   17.2350 cd        1 H21     -0.040000
      9 C23        -7.9210    5.0110   17.0520 cc        1 H21     -0.253200
     10 C8         -7.5460    6.3170   17.6030 c         1 H21      0.690700
     11 O25        -8.2210    7.3490   17.4350 o         1 H21     -0.622500
     12 C26        -5.3930    7.5300   20.3070 ca        1 H21     -0.151000
     13 C28        -4.9490    8.6890   20.9230 ca        1 H21     -0.123000
     14 C16        -4.9930    9.9350   20.2610 ca        1 H21      0.003600
     15 N15        -4.4810   11.0810   20.9050 n         1 H21     -0.450100
     16 C14        -5.1990   12.2530   21.0630 c         1 H21      0.641100
     17 O27        -6.2370   12.5250   20.4400 o         1 H21     -0.557100
     18 C22        -4.6070   13.3020   22.0280 c3        1 H21     -0.020700
     19 N4         -4.5900   12.8650   23.4060 na        1 H21     -0.067400
     20 C20        -5.4550   13.3180   24.4240 cc        1 H21      0.443400
     21 C5         -3.6040    9.2710   25.5320 c         1 H21      0.724700
     22 O24        -3.6990    8.9400   24.3360 o         1 H21     -0.579100
     23 C2         -3.1760    8.3260   26.5790 cc        1 H21     -0.217700
     24 C12        -2.4840    8.6570   27.7380 cd        1 H21     -0.111000
     25 C19        -2.2000    7.5100   28.5250 cd        1 H21     -0.158000
     26 S3         -3.4470    6.6810   26.4740 ss        1 H21      0.178200
     27 C10        -2.6920    6.3560   27.9280 cc        1 H21     -0.044700
     28 CL1        -2.5550    4.8190   28.5680 cl        1 H21     -0.016400
     29 N2         -5.3160   12.5540   25.5200 nd        1 H21     -0.700000
     30 N5         -3.9000   11.7870   23.8260 nc        1 H21     -0.527800
     31 C1         -4.3400   11.5770   25.1190 cd        1 H21      0.632900
     32 H11        -6.4030    8.8670   17.3050 ha        1 H21      0.180000
     33 H26        -5.3550    6.5830   20.8670 ha        1 H21      0.143000
     34 H21        -4.6380    5.3410   19.0930 h4        1 H21      0.158000
     35 H29        -5.3000    3.1310   18.1210 ha        1 H21      0.152000
     36 H30        -7.4360    2.9330   16.8180 ha        1 H21      0.141000
     37 H23        -8.8650    5.0010   16.4880 ha        1 H21      0.165000
     38 H28        -4.5570    8.6310   21.9560 ha        1 H21      0.170000
     39 H15        -3.7320   10.8950   21.5390 hn        1 H21      0.342500
     40 H221       -3.5590   13.5580   21.7020 h1        1 H21      0.096200
     41 H222       -5.2520   14.2240   21.9630 h1        1 H21      0.096200
     42 H20        -6.1210   14.1820   24.3130 h5        1 H21      0.080100
     43 H7         -4.0170   10.7230   26.9500 hn        1 H21      0.343500
     44 H12        -2.1690    9.6650   28.0220 ha        1 H21      0.163000
     45 H19        -1.6630    7.5440   29.4760 ha        1 H21      0.171000
     46 N7         -3.8860   10.5640   25.9750 n         1 H21     -0.519400
@<TRIPOS>BOND
     1    1    2 1   
     2    2    3 ar  
     3    2   14 ar  
     4    3    4 ar  
     5    3   32 1   
     6    4    5 1   
     7    4   12 ar  
     8    5    6 1   
     9    5   10 1   
    10    6    7 2   
    11    6   34 1   
    12    7    8 1   
    13    7   35 1   
    14    8    9 2   
    15    8   36 1   
    16    9   10 1   
    17    9   37 1   
    18   10   11 2   
    19   12   13 ar  
    20   12   33 1   
    21   13   14 ar  
    22   13   38 1   
    23   14   15 1   
    24   15   16 1   
    25   15   39 1   
    26   16   17 2   
    27   16   18 1   
    28   18   19 1   
    29   18   40 1   
    30   18   41 1   
    31   19   20 1   
    32   19   30 1   
    33   20   29 2   
    34   20   42 1   
    35   21   22 2   
    36   21   23 1   
    37   21   46 1   
    38   23   24 2   
    39   23   26 1   
    40   24   25 1   
    41   24   44 1   
    42   25   27 2   
    43   25   45 1   
    44   26   27 1   
    45   27   28 1   
    46   29   31 1   
    47   30   31 2   
    48   31   46 1   
    49   43   46 1   
@<TRIPOS>SUBSTRUCTURE
     1 H21         1 TEMP              0 ****  ****    0 ROOT
