@<TRIPOS>MOLECULE
H22
   52    48     1     0     0
SMALL
bcc


@<TRIPOS>ATOM
      1 F3          2.7710   -0.2550    0.4670 f         1 H22     -0.106000
      2 C17         2.2430   -0.0640    1.7170 c2        1 H22      0.045000
      3 C11         3.0690    0.3310    2.7680 c1        1 H22     -0.117000
      4 C9          2.5350    0.5160    4.0470 c1        1 H22      0.034000
      5 N1          3.3780    0.9350    5.1200 n3        1 H22     -0.195000
      6 C21         3.4000    2.3530    5.5270 c2        1 H22      0.012000
      7 C29         4.3330    2.8090    6.6240 c1        1 H22     -0.247000
      8 C30         5.2280    1.8470    7.2730 c1        1 H22     -0.137000
      9 C23         5.2010    0.4280    6.8680 c1        1 H22     -0.137000
     10 C8          4.2690   -0.0260    5.7660 c1        1 H22      0.329000
     11 O25         4.2470   -1.2280    5.4220 o         1 H22     -0.353000
     12 C26         1.1830    0.3060    4.2720 c1        1 H22     -0.133000
     13 C28         0.3500   -0.0920    3.2170 c1        1 H22     -0.132000
     14 C16         0.8810   -0.2770    1.9420 c2        1 H22      0.047000
     15 N15         0.0190   -0.5500    0.8520 n         1 H22     -0.304000
     16 C14         0.5650   -1.0790   -0.3880 c2        1 H22      0.310000
     17 O27         1.7600   -1.2870   -0.4880 o         1 H22     -0.359000
     18 C22        -0.3760   -1.4030   -1.5690 c3        1 H22     -0.103000
     19 N4          0.3660   -1.2710   -2.8410 n3        1 H22     -0.245000
     20 C20        -0.1440   -0.2970   -3.5510 c3        1 H22     -0.111000
     21 C24        -1.2190   -0.9640   -4.4400 c3        1 H22      0.007000
     22 C34        -0.9880   -2.4690   -4.3080 c3        1 H22     -0.203000
     23 C31         0.1810   -2.5850   -3.7020 c3        1 H22     -0.086000
     24 N7         -2.4840   -0.6300   -3.9910 n         1 H22     -0.384000
     25 C5         -3.1580    0.4910   -4.5420 c2        1 H22      0.386000
     26 O24        -2.6250    1.1530   -5.4030 o         1 H22     -0.355000
     27 C2         -4.5630    0.7800   -4.1460 c2        1 H22     -0.448000
     28 C12        -5.1100    2.0940   -3.8360 c1        1 H22     -0.075000
     29 C19        -6.6830    1.9480   -3.6550 c1        1 H22     -0.162000
     30 S3         -5.7400   -0.2320   -4.1740 ss        1 H22      0.611000
     31 C10        -7.0390    0.5510   -3.8600 c1        1 H22     -0.364000
     32 CL1        -8.6130   -0.1040   -3.7860 cl        1 H22      0.059000
     33 H11         4.0480    0.4320    2.6190 ha        1 H22      0.180000
     34 H26         0.8220    0.4320    5.1400 ha        1 H22      0.144000
     35 H21         2.7940    3.0050    5.0890 h4        1 H22      0.159000
     36 H29         4.3500    3.7940    6.9060 ha        1 H22      0.153000
     37 H30         5.8190    2.1360    7.9690 ha        1 H22      0.153500
     38 H23         5.7780   -0.1940    7.2870 ha        1 H22      0.153500
     39 H28        -0.5960   -0.2400    3.3750 ha        1 H22      0.181000
     40 H15        -0.9260   -0.4920    0.9690 hn        1 H22      0.258000
     41 H221       -1.1460   -0.7690   -1.5650 h1        1 H22      0.104500
     42 H222       -0.7110   -2.3280   -1.4770 h1        1 H22      0.104500
     43 H201       -0.5520    0.3690   -2.9700 h1        1 H22      0.110000
     44 H202        0.5410    0.1120   -4.1030 h1        1 H22      0.110000
     45 H311        0.1830   -3.3870   -3.1100 h1        1 H22      0.094500
     46 H312        0.9100   -2.6550   -4.3790 h1        1 H22      0.094500
     47 H24        -1.1040   -0.6770   -5.4020 h1        1 H22      0.143000
     48 H341       -1.6720   -2.8610   -3.7810 hc        1 H22      0.101000
     49 H342       -0.9570   -2.8870   -5.1920 hc        1 H22      0.101000
     50 H7         -2.9120   -1.1710   -3.3960 hn        1 H22      0.220000
     51 H12        -4.5800    2.9530   -3.7510 DU        1 H22      0.175500
     52 H19        -7.3290    2.7000   -3.4330 DU        1 H22      0.175500
@<TRIPOS>BOND
     1    1    2 1   
     2    2    3 1   
     3    2   14 1   
     4    3   33 1   
     5    4    5 1   
     6    4   12 1   
     7    5    6 1   
     8    5   10 1   
     9    6    7 1   
    10    6   35 1   
    11    7   36 1   
    12    8    9 1   
    13    8   37 1   
    14    9   38 1   
    15   10   11 1   
    16   12   34 1   
    17   13   14 1   
    18   13   39 1   
    19   14   15 1   
    20   15   16 1   
    21   15   40 1   
    22   16   17 1   
    23   16   18 1   
    24   18   19 1   
    25   18   41 1   
    26   18   42 1   
    27   19   20 1   
    28   19   23 1   
    29   20   21 1   
    30   20   43 1   
    31   20   44 1   
    32   21   22 1   
    33   21   24 1   
    34   21   47 1   
    35   22   23 1   
    36   22   48 1   
    37   22   49 1   
    38   23   45 1   
    39   23   46 1   
    40   24   25 1   
    41   24   50 1   
    42   25   26 1   
    43   25   27 1   
    44   27   28 1   
    45   27   30 1   
    46   28   29 1   
    47   29   31 1   
    48   30   31 1   
@<TRIPOS>SUBSTRUCTURE
     1 H22         1 TEMP              0 ****  ****    0 ROOT
