@<TRIPOS>MOLECULE
H22
   54    57     1     0     0
SMALL
bcc


@<TRIPOS>ATOM
      1 F3          2.9070   -1.8890   -2.0700 f         1 H22     -0.134900
      2 C17         3.1700   -0.8170   -1.2840 ca        1 H22      0.170900
      3 C11         3.2280   -0.9710    0.1030 ca        1 H22     -0.151000
      4 C9          3.4950    0.1410    0.9380 ca        1 H22      0.159600
      5 N1          3.5080   -0.0010    2.3370 n         1 H22     -0.279200
      6 C21         4.4000    0.7660    3.0970 cc        1 H22     -0.029400
      7 C29         4.4250    0.7140    4.4590 cd        1 H22     -0.176000
      8 C30         3.5140   -0.1440    5.1600 cd        1 H22     -0.026000
      9 C23         2.6410   -0.9080    4.4630 cc        1 H22     -0.232200
     10 C8          2.5890   -0.8810    3.0010 c         1 H22      0.703700
     11 O25         1.7980   -1.5540    2.3170 o         1 H22     -0.629500
     12 C26         3.7370    1.4000    0.3280 ca        1 H22     -0.157000
     13 C28         3.6890    1.5520   -1.0470 ca        1 H22     -0.052000
     14 C16         3.3900    0.4560   -1.8770 ca        1 H22     -0.149400
     15 N15         3.3410    0.6180   -3.3270 n4        1 H22     -0.520200
     16 C14         2.1180    1.3940   -3.7650 c         1 H22      0.539100
     17 O27         2.3060    2.5630   -4.0580 o         1 H22     -0.393100
     18 C22         0.7710    0.6800   -3.7600 c3        1 H22      0.103800
     19 N4          0.8460   -0.6560   -4.3100 n3        1 H22     -0.752600
     20 C20         0.0460   -1.6590   -3.6110 c3        1 H22      0.154800
     21 C24        -1.0480   -2.1970   -4.5850 c3        1 H22      0.100500
     22 C34        -0.6390   -1.6860   -5.9770 c3        1 H22     -0.124400
     23 C31         0.5600   -0.7540   -5.7460 c3        1 H22      0.148800
     24 N7         -1.2160   -3.6800   -4.5240 n4        1 H22     -0.671800
     25 C5         -1.9120   -4.1660   -3.2440 c         1 H22      0.624700
     26 O24        -1.9810   -3.3290   -2.3500 o         1 H22     -0.459100
     27 C2         -2.3730   -5.5130   -3.2870 cc        1 H22     -0.350700
     28 C12        -2.1730   -6.4540   -4.3230 cd        1 H22     -0.084000
     29 C19        -2.7640   -7.6860   -4.0280 cd        1 H22     -0.146000
     30 S3         -3.2590   -6.1970   -2.0370 ss        1 H22      0.341200
     31 C10        -3.4040   -7.6620   -2.7720 cc        1 H22     -0.013700
     32 CL1        -4.2060   -8.9630   -2.1260 cl        1 H22      0.082600
     33 H11         3.0470   -1.9750    0.5330 ha        1 H22      0.213000
     34 H26         3.9490    2.2900    0.9480 ha        1 H22      0.183000
     35 H21         5.1090    1.3970    2.5290 h4        1 H22      0.164000
     36 H29         5.1480    1.3210    5.0260 ha        1 H22      0.178000
     37 H30         3.5500   -0.1660    6.2630 ha        1 H22      0.172000
     38 H23         1.9210   -1.5930    4.9380 ha        1 H22      0.185000
     39 H28         3.8770    2.5500   -1.4830 ha        1 H22      0.173000
     40 H15         3.3360   -0.3110   -3.7690 hn        1 H22      0.474300
     41 H221        0.4340    0.6630   -2.6790 h1        1 H22      0.117700
     42 H222        0.0700    1.3650   -4.3300 h1        1 H22      0.117700
     43 H201        0.7600   -2.4730   -3.2950 h1        1 H22      0.093700
     44 H202       -0.4550   -1.2680   -2.6820 h1        1 H22      0.093700
     45 H311        0.3620    0.2510   -6.2120 h1        1 H22      0.084200
     46 H312        1.4800   -1.1840   -6.2330 h1        1 H22      0.084200
     47 H24        -2.0480   -1.7590   -4.2880 hx        1 H22      0.128700
     48 H341       -1.4910   -1.1260   -6.4410 hc        1 H22      0.093200
     49 H342       -0.3520   -2.5050   -6.6840 hc        1 H22      0.093200
     50 H7         -0.3010   -4.1400   -4.5820 hn        1 H22      0.460300
     51 H12        -1.6220   -6.2790   -5.2510 ha        1 H22      0.153000
     52 H19        -2.7360   -8.5630   -4.6860 ha        1 H22      0.205000
     53 H152        4.1870    1.1280   -3.6260 hn        1 H22      0.474300
     54 H72        -1.7780   -3.9810   -5.3290 hn        1 H22      0.460300
@<TRIPOS>BOND
     1    1    2 1   
     2    2    3 ar  
     3    2   14 ar  
     4    3    4 ar  
     5    3   33 1   
     6    4    5 1   
     7    4   12 ar  
     8    5    6 1   
     9    5   10 1   
    10    6    7 2   
    11    6   35 1   
    12    7    8 1   
    13    7   36 1   
    14    8    9 2   
    15    8   37 1   
    16    9   10 1   
    17    9   38 1   
    18   10   11 2   
    19   12   13 ar  
    20   12   34 1   
    21   13   14 ar  
    22   13   39 1   
    23   14   15 1   
    24   15   16 1   
    25   15   40 1   
    26   15   53 1   
    27   16   17 2   
    28   16   18 1   
    29   18   19 1   
    30   18   41 1   
    31   18   42 1   
    32   19   20 1   
    33   19   23 1   
    34   20   21 1   
    35   20   43 1   
    36   20   44 1   
    37   21   22 1   
    38   21   24 1   
    39   21   47 1   
    40   22   23 1   
    41   22   48 1   
    42   22   49 1   
    43   23   45 1   
    44   23   46 1   
    45   24   25 1   
    46   24   50 1   
    47   24   54 1   
    48   25   26 2   
    49   25   27 1   
    50   27   28 2   
    51   27   30 1   
    52   28   29 1   
    53   28   51 1   
    54   29   31 2   
    55   29   52 1   
    56   30   31 1   
    57   31   32 1   
@<TRIPOS>SUBSTRUCTURE
     1 H22         1 TEMP              0 ****  ****    0 ROOT
