@<TRIPOS>MOLECULE
H22
   52    55     1     0     0
SMALL
bcc


@<TRIPOS>ATOM
      1 F3         -3.8790    9.9700   19.1920 f         1 H22     -0.113900
      2 C17        -5.0070    9.2380   19.3360 ca        1 H22      0.139900
      3 C11        -5.2360    8.1840   18.4340 ca        1 H22     -0.132000
      4 C9         -6.3730    7.3710   18.5650 ca        1 H22      0.040600
      5 N1         -6.5970    6.2820   17.6730 n         1 H22     -0.260200
      6 C21        -7.0510    5.0810   18.1950 cc        1 H22      0.013600
      7 C29        -7.3350    3.9960   17.4100 cd        1 H22     -0.247000
      8 C30        -7.1660    4.0920   15.9940 cd        1 H22     -0.040000
      9 C23        -6.7150    5.2470   15.4470 cc        1 H22     -0.252200
     10 C8         -6.3900    6.4170   16.2700 c         1 H22      0.690700
     11 O25        -5.9540    7.4830   15.8020 o         1 H22     -0.620500
     12 C26        -7.2920    7.6420   19.6010 ca        1 H22     -0.145000
     13 C28        -7.0730    8.6890   20.4810 ca        1 H22     -0.138000
     14 C16        -5.9350    9.5180   20.3780 ca        1 H22      0.023600
     15 N15        -5.7400   10.5470   21.3140 n         1 H22     -0.470100
     16 C14        -5.3060   11.8280   21.0050 c         1 H22      0.658100
     17 O27        -5.0040   12.1750   19.8520 o         1 H22     -0.567100
     18 C22        -5.2470   12.8570   22.1440 c3        1 H22      0.093800
     19 N4         -4.8150   12.3250   23.4200 n3        1 H22     -0.740600
     20 C20        -3.4150   11.9020   23.4470 c3        1 H22      0.132800
     21 C24        -2.8200   12.2440   24.8500 c3        1 H22      0.099700
     22 C34        -3.7970   13.3030   25.4180 c3        1 H22     -0.113400
     23 C31        -5.0520   13.2390   24.5410 c3        1 H22      0.157800
     24 N7         -2.6750   11.0860   25.6920 n         1 H22     -0.560900
     25 C5         -1.4720   10.7340   26.2720 c         1 H22      0.708700
     26 O24        -0.4400   11.4140   26.0900 o         1 H22     -0.608100
     27 C2         -1.4640    9.5170   27.1050 cc        1 H22     -0.206700
     28 C12        -2.5460    8.9950   27.8020 cd        1 H22     -0.123000
     29 C19        -2.1920    7.8230   28.5220 cd        1 H22     -0.158000
     30 S3         -0.0860    8.6050   27.3400 ss        1 H22      0.189200
     31 C10        -0.8530    7.5050   28.3360 cc        1 H22     -0.053700
     32 CL1        -0.0830    6.1890   29.0190 cl        1 H22     -0.022400
     33 H11        -4.5160    8.0260   17.6130 ha        1 H22      0.182000
     34 H26        -8.2040    7.0350   19.7120 ha        1 H22      0.141000
     35 H21        -7.1610    5.0430   19.2960 h4        1 H22      0.156000
     36 H29        -7.6860    3.0600   17.8600 ha        1 H22      0.152000
     37 H30        -7.4070    3.2160   15.3710 ha        1 H22      0.142000
     38 H23        -6.5620    5.3850   14.3670 ha        1 H22      0.165000
     39 H28        -7.8150    8.8770   21.2740 ha        1 H22      0.140000
     40 H15        -6.0720   10.3680   22.2350 hn        1 H22      0.332500
     41 H221       -4.5880   13.6960   21.7700 h1        1 H22      0.069200
     42 H222       -6.2930   13.2630   22.2640 h1        1 H22      0.069200
     43 H201       -3.3900   10.8000   23.2300 h1        1 H22      0.059700
     44 H202       -2.7930   12.4210   22.6660 h1        1 H22      0.059700
     45 H311       -5.3370   14.2730   24.2010 h1        1 H22      0.045700
     46 H312       -5.9200   12.8220   25.1230 h1        1 H22      0.045700
     47 H24        -1.7980   12.7040   24.7140 h1        1 H22      0.101700
     48 H341       -4.0540   13.1220   26.4890 hc        1 H22      0.062200
     49 H342       -3.3210   14.3120   25.3470 hc        1 H22      0.062200
     50 H7         -3.4730   10.5140   25.8280 hn        1 H22      0.316500
     51 H12        -3.5520    9.4220   27.8260 ha        1 H22      0.156000
     52 H19        -2.8920    7.2550   29.1390 ha        1 H22      0.167000
@<TRIPOS>BOND
     1    1    2 1   
     2    2    3 ar  
     3    2   14 ar  
     4    3    4 ar  
     5    3   33 1   
     6    4    5 1   
     7    4   12 ar  
     8    5    6 1   
     9    5   10 1   
    10    6    7 2   
    11    6   35 1   
    12    7    8 1   
    13    7   36 1   
    14    8    9 2   
    15    8   37 1   
    16    9   10 1   
    17    9   38 1   
    18   10   11 2   
    19   12   13 ar  
    20   12   34 1   
    21   13   14 ar  
    22   13   39 1   
    23   14   15 1   
    24   15   16 1   
    25   15   40 1   
    26   16   17 2   
    27   16   18 1   
    28   18   19 1   
    29   18   41 1   
    30   18   42 1   
    31   19   20 1   
    32   19   23 1   
    33   20   21 1   
    34   20   43 1   
    35   20   44 1   
    36   21   22 1   
    37   21   24 1   
    38   21   47 1   
    39   22   23 1   
    40   22   48 1   
    41   22   49 1   
    42   23   45 1   
    43   23   46 1   
    44   24   25 1   
    45   24   50 1   
    46   25   26 2   
    47   25   27 1   
    48   27   28 2   
    49   27   30 1   
    50   28   29 1   
    51   28   51 1   
    52   29   31 2   
    53   29   52 1   
    54   30   31 1   
    55   31   32 1   
@<TRIPOS>SUBSTRUCTURE
     1 H22         1 TEMP              0 ****  ****    0 ROOT
