@<TRIPOS>MOLECULE
H22
   53    56     1     0     0
SMALL
bcc


@<TRIPOS>ATOM
      1 F3          2.6840   -2.3370   -1.8600 f         1 H22     -0.135900
      2 C17         2.9580   -1.2840   -1.0520 ca        1 H22      0.144900
      3 C11         3.4960   -1.5380    0.2190 ca        1 H22     -0.141000
      4 C9          3.7980   -0.4740    1.0870 ca        1 H22      0.074600
      5 N1          4.3300   -0.7270    2.3800 n         1 H22     -0.268200
      6 C21         5.3350    0.1000    2.8660 cc        1 H22      0.002600
      7 C29         5.8640   -0.0470    4.1190 cd        1 H22     -0.226000
      8 C30         5.3720   -1.0810    4.9750 cd        1 H22     -0.034000
      9 C23         4.3980   -1.9140    4.5330 cc        1 H22     -0.247200
     10 C8          3.8240   -1.7850    3.1910 c         1 H22      0.695700
     11 O25         2.9400   -2.5410    2.7450 o         1 H22     -0.635500
     12 C26         3.5600    0.8490    0.6540 ca        1 H22     -0.148000
     13 C28         3.0250    1.0980   -0.6010 ca        1 H22     -0.109000
     14 C16         2.7030    0.0480   -1.4820 ca        1 H22     -0.008400
     15 N15         2.1600    0.3250   -2.7560 ns        1 H22     -0.466100
     16 C14         0.9730   -0.2140   -3.2030 c         1 H22      0.671100
     17 O27         0.2830   -0.9770   -2.4980 o         1 H22     -0.616100
     18 C22         0.5310    0.1780   -4.6300 c3        1 H22      0.117800
     19 N4         -0.1540   -0.9230   -5.2600 n3        1 H22     -0.766600
     20 C20        -1.5290   -1.1540   -4.8300 c3        1 H22      0.138800
     21 C24        -2.0440   -2.2450   -5.8120 c3        1 H22      0.121500
     22 C34        -1.3230   -1.8820   -7.1330 c3        1 H22     -0.110400
     23 C31        -0.1330   -0.9910   -6.7190 c3        1 H22      0.160800
     24 N7         -1.6680   -3.6150   -5.3200 ny        1 H22     -0.668800
     25 C5         -2.7090   -4.1920   -4.3710 c         1 H22      0.617700
     26 O24        -3.7920   -4.4270   -4.9010 o         1 H22     -0.462100
     27 C2         -2.2910   -4.4180   -3.0220 cc        1 H22     -0.323700
     28 C12        -1.1930   -3.8430   -2.3550 cd        1 H22     -0.064000
     29 C19        -1.1060   -4.2830   -1.0220 cd        1 H22     -0.150000
     30 S3         -3.1460   -5.4370   -1.9930 ss        1 H22      0.256200
     31 C10        -2.1360   -5.1800   -0.7080 cc        1 H22     -0.008700
     32 Cl1        -2.3240   -5.8990    0.7790 cl        1 H22      0.047600
     33 H11         3.6520   -2.5860    0.5290 ha        1 H22      0.185000
     34 H26         3.7770    1.7020    1.3180 ha        1 H22      0.153000
     35 H21         5.6980    0.8810    2.1720 h4        1 H22      0.158000
     36 H29         6.6640    0.6200    4.4680 ha        1 H22      0.161000
     37 H30         5.8010   -1.1820    5.9850 ha        1 H22      0.152000
     38 H23         3.9780   -2.7300    5.1400 ha        1 H22      0.170000
     39 H28         2.8440    2.1430   -0.9020 ha        1 H22      0.147000
     40 H15         2.6250    1.0180   -3.2950 hn        1 H22      0.329500
     41 H221       -0.1170    1.0980   -4.5270 h1        1 H22      0.071700
     42 H222        1.4240    0.4430   -5.2630 h1        1 H22      0.071700
     43 H201       -1.5350   -1.4660   -3.7480 h1        1 H22      0.091700
     44 H202       -2.1940   -0.2510   -4.9380 h1        1 H22      0.091700
     45 H311       -0.2210    0.0180   -7.2080 h1        1 H22      0.066700
     46 H312        0.8450   -1.4470   -7.0320 h1        1 H22      0.066700
     47 H24        -3.1630   -2.2200   -5.9240 hx        1 H22      0.127700
     48 H341       -0.9770   -2.7710   -7.7130 hc        1 H22      0.085200
     49 H342       -2.0350   -1.3100   -7.7800 hc        1 H22      0.085200
     50 H7         -0.7530   -3.5710   -4.8540 hn        1 H22      0.462800
     51 H12        -0.4870   -3.1050   -2.7620 ha        1 H22      0.196000
     52 H19        -0.3300   -3.9540   -0.3200 ha        1 H22      0.206000
     53 H72        -1.5980   -4.2440   -6.1280 hn        1 H22      0.462800
@<TRIPOS>BOND
     1    1    2 1   
     2    2    3 ar  
     3    2   14 ar  
     4    3    4 ar  
     5    3   33 1   
     6    4    5 1   
     7    4   12 ar  
     8    5    6 1   
     9    5   10 1   
    10    6    7 2   
    11    6   35 1   
    12    7    8 1   
    13    7   36 1   
    14    8    9 2   
    15    8   37 1   
    16    9   10 1   
    17    9   38 1   
    18   10   11 2   
    19   12   13 ar  
    20   12   34 1   
    21   13   14 ar  
    22   13   39 1   
    23   14   15 1   
    24   15   16 1   
    25   15   40 1   
    26   16   17 2   
    27   16   18 1   
    28   18   19 1   
    29   18   41 1   
    30   18   42 1   
    31   19   20 1   
    32   19   23 1   
    33   20   21 1   
    34   20   43 1   
    35   20   44 1   
    36   21   22 1   
    37   21   24 1   
    38   21   47 1   
    39   22   23 1   
    40   22   48 1   
    41   22   49 1   
    42   23   45 1   
    43   23   46 1   
    44   24   25 1   
    45   24   50 1   
    46   24   53 1   
    47   25   26 2   
    48   25   27 1   
    49   27   28 2   
    50   27   30 1   
    51   28   29 1   
    52   28   51 1   
    53   29   31 2   
    54   29   52 1   
    55   30   31 1   
    56   31   32 1   
@<TRIPOS>SUBSTRUCTURE
     1 H22         1 TEMP              0 ****  ****    0 ROOT
