@<TRIPOS>MOLECULE
H22
   53    56     1     0     0
SMALL
bcc


@<TRIPOS>ATOM
      1 F3          2.9170   -2.5500   -2.6680 f         1 H22     -0.158900
      2 C17         2.9760   -1.5500   -1.7460 ca        1 H22      0.063900
      3 C11         3.3610   -1.8630   -0.4380 ca        1 H22     -0.126000
      4 C9          3.3880   -0.8570    0.5450 ca        1 H22      0.046600
      5 N1          3.7080   -1.1870    1.8910 n         1 H22     -0.262200
      6 C21         4.5770   -0.3680    2.6000 cc        1 H22      0.006600
      7 C29         4.9080   -0.6140    3.9060 cd        1 H22     -0.225000
      8 C30         4.3460   -1.7450    4.5740 cd        1 H22     -0.027000
      9 C23         3.4950   -2.5680    3.9100 cc        1 H22     -0.253200
     10 C8          3.1300   -2.3270    2.5140 c         1 H22      0.702700
     11 O25         2.3520   -3.0570    1.8650 o         1 H22     -0.674500
     12 C26         3.0690    0.4670    0.1810 ca        1 H22     -0.127000
     13 C28         2.7110    0.7810   -1.1240 ca        1 H22     -0.103000
     14 C16         2.6400   -0.2140   -2.1170 ca        1 H22      0.016600
     15 N15         2.2460    0.0580   -3.4380 n         1 H22     -0.456100
     16 C14         1.2180    0.9240   -3.7790 c         1 H22      0.656100
     17 O27         0.8080    1.8330   -3.0400 o         1 H22     -0.559100
     18 C22         0.5940    0.7190   -5.1730 c3        1 H22      0.086800
     19 N4          0.0790   -0.6280   -5.3100 n3        1 H22     -0.756600
     20 C20        -1.1250   -0.9010   -4.5270 c3        1 H22      0.135800
     21 C24        -1.7650   -2.1640   -5.1680 c3        1 H22      0.120500
     22 C34        -1.3420   -2.0670   -6.6510 c3        1 H22     -0.112400
     23 C31        -0.1750   -1.0640   -6.6850 c3        1 H22      0.150800
     24 N7         -1.2690   -3.4230   -4.5110 n4        1 H22     -0.668800
     25 C5         -2.1730   -3.8630   -3.3670 c         1 H22      0.614700
     26 O24        -3.3170   -4.1400   -3.7210 o         1 H22     -0.465100
     27 C2         -1.5970   -3.9220   -2.0620 cc        1 H22     -0.323700
     28 C12        -0.3020   -3.5440   -1.6560 cd        1 H22     -0.081000
     29 C19        -0.1030   -3.7440   -0.2810 cd        1 H22     -0.147000
     30 S3         -2.4810   -4.4940   -0.7510 ss        1 H22      0.275200
     31 C10        -1.2520   -4.2740    0.3300 cc        1 H22     -0.006700
     32 CL1        -1.3610   -4.6350    1.9480 cl        1 H22      0.057600
     33 H11         3.6040   -2.9090   -0.1850 ha        1 H22      0.179000
     34 H26         3.0880    1.2740    0.9330 ha        1 H22      0.157000
     35 H21         4.9970    0.4900    2.0420 h4        1 H22      0.164000
     36 H29         5.6030    0.0500    4.4380 ha        1 H22      0.164000
     37 H30         4.6190   -1.9300    5.6250 ha        1 H22      0.154000
     38 H23         3.0330   -3.4550    4.3670 ha        1 H22      0.170000
     39 H28         2.4510    1.8240   -1.3790 ha        1 H22      0.182000
     40 H15         2.5180   -0.6250   -4.1120 hn        1 H22      0.329500
     41 H221        1.3850    0.8860   -5.9580 h1        1 H22      0.086700
     42 H222       -0.2000    1.5120   -5.2970 h1        1 H22      0.086700
     43 H201       -1.8860   -0.0700   -4.5690 h1        1 H22      0.083200
     44 H202       -0.8330   -1.0440   -3.4510 h1        1 H22      0.083200
     45 H311        0.7650   -1.5500   -7.0660 h1        1 H22      0.071700
     46 H312       -0.4260   -0.2090   -7.3730 h1        1 H22      0.071700
     47 H24        -2.8870   -2.1540   -5.0630 hx        1 H22      0.131700
     48 H341       -2.2100   -1.6800   -7.2440 hc        1 H22      0.086700
     49 H342       -1.0420   -3.0460   -7.0980 hc        1 H22      0.086700
     50 H7         -1.2650   -4.1760   -5.2100 hn        1 H22      0.459800
     51 H12         0.4880   -3.1340   -2.2950 ha        1 H22      0.163000
     52 H19         0.8310   -3.5150    0.2580 ha        1 H22      0.230000
     53 H72        -0.3100   -3.2810   -4.1780 hn        1 H22      0.459800
@<TRIPOS>BOND
     1    1    2 1   
     2    2    3 ar  
     3    2   14 ar  
     4    3    4 ar  
     5    3   33 1   
     6    4    5 1   
     7    4   12 ar  
     8    5    6 1   
     9    5   10 1   
    10    6    7 2   
    11    6   35 1   
    12    7    8 1   
    13    7   36 1   
    14    8    9 2   
    15    8   37 1   
    16    9   10 1   
    17    9   38 1   
    18   10   11 2   
    19   12   13 ar  
    20   12   34 1   
    21   13   14 ar  
    22   13   39 1   
    23   14   15 1   
    24   15   16 1   
    25   15   40 1   
    26   16   17 2   
    27   16   18 1   
    28   18   19 1   
    29   18   41 1   
    30   18   42 1   
    31   19   20 1   
    32   19   23 1   
    33   20   21 1   
    34   20   43 1   
    35   20   44 1   
    36   21   22 1   
    37   21   24 1   
    38   21   47 1   
    39   22   23 1   
    40   22   48 1   
    41   22   49 1   
    42   23   45 1   
    43   23   46 1   
    44   24   25 1   
    45   24   50 1   
    46   24   53 1   
    47   25   26 2   
    48   25   27 1   
    49   27   28 2   
    50   27   30 1   
    51   28   29 1   
    52   28   51 1   
    53   29   31 2   
    54   29   52 1   
    55   30   31 1   
    56   31   32 1   
@<TRIPOS>SUBSTRUCTURE
     1 H22         1 TEMP              0 ****  ****    0 ROOT
