@<TRIPOS>MOLECULE
H23
   45    44     1     0     0
SMALL
bcc


@<TRIPOS>ATOM
      1 CAA        10.7550    0.3140    0.2960 c3        1 H23     -0.088100
      2 CAI         9.4960   -0.0100   -0.4660 c3        1 H23     -0.081400
      3 CAJ         8.2550    0.3390    0.3280 c3        1 H23     -0.078400
      4 CAK         6.9930    0.0110   -0.4410 c3        1 H23     -0.079400
      5 CAL         5.7520    0.3610    0.3530 c3        1 H23     -0.079400
      6 CAM         4.4890    0.0330   -0.4160 c3        1 H23     -0.079400
      7 CAN         3.2450    0.3810    0.3770 c3        1 H23     -0.079400
      8 CAO         1.9790    0.0520   -0.3900 c3        1 H23     -0.079400
      9 CAP         0.7310    0.3960    0.4020 c3        1 H23     -0.068400
     10 CAQ        -0.5330    0.0510   -0.3670 c3        1 H23     -0.076400
     11 CAR        -1.7810    0.3820    0.4430 c3        1 H23     -0.057400
     12 CAS        -3.0880    0.0410   -0.2430 c3        1 H23     -0.163600
     13 PAT        -3.5670   -1.5590    0.7390 p5        1 H23      1.249700
     14 OAE        -3.7990   -1.1580    2.1880 o         1 H23     -0.984833
     15 OAF        -4.7740   -2.2740    0.1610 o         1 H23     -0.984833
     16 OAB        -2.3240   -2.4440    0.6530 o         1 H23     -0.984833
     17 PAU        -3.7780    1.6760   -0.7030 p5        1 H23      1.249700
     18 OAG        -3.4950    2.7100    0.3860 o         1 H23     -0.984833
     19 OAH        -2.9470    2.0140   -1.9540 o         1 H23     -0.984833
     20 OAC        -5.2560    1.6560   -1.0500 o         1 H23     -0.984833
     21 OAD        -2.8930   -0.6040   -1.4870 oh        1 H23     -0.633800
     22 HAA1       10.7990    1.4040    0.5360 hc        1 H23      0.021700
     23 HAA2       10.7910   -0.2560    1.2560 hc        1 H23      0.021700
     24 HAA3       11.6580    0.0490   -0.3060 hc        1 H23      0.021700
     25 HAI1        9.4880    0.5520   -1.4370 hc        1 H23      0.035200
     26 HAI2        9.4800   -1.1030   -0.7190 hc        1 H23      0.035200
     27 HAJ1        8.2590   -0.2240    1.2980 hc        1 H23      0.035200
     28 HAJ2        8.2670    1.4320    0.5810 hc        1 H23      0.035200
     29 HAK1        6.9870    0.5740   -1.4120 hc        1 H23      0.034200
     30 HAK2        6.9800   -1.0810   -0.6940 hc        1 H23      0.034200
     31 HAL1        5.7560   -0.2020    1.3230 hc        1 H23      0.032200
     32 HAL2        5.7630    1.4540    0.6050 hc        1 H23      0.032200
     33 HAM1        4.4830    0.5960   -1.3860 hc        1 H23      0.031200
     34 HAM2        4.4760   -1.0600   -0.6680 hc        1 H23      0.031200
     35 HAN1        3.2490   -0.1820    1.3460 hc        1 H23      0.026700
     36 HAN2        3.2560    1.4740    0.6280 hc        1 H23      0.026700
     37 HAO1        1.9730    0.6160   -1.3590 hc        1 H23      0.027700
     38 HAO2        1.9660   -1.0410   -0.6390 hc        1 H23      0.027700
     39 HAP1        0.7390   -0.1690    1.3700 hc        1 H23      0.017700
     40 HAP2        0.7400    1.4900    0.6470 hc        1 H23      0.017700
     41 HAQ1       -0.5500    0.6230   -1.3310 hc        1 H23      0.049700
     42 HAQ2       -0.5490   -1.0450   -0.6040 hc        1 H23      0.049700
     43 HAR1       -1.7110   -0.1750    1.4210 hc        1 H23      0.026700
     44 HAR2       -1.7550    1.4810    0.6940 hc        1 H23      0.026700
     45 HOAD       -2.6450    0.0760   -2.1370 ho        1 H23      0.356000
@<TRIPOS>BOND
     1    1    2 1   
     2    1   22 1   
     3    1   23 1   
     4    1   24 1   
     5    2    3 1   
     6    2   25 1   
     7    2   26 1   
     8    3    4 1   
     9    3   27 1   
    10    3   28 1   
    11    4    5 1   
    12    4   29 1   
    13    4   30 1   
    14    5    6 1   
    15    5   31 1   
    16    5   32 1   
    17    6    7 1   
    18    6   33 1   
    19    6   34 1   
    20    7    8 1   
    21    7   35 1   
    22    7   36 1   
    23    8    9 1   
    24    8   37 1   
    25    8   38 1   
    26    9   10 1   
    27    9   39 1   
    28    9   40 1   
    29   10   11 1   
    30   10   41 1   
    31   10   42 1   
    32   11   12 1   
    33   11   43 1   
    34   11   44 1   
    35   12   13 1   
    36   12   17 1   
    37   12   21 1   
    38   13   14 1   
    39   13   15 1   
    40   13   16 1   
    41   17   18 1   
    42   17   19 1   
    43   17   20 1   
    44   21   45 1   
@<TRIPOS>SUBSTRUCTURE
     1 H23         1 TEMP              0 ****  ****    0 ROOT
