@<TRIPOS>MOLECULE
H23
   45    44     1     0     0
SMALL
bcc


@<TRIPOS>ATOM
      1 CAA         0.0120   -0.1420    0.0830 c3        1 H23     -0.088100
      2 CAI         1.4890   -0.4330    0.1600 c3        1 H23     -0.081400
      3 CAJ         2.0750   -0.0060    1.4900 c3        1 H23     -0.078400
      4 CAK         3.5580   -0.3010    1.5630 c3        1 H23     -0.079400
      5 CAL         4.1440    0.1260    2.8920 c3        1 H23     -0.079400
      6 CAM         5.6280   -0.1690    2.9670 c3        1 H23     -0.079400
      7 CAN         6.2170    0.2580    4.2960 c3        1 H23     -0.079400
      8 CAO         7.7030   -0.0350    4.3720 c3        1 H23     -0.079400
      9 CAP         8.2980    0.3950    5.7000 c3        1 H23     -0.068400
     10 CAQ         9.7890    0.1100    5.7650 c3        1 H23     -0.076400
     11 CAR        10.3820    0.5630    7.0940 c3        1 H23     -0.057400
     12 CAS        11.8750    0.3390    7.2280 c3        1 H23     -0.163600
     13 PAT        12.5020    2.1560    6.9800 p5        1 H23      1.249700
     14 OAE        11.9680    2.9890    8.1360 o         1 H23     -0.984833
     15 OAF        14.0120    2.2550    6.8760 o         1 H23     -0.984833
     16 OAB        11.8400    2.6120    5.6800 o         1 H23     -0.984833
     17 PAU        12.0010   -1.0490    8.4180 p5        1 H23      1.249700
     18 OAG        10.9370   -0.9290    9.5080 o         1 H23     -0.984833
     19 OAH        11.6730   -2.2530    7.5160 o         1 H23     -0.984833
     20 OAC        13.3790   -1.2220    9.0340 o         1 H23     -0.984833
     21 OAD        12.4520   -0.1780    6.0450 oh        1 H23     -0.633800
     22 HAA1       -0.4000   -0.4630   -0.9040 hc        1 H23      0.021700
     23 HAA2       -0.5380   -0.6850    0.8890 hc        1 H23      0.021700
     24 HAA3       -0.1790    0.9520    0.2060 hc        1 H23      0.021700
     25 HAI1        2.0220    0.1010   -0.6700 hc        1 H23      0.035200
     26 HAI2        1.6640   -1.5310    0.0110 hc        1 H23      0.035200
     27 HAJ1        1.5450   -0.5400    2.3220 hc        1 H23      0.035200
     28 HAJ2        1.9030    1.0920    1.6400 hc        1 H23      0.035200
     29 HAK1        3.7310   -1.3990    1.4130 hc        1 H23      0.034200
     30 HAK2        4.0890    0.2330    0.7320 hc        1 H23      0.034200
     31 HAL1        3.6150   -0.4080    3.7250 hc        1 H23      0.032200
     32 HAL2        3.9730    1.2240    3.0430 hc        1 H23      0.032200
     33 HAM1        5.8000   -1.2670    2.8170 hc        1 H23      0.031200
     34 HAM2        6.1590    0.3650    2.1350 hc        1 H23      0.031200
     35 HAN1        6.0470    1.3560    4.4450 hc        1 H23      0.026700
     36 HAN2        5.6880   -0.2770    5.1280 hc        1 H23      0.026700
     37 HAO1        8.2330    0.5010    3.5420 hc        1 H23      0.027700
     38 HAO2        7.8750   -1.1330    4.2250 hc        1 H23      0.027700
     39 HAP1        7.7730   -0.1440    6.5310 hc        1 H23      0.017700
     40 HAP2        8.1260    1.4930    5.8460 hc        1 H23      0.017700
     41 HAQ1       10.3180    0.6570    4.9400 hc        1 H23      0.049700
     42 HAQ2        9.9630   -0.9890    5.6310 hc        1 H23      0.049700
     43 HAR1        9.8380    0.0240    7.9210 hc        1 H23      0.026700
     44 HAR2       10.1510    1.6600    7.2150 hc        1 H23      0.026700
     45 HOAD       12.2410   -1.1270    6.0020 ho        1 H23      0.356000
@<TRIPOS>BOND
     1    1    2 1   
     2    1   22 1   
     3    1   23 1   
     4    1   24 1   
     5    2    3 1   
     6    2   25 1   
     7    2   26 1   
     8    3    4 1   
     9    3   27 1   
    10    3   28 1   
    11    4    5 1   
    12    4   29 1   
    13    4   30 1   
    14    5    6 1   
    15    5   31 1   
    16    5   32 1   
    17    6    7 1   
    18    6   33 1   
    19    6   34 1   
    20    7    8 1   
    21    7   35 1   
    22    7   36 1   
    23    8    9 1   
    24    8   37 1   
    25    8   38 1   
    26    9   10 1   
    27    9   39 1   
    28    9   40 1   
    29   10   11 1   
    30   10   41 1   
    31   10   42 1   
    32   11   12 1   
    33   11   43 1   
    34   11   44 1   
    35   12   13 1   
    36   12   17 1   
    37   12   21 1   
    38   13   14 1   
    39   13   15 1   
    40   13   16 1   
    41   17   18 1   
    42   17   19 1   
    43   17   20 1   
    44   21   45 1   
@<TRIPOS>SUBSTRUCTURE
     1 H23         1 TEMP              0 ****  ****    0 ROOT
