@<TRIPOS>MOLECULE
H23
   45    44     1     0     0
SMALL
bcc


@<TRIPOS>ATOM
      1 CAA         0.0690   -0.1910   -0.0070 c3        1 H23     -0.088100
      2 CAI         1.5540   -0.4370    0.0760 c3        1 H23     -0.081400
      3 CAJ         2.1110   -0.0490    1.4290 c3        1 H23     -0.078400
      4 CAK         3.6020   -0.2980    1.5080 c3        1 H23     -0.079400
      5 CAL         4.1600    0.0900    2.8610 c3        1 H23     -0.079400
      6 CAM         5.6520   -0.1580    2.9410 c3        1 H23     -0.079400
      7 CAN         6.2120    0.2300    4.2940 c3        1 H23     -0.079400
      8 CAO         7.7060   -0.0150    4.3750 c3        1 H23     -0.079400
      9 CAP         8.2720    0.3760    5.7280 c3        1 H23     -0.068400
     10 CAQ         9.7710    0.1400    5.7980 c3        1 H23     -0.076400
     11 CAR        10.3340    0.5530    7.1530 c3        1 H23     -0.057400
     12 CAS        11.8320    0.3750    7.2950 c3        1 H23     -0.163600
     13 PAT        12.3980    2.2220    7.1350 p5        1 H23      1.249700
     14 OAE        11.8220    2.9830    8.3200 o         1 H23     -0.984833
     15 OAF        13.9040    2.3780    7.0530 o         1 H23     -0.984833
     16 OAB        11.7340    2.7120    5.8490 o         1 H23     -0.984833
     17 PAU        11.9950   -1.0600    8.4230 p5        1 H23      1.249700
     18 OAG        13.3720   -1.2120    9.0470 o         1 H23     -0.984833
     19 OAH        10.9160   -1.0260    9.5040 o         1 H23     -0.984833
     20 OAC        11.7190   -2.2320    7.4650 o         1 H23     -0.984833
     21 OAD        12.4400   -0.0680    6.0960 oh        1 H23     -0.633800
     22 HAA1       -0.3220   -0.4830   -1.0120 hc        1 H23      0.021700
     23 HAA2       -0.4720   -0.7860    0.7680 hc        1 H23      0.021700
     24 HAA3       -0.1600    0.8890    0.1600 hc        1 H23      0.021700
     25 HAI1        2.0780    0.1500   -0.7240 hc        1 H23      0.035200
     26 HAI2        1.7670   -1.5210   -0.1180 hc        1 H23      0.035200
     27 HAJ1        1.5900   -0.6360    2.2310 hc        1 H23      0.035200
     28 HAJ2        1.9010    1.0350    1.6250 hc        1 H23      0.035200
     29 HAK1        3.8130   -1.3820    1.3130 hc        1 H23      0.034200
     30 HAK2        4.1240    0.2890    0.7070 hc        1 H23      0.034200
     31 HAL1        3.6400   -0.4970    3.6640 hc        1 H23      0.032200
     32 HAL2        3.9500    1.1750    3.0570 hc        1 H23      0.032200
     33 HAM1        5.8630   -1.2420    2.7460 hc        1 H23      0.031200
     34 HAM2        6.1730    0.4300    2.1400 hc        1 H23      0.031200
     35 HAN1        6.0020    1.3150    4.4890 hc        1 H23      0.026700
     36 HAN2        5.6930   -0.3580    5.0960 hc        1 H23      0.026700
     37 HAO1        8.2260    0.5750    3.5750 hc        1 H23      0.027700
     38 HAO2        7.9170   -1.0990    4.1820 hc        1 H23      0.027700
     39 HAP1        7.7570   -0.2170    6.5280 hc        1 H23      0.017700
     40 HAP2        8.0600    1.4600    5.9200 hc        1 H23      0.017700
     41 HAQ1       10.2890    0.7410    5.0050 hc        1 H23      0.049700
     42 HAQ2        9.9850   -0.9450    5.6180 hc        1 H23      0.049700
     43 HAR1        9.8010   -0.0410    7.9490 hc        1 H23      0.026700
     44 HAR2       10.0640    1.6350    7.3200 hc        1 H23      0.026700
     45 HOAD       12.2620   -1.0200    6.0090 ho        1 H23      0.356000
@<TRIPOS>BOND
     1    1    2 1   
     2    1   22 1   
     3    1   23 1   
     4    1   24 1   
     5    2    3 1   
     6    2   25 1   
     7    2   26 1   
     8    3    4 1   
     9    3   27 1   
    10    3   28 1   
    11    4    5 1   
    12    4   29 1   
    13    4   30 1   
    14    5    6 1   
    15    5   31 1   
    16    5   32 1   
    17    6    7 1   
    18    6   33 1   
    19    6   34 1   
    20    7    8 1   
    21    7   35 1   
    22    7   36 1   
    23    8    9 1   
    24    8   37 1   
    25    8   38 1   
    26    9   10 1   
    27    9   39 1   
    28    9   40 1   
    29   10   11 1   
    30   10   41 1   
    31   10   42 1   
    32   11   12 1   
    33   11   43 1   
    34   11   44 1   
    35   12   13 1   
    36   12   17 1   
    37   12   21 1   
    38   13   14 1   
    39   13   15 1   
    40   13   16 1   
    41   17   18 1   
    42   17   19 1   
    43   17   20 1   
    44   21   45 1   
@<TRIPOS>SUBSTRUCTURE
     1 H23         1 TEMP              0 ****  ****    0 ROOT
