@<TRIPOS>MOLECULE
H24
   46    48     1     0     0
SMALL
bcc


@<TRIPOS>ATOM
      1 C1          0.2540   -0.5810   -0.2840 c3        1 H24      0.111700
      2 O2          1.5790   -0.0620   -0.1930 os        1 H24     -0.337900
      3 C3          2.0990    0.0530    1.0810 ca        1 H24      0.124100
      4 C4          1.3460   -0.0570    2.2570 ca        1 H24     -0.186000
      5 C5          1.9840    0.1130    3.4850 ca        1 H24     -0.088000
      6 C6          3.3460    0.3930    3.5490 ca        1 H24     -0.147000
      7 C7          4.1000    0.5020    2.3700 cp        1 H24     -0.028000
      8 C8          3.4770    0.3260    1.1310 ca        1 H24     -0.158000
      9 C9          5.5300    0.8000    2.4340 cp        1 H24     -0.018000
     10 C10         6.3410    0.2220    3.4180 ca        1 H24     -0.095000
     11 C11         7.7020    0.5220    3.4610 ca        1 H24     -0.111000
     12 C12         8.2620    1.3970    2.5340 ca        1 H24     -0.119000
     13 C13         7.4620    1.9880    1.5450 ca        1 H24     -0.114300
     14 C14         8.1260    2.9350    0.5530 c3        1 H24      0.213500
     15 C15         9.2710    2.1770   -0.1530 c3        1 H24     -0.083100
     16 C18         8.7550    4.1220    1.3250 c3        1 H24     -0.181400
     17 C19         7.7890    5.2320    1.6580 c         1 H24      0.718500
     18 O20         7.9020    5.9700    2.6380 o         1 H24     -0.526500
     19 N21         6.7130    5.4680    0.7460 n         1 H24     -0.439300
     20 C22         5.6840    6.4260    1.0420 c3        1 H24      0.042300
     21 C23         6.5690    4.5320   -0.3010 c2        1 H24      0.546800
     22 N24         5.6050    4.9180   -1.4010 n4        1 H24     -0.810600
     23 N25         7.1900    3.4040   -0.4780 n2        1 H24     -0.575900
     24 C26         6.1020    1.6780    1.4990 ca        1 H24     -0.115000
     25 H1C1        0.0990   -0.7040   -1.3860 h1        1 H24      0.050700
     26 H1C2       -0.4770    0.1500    0.1380 h1        1 H24      0.050700
     27 H1C3        0.1750   -1.5640    0.2390 h1        1 H24      0.050700
     28 H4          0.2710   -0.2810    2.2220 ha        1 H24      0.149000
     29 H8          4.0500    0.3720    0.1940 ha        1 H24      0.142000
     30 H5          1.4000    0.0250    4.4150 ha        1 H24      0.146000
     31 H6          3.8330    0.5310    4.5260 ha        1 H24      0.142000
     32 H10         5.9050   -0.4760    4.1500 ha        1 H24      0.156000
     33 H26         5.4380    2.1010    0.7320 ha        1 H24      0.119000
     34 H11         8.3400    0.0610    4.2310 ha        1 H24      0.153000
     35 H12         9.3410    1.6120    2.5880 ha        1 H24      0.138000
     36 H151        9.7530    2.8130   -0.9330 hc        1 H24      0.065367
     37 H152        8.8820    1.2460   -0.6300 hc        1 H24      0.065367
     38 H153       10.0400    1.8990    0.6070 hc        1 H24      0.065367
     39 H181        9.1960    3.7540    2.2910 hc        1 H24      0.115700
     40 H182        9.5890    4.5720    0.7200 hc        1 H24      0.115700
     41 H221        4.6870    5.9270    1.1750 h1        1 H24      0.071700
     42 H222        5.6220    7.1960    0.2270 h1        1 H24      0.071700
     43 H223        5.9430    6.9570    2.0030 h1        1 H24      0.071700
     44 H241        4.6670    5.0310   -1.0000 hn        1 H24      0.478133
     45 H242        5.9090    5.8020   -1.8230 hn        1 H24      0.478133
     46 H243        5.5840    4.1810   -2.1210 hn        1 H24      0.478133
@<TRIPOS>BOND
     1    1    2 1   
     2    1   25 1   
     3    1   26 1   
     4    1   27 1   
     5    2    3 1   
     6    3    4 ar  
     7    3    8 ar  
     8    4    5 ar  
     9    4   28 1   
    10    5    6 ar  
    11    5   30 1   
    12    6    7 ar  
    13    6   31 1   
    14    7    8 ar  
    15    7    9 1   
    16    8   29 1   
    17    9   10 ar  
    18    9   24 ar  
    19   10   11 ar  
    20   10   32 1   
    21   11   12 ar  
    22   11   34 1   
    23   12   13 ar  
    24   12   35 1   
    25   13   14 1   
    26   13   24 ar  
    27   14   15 1   
    28   14   16 1   
    29   14   23 1   
    30   15   36 1   
    31   15   37 1   
    32   15   38 1   
    33   16   17 1   
    34   16   39 1   
    35   16   40 1   
    36   17   18 2   
    37   17   19 1   
    38   19   20 1   
    39   19   21 1   
    40   20   41 1   
    41   20   42 1   
    42   20   43 1   
    43   21   22 1   
    44   21   23 2   
    45   22   44 1   
    46   22   45 1   
    47   22   46 1   
    48   24   33 1   
@<TRIPOS>SUBSTRUCTURE
     1 H24         1 TEMP              0 ****  ****    0 ROOT
