@<TRIPOS>MOLECULE
H24
   46    48     1     0     0
SMALL
bcc


@<TRIPOS>ATOM
      1 C1          0.2630   -0.6000   -0.2660 c3        1 H24      0.111700
      2 O2          1.5860   -0.0780   -0.1780 os        1 H24     -0.337900
      3 C3          2.1060    0.0470    1.0960 ca        1 H24      0.124100
      4 C4          1.3530   -0.0570    2.2720 ca        1 H24     -0.186000
      5 C5          1.9890    0.1230    3.4990 ca        1 H24     -0.088000
      6 C6          3.3510    0.4070    3.5610 ca        1 H24     -0.147000
      7 C7          4.1050    0.5090    2.3820 cp        1 H24     -0.028000
      8 C8          3.4830    0.3230    1.1440 ca        1 H24     -0.158000
      9 C9          5.5350    0.8100    2.4440 cp        1 H24     -0.018000
     10 C10         6.3460    0.2410    3.4330 ca        1 H24     -0.095000
     11 C11         7.7070    0.5430    3.4740 ca        1 H24     -0.111000
     12 C12         8.2660    1.4130    2.5410 ca        1 H24     -0.119000
     13 C13         7.4650    1.9950    1.5480 ca        1 H24     -0.114300
     14 C14         8.1270    2.9360    0.5490 c3        1 H24      0.213500
     15 C15         9.2730    2.1750   -0.1520 c3        1 H24     -0.083100
     16 C18         8.7550    4.1290    1.3120 c3        1 H24     -0.181400
     17 C19         7.7880    5.2400    1.6380 c         1 H24      0.718500
     18 O20         7.9010    5.9850    2.6130 o         1 H24     -0.526500
     19 N21         6.7120    5.4680    0.7250 n         1 H24     -0.439300
     20 C22         5.6820    6.4280    1.0150 c3        1 H24      0.042300
     21 C23         6.5680    4.5250   -0.3150 c2        1 H24      0.546800
     22 N24         5.6030    4.9030   -1.4180 n4        1 H24     -0.810600
     23 N25         7.1910    3.3970   -0.4850 n2        1 H24     -0.575900
     24 C26         6.1050    1.6820    1.5040 ca        1 H24     -0.115000
     25 H1C1        0.1080   -0.7310   -1.3670 h1        1 H24      0.050700
     26 H1C2        0.1850   -1.5800    0.2640 h1        1 H24      0.050700
     27 H1C3       -0.4710    0.1330    0.1510 h1        1 H24      0.050700
     28 H4          0.2780   -0.2820    2.2380 ha        1 H24      0.149000
     29 H8          4.0560    0.3630    0.2070 ha        1 H24      0.142000
     30 H5          1.4060    0.0400    4.4290 ha        1 H24      0.146000
     31 H6          3.8370    0.5520    4.5370 ha        1 H24      0.142000
     32 H10         5.9110   -0.4530    4.1700 ha        1 H24      0.156000
     33 H26         5.4410    2.0980    0.7330 ha        1 H24      0.119000
     34 H11         8.3460    0.0890    4.2480 ha        1 H24      0.153000
     35 H12         9.3440    1.6290    2.5930 ha        1 H24      0.138000
     36 H151       10.0420    1.9020    0.6100 hc        1 H24      0.065367
     37 H152        9.7550    2.8060   -0.9360 hc        1 H24      0.065367
     38 H153        8.8850    1.2400   -0.6240 hc        1 H24      0.065367
     39 H181        9.1970    3.7680    2.2810 hc        1 H24      0.115700
     40 H182        9.5890    4.5760    0.7030 hc        1 H24      0.115700
     41 H221        5.6180    7.1920    0.1940 h1        1 H24      0.071700
     42 H222        4.6850    5.9280    1.1520 h1        1 H24      0.071700
     43 H223        5.9400    6.9650    1.9720 h1        1 H24      0.071700
     44 H241        5.9060    5.7840   -1.8460 hn        1 H24      0.478133
     45 H242        5.5840    4.1610   -2.1330 hn        1 H24      0.478133
     46 H243        4.6650    5.0170   -1.0180 hn        1 H24      0.478133
@<TRIPOS>BOND
     1    1    2 1   
     2    1   25 1   
     3    1   26 1   
     4    1   27 1   
     5    2    3 1   
     6    3    4 ar  
     7    3    8 ar  
     8    4    5 ar  
     9    4   28 1   
    10    5    6 ar  
    11    5   30 1   
    12    6    7 ar  
    13    6   31 1   
    14    7    8 ar  
    15    7    9 1   
    16    8   29 1   
    17    9   10 ar  
    18    9   24 ar  
    19   10   11 ar  
    20   10   32 1   
    21   11   12 ar  
    22   11   34 1   
    23   12   13 ar  
    24   12   35 1   
    25   13   14 1   
    26   13   24 ar  
    27   14   15 1   
    28   14   16 1   
    29   14   23 1   
    30   15   36 1   
    31   15   37 1   
    32   15   38 1   
    33   16   17 1   
    34   16   39 1   
    35   16   40 1   
    36   17   18 2   
    37   17   19 1   
    38   19   20 1   
    39   19   21 1   
    40   20   41 1   
    41   20   42 1   
    42   20   43 1   
    43   21   22 1   
    44   21   23 2   
    45   22   44 1   
    46   22   45 1   
    47   22   46 1   
    48   24   33 1   
@<TRIPOS>SUBSTRUCTURE
     1 H24         1 TEMP              0 ****  ****    0 ROOT
