@<TRIPOS>MOLECULE
H24
   46    48     1     0     0
SMALL
bcc


@<TRIPOS>ATOM
      1 C1          0.2630   -0.6020   -0.2760 c3        1 H24      0.111700
      2 O2          1.5860   -0.0790   -0.1870 os        1 H24     -0.337900
      3 C3          2.1060    0.0420    1.0880 ca        1 H24      0.124100
      4 C4          1.3530   -0.0670    2.2630 ca        1 H24     -0.186000
      5 C5          1.9890    0.1090    3.4910 ca        1 H24     -0.088000
      6 C6          3.3510    0.3940    3.5540 ca        1 H24     -0.147000
      7 C7          4.1040    0.5010    2.3760 cp        1 H24     -0.028000
      8 C8          3.4820    0.3200    1.1370 ca        1 H24     -0.158000
      9 C9          5.5340    0.8040    2.4380 cp        1 H24     -0.018000
     10 C10         6.3470    0.2320    3.4250 ca        1 H24     -0.095000
     11 C11         7.7060    0.5360    3.4660 ca        1 H24     -0.111000
     12 C12         8.2640    1.4100    2.5370 ca        1 H24     -0.119000
     13 C13         7.4630    1.9950    1.5460 ca        1 H24     -0.114300
     14 C14         8.1230    2.9400    0.5510 c3        1 H24      0.213500
     15 C15         9.2690    2.1830   -0.1540 c3        1 H24     -0.083100
     16 C18         8.7500    4.1310    1.3180 c3        1 H24     -0.181400
     17 C19         7.7820    5.2400    1.6490 c         1 H24      0.718500
     18 O20         7.8940    5.9810    2.6270 o         1 H24     -0.526500
     19 N21         6.7050    5.4710    0.7370 n         1 H24     -0.439300
     20 C22         5.6740    6.4280    1.0320 c3        1 H24      0.042300
     21 C23         6.5620    4.5320   -0.3070 c2        1 H24      0.546800
     22 N24         5.5960    4.9120   -1.4070 nz        1 H24     -0.810600
     23 N25         7.1860    3.4050   -0.4810 n2        1 H24     -0.575900
     24 C26         6.1030    1.6800    1.5010 ca        1 H24     -0.115000
     25 H1C1        0.1870   -1.5840    0.2500 h1        1 H24      0.050700
     26 H1C2       -0.4710    0.1280    0.1440 h1        1 H24      0.050700
     27 H1C3        0.1080   -0.7290   -1.3770 h1        1 H24      0.050700
     28 H4          0.2780   -0.2940    2.2290 ha        1 H24      0.149000
     29 H8          4.0550    0.3640    0.2000 ha        1 H24      0.142000
     30 H5          1.4060    0.0210    4.4210 ha        1 H24      0.146000
     31 H6          3.8370    0.5360    4.5310 ha        1 H24      0.142000
     32 H10         5.9120   -0.4650    4.1590 ha        1 H24      0.156000
     33 H26         5.4380    2.0990    0.7320 ha        1 H24      0.119000
     34 H11         8.3460    0.0790    4.2380 ha        1 H24      0.153000
     35 H12         9.3420    1.6270    2.5890 ha        1 H24      0.138000
     36 H151        8.8820    1.2500   -0.6290 hc        1 H24      0.065367
     37 H152        9.7500    2.8180   -0.9360 hc        1 H24      0.065367
     38 H153       10.0390    1.9090    0.6070 hc        1 H24      0.065367
     39 H181        9.5830    4.5810    0.7110 hc        1 H24      0.115700
     40 H182        9.1930    3.7670    2.2850 hc        1 H24      0.115700
     41 H221        4.6780    5.9260    1.1670 h1        1 H24      0.071700
     42 H222        5.9320    6.9610    1.9910 h1        1 H24      0.071700
     43 H223        5.6090    7.1950    0.2140 h1        1 H24      0.071700
     44 H241        4.6580    5.0240   -1.0060 hn        1 H24      0.478133
     45 H242        5.8980    5.7960   -1.8320 hn        1 H24      0.478133
     46 H243        5.5770    4.1730   -2.1250 hn        1 H24      0.478133
@<TRIPOS>BOND
     1    1    2 1   
     2    1   25 1   
     3    1   26 1   
     4    1   27 1   
     5    2    3 1   
     6    3    4 ar  
     7    3    8 ar  
     8    4    5 ar  
     9    4   28 1   
    10    5    6 ar  
    11    5   30 1   
    12    6    7 ar  
    13    6   31 1   
    14    7    8 ar  
    15    7    9 1   
    16    8   29 1   
    17    9   10 ar  
    18    9   24 ar  
    19   10   11 ar  
    20   10   32 1   
    21   11   12 ar  
    22   11   34 1   
    23   12   13 ar  
    24   12   35 1   
    25   13   14 1   
    26   13   24 ar  
    27   14   15 1   
    28   14   16 1   
    29   14   23 1   
    30   15   36 1   
    31   15   37 1   
    32   15   38 1   
    33   16   17 1   
    34   16   39 1   
    35   16   40 1   
    36   17   18 2   
    37   17   19 1   
    38   19   20 1   
    39   19   21 1   
    40   20   41 1   
    41   20   42 1   
    42   20   43 1   
    43   21   22 1   
    44   21   23 2   
    45   22   44 1   
    46   22   45 1   
    47   22   46 1   
    48   24   33 1   
@<TRIPOS>SUBSTRUCTURE
     1 H24         1 TEMP              0 ****  ****    0 ROOT
