@<TRIPOS>MOLECULE
H24
   45    41     1     0     0
SMALL
bcc


@<TRIPOS>ATOM
      1 C1         -3.1680    6.0660   -0.1820 c3        1 H24     -0.076000
      2 O2         -3.1680    4.7420   -0.6460 os        1 H24     -0.212000
      3 C3         -1.8840    4.1430   -0.6810 c2        1 H24      0.078000
      4 C4         -0.8790    4.6930   -1.4630 c2        1 H24     -0.202000
      5 C5          0.3720    4.0390   -1.5700 c1        1 H24     -0.097000
      6 C6          0.5910    2.8320   -0.8840 c1        1 H24     -0.133500
      7 C7         -0.4140    2.2870   -0.1050 c1        1 H24     -0.025500
      8 C8         -1.6600    2.9410    0.0000 c1        1 H24     -0.147000
      9 C9         -0.1970    1.1310    0.5740 c1        1 H24     -0.025500
     10 C10         0.2050    1.1760    1.8880 c1        1 H24     -0.133500
     11 C11         0.4000   -0.0140    2.6020 c1        1 H24     -0.128500
     12 C12         0.1850   -1.2550    1.9750 c1        1 H24     -0.128500
     13 C13        -0.2140   -1.3000    0.6680 c1        1 H24     -0.084000
     14 C14        -0.5250   -2.6660   -0.0040 c3        1 H24      0.078000
     15 C15        -2.0280   -2.6320   -0.2390 c3        1 H24     -0.194000
     16 C18        -0.1070   -3.6800    1.0160 c3        1 H24     -0.205000
     17 C19         1.3790   -3.9530    1.0340 c2        1 H24      0.316000
     18 O20         1.8570   -4.6910    1.9040 o         1 H24     -0.346000
     19 N21         2.2010   -3.5180   -0.0590 n         1 H24     -0.321000
     20 C22         3.6070   -3.7980   -0.0450 c3        1 H24     -0.083000
     21 C23         1.6200   -2.9210   -1.1730 c2        1 H24      0.202000
     22 N24         2.4570   -2.5400   -2.3320 n3        1 H24     -0.315000
     23 N25         0.2070   -2.6360   -1.1860 n2        1 H24     -0.280000
     24 C26        -0.4110   -0.0960   -0.0510 c1        1 H24     -0.094000
     25 H1C1       -2.2510    6.3680   -0.0540 h1        1 H24      0.083333
     26 H1C2       -3.6250    6.1100    0.6280 h1        1 H24      0.083333
     27 H1C3       -3.6000    6.6250   -0.8220 h1        1 H24      0.083333
     28 H4         -1.0400    5.5570   -1.9530 ha        1 H24      0.137000
     29 H8         -2.3760    2.5520    0.5550 ha        1 H24      0.152000
     30 H5          1.1000    4.4350   -2.1350 ha        1 H24      0.132000
     31 H6          1.4660    2.3710   -0.9570 ha        1 H24      0.138500
     32 H10         0.3550    2.0350    2.3220 ha        1 H24      0.138500
     33 H26        -0.6890   -0.1240   -0.9600 ha        1 H24      0.147000
     34 H11         0.6760    0.0170    3.5060 ha        1 H24      0.138000
     35 H12         0.3190   -2.0720    2.4660 ha        1 H24      0.138000
     36 H151       -2.4910   -2.6520    0.6140 hc        1 H24      0.084667
     37 H152       -2.2960   -3.4220   -0.7820 hc        1 H24      0.084667
     38 H153       -2.2630   -1.8150   -0.7170 hc        1 H24      0.084667
     39 H181       -0.4890   -4.6080    0.9020 hc        1 H24      0.128500
     40 H182       -0.4360   -3.2930    1.8940 hc        1 H24      0.128500
     41 H221        3.8800   -4.0110    0.8520 h1        1 H24      0.093000
     42 H222        3.7940   -4.5640   -0.6350 h1        1 H24      0.093000
     43 H223        4.1300   -2.9690   -0.3780 h1        1 H24      0.093000
     44 H241        2.0700   -2.2070   -3.0760 hn        1 H24      0.197000
     45 H242        3.3410   -2.6820   -2.3140 hn        1 H24      0.197000
@<TRIPOS>BOND
     1    1    2 1   
     2    1   25 1   
     3    1   26 1   
     4    1   27 1   
     5    2    3 1   
     6    3    4 1   
     7    3    8 1   
     8    4    5 1   
     9    4   28 1   
    10    5   30 1   
    11    6    7 1   
    12    6   31 1   
    13    8   29 1   
    14    9   10 1   
    15   10   32 1   
    16   11   12 1   
    17   11   34 1   
    18   12   35 1   
    19   13   14 1   
    20   13   24 1   
    21   14   15 1   
    22   14   16 1   
    23   14   23 1   
    24   15   36 1   
    25   15   37 1   
    26   15   38 1   
    27   16   17 1   
    28   16   39 1   
    29   16   40 1   
    30   17   18 1   
    31   17   19 1   
    32   19   20 1   
    33   19   21 1   
    34   20   41 1   
    35   20   42 1   
    36   20   43 1   
    37   21   22 1   
    38   21   23 1   
    39   22   44 1   
    40   22   45 1   
    41   24   33 1   
@<TRIPOS>SUBSTRUCTURE
     1 H24         1 TEMP              0 ****  ****    0 ROOT
