@<TRIPOS>MOLECULE
H24
   45    47     1     0     0
SMALL
bcc


@<TRIPOS>ATOM
      1 C1         71.6930   46.7960    0.8530 c3        1 H24      0.113700
      2 O2         71.3050   47.5350    2.0050 os        1 H24     -0.327900
      3 C3         71.9070   47.1680    3.1950 ca        1 H24      0.122100
      4 C4         72.8390   46.1320    3.3240 ca        1 H24     -0.202000
      5 C5         73.3740   45.8600    4.5830 ca        1 H24     -0.098000
      6 C6         72.9940   46.6050    5.6940 ca        1 H24     -0.154000
      7 C7         72.0580   47.6440    5.5630 cp        1 H24     -0.006000
      8 C8         71.5110   47.9280    4.3090 ca        1 H24     -0.144000
      9 C9         71.6590   48.4270    6.7340 cp        1 H24     -0.042000
     10 C10        72.6150   48.8200    7.6780 ca        1 H24     -0.114000
     11 C11        72.2250   49.5700    8.7860 ca        1 H24     -0.132000
     12 C12        70.8900   49.9240    8.9620 ca        1 H24     -0.125000
     13 C13        69.9180   49.5310    8.0300 ca        1 H24     -0.086300
     14 C14        68.4680   49.9510    8.2580 c3        1 H24      0.213500
     15 C15        68.4450   51.4950    8.3370 c3        1 H24     -0.074100
     16 C18        68.0080   49.4210    9.6380 c3        1 H24     -0.175400
     17 C19        67.5380   47.9860    9.5980 c         1 H24      0.709500
     18 O20        67.6210   47.2440   10.5920 o         1 H24     -0.616500
     19 N21        66.9450   47.5210    8.4150 n         1 H24     -0.436300
     20 C22        66.5160   46.1540    8.3030 c3        1 H24      0.075300
     21 C23        66.9280   48.3890    7.2700 c2        1 H24      0.653800
     22 N24        66.1830   47.9350    6.1420 nh        1 H24     -0.881800
     23 N25        67.5740   49.5340    7.1870 n2        1 H24     -0.699900
     24 C26        70.3150   48.7870    6.9150 ca        1 H24     -0.095000
     25 H1C1       71.0960   47.2650    0.0300 h1        1 H24      0.043700
     26 H1C2       72.7870   46.9100    0.6600 h1        1 H24      0.043700
     27 H1C3       71.4270   45.7170    0.9670 h1        1 H24      0.043700
     28 H4         73.1510   45.5350    2.4560 ha        1 H24      0.136000
     29 H8         70.7810   48.7400    4.1780 ha        1 H24      0.155000
     30 H5         74.1060   45.0460    4.6940 ha        1 H24      0.132000
     31 H6         73.4180   46.3770    6.6830 ha        1 H24      0.137000
     32 H10        73.6710   48.5450    7.5400 ha        1 H24      0.136000
     33 H26        69.5850   48.4660    6.1550 ha        1 H24      0.152000
     34 H11        72.9760   49.8850    9.5250 ha        1 H24      0.133000
     35 H12        70.6090   50.5220    9.8420 ha        1 H24      0.129000
     36 H151       69.0450   51.8290    9.2160 hc        1 H24      0.045033
     37 H152       68.8830   51.9330    7.4090 hc        1 H24      0.045033
     38 H153       67.4000   51.8680    8.4530 hc        1 H24      0.045033
     39 H181       68.8360   49.4930   10.3890 hc        1 H24      0.086700
     40 H182       67.1510   50.0430   10.0120 hc        1 H24      0.086700
     41 H221       66.9880   45.6620    7.4110 h1        1 H24      0.054367
     42 H222       66.8130   45.5890    9.2280 h1        1 H24      0.054367
     43 H223       65.3980   46.1090    8.2000 h1        1 H24      0.054367
     44 H241       65.3020   47.5300    6.3790 hn        1 H24      0.405800
     45 H242       66.1120   48.6180    5.4160 hn        1 H24      0.405800
@<TRIPOS>BOND
     1    1    2 1   
     2    1   25 1   
     3    1   26 1   
     4    1   27 1   
     5    2    3 1   
     6    3    4 ar  
     7    3    8 ar  
     8    4    5 ar  
     9    4   28 1   
    10    5    6 ar  
    11    5   30 1   
    12    6    7 ar  
    13    6   31 1   
    14    7    8 ar  
    15    7    9 1   
    16    8   29 1   
    17    9   10 ar  
    18    9   24 ar  
    19   10   11 ar  
    20   10   32 1   
    21   11   12 ar  
    22   11   34 1   
    23   12   13 ar  
    24   12   35 1   
    25   13   14 1   
    26   13   24 ar  
    27   14   15 1   
    28   14   16 1   
    29   14   23 1   
    30   15   36 1   
    31   15   37 1   
    32   15   38 1   
    33   16   17 1   
    34   16   39 1   
    35   16   40 1   
    36   17   18 2   
    37   17   19 1   
    38   19   20 1   
    39   19   21 1   
    40   20   41 1   
    41   20   42 1   
    42   20   43 1   
    43   21   22 1   
    44   21   23 2   
    45   22   44 1   
    46   22   45 1   
    47   24   33 1   
@<TRIPOS>SUBSTRUCTURE
     1 H24         1 TEMP              0 ****  ****    0 ROOT
