@<TRIPOS>MOLECULE
H25
   53    56     1     0     0
SMALL
bcc


@<TRIPOS>ATOM
      1 F3          9.3990   61.4770    2.0240 f         1 H25     -0.116900
      2 C17         8.1840   61.2160    2.5570 ca        1 H25      0.137900
      3 C11         7.6680   59.9140    2.4340 ca        1 H25     -0.133000
      4 C9          6.4280   59.5840    3.0030 ca        1 H25      0.042600
      5 N1          5.9110   58.2600    2.9090 n         1 H25     -0.260200
      6 C21         5.3070   57.7030    4.0260 cc        1 H25      0.012600
      7 C29         4.7420   56.4560    4.0140 cd        1 H25     -0.246000
      8 C30         4.7630   55.6880    2.8090 cd        1 H25     -0.040000
      9 C23         5.3540   56.1940    1.6990 cc        1 H25     -0.251200
     10 C8          5.9790   57.5200    1.6930 c         1 H25      0.690700
     11 O25         6.5490   58.0040    0.6990 o         1 H25     -0.620500
     12 C26         5.6990   60.5850    3.6810 ca        1 H25     -0.146000
     13 C28         6.2020   61.8710    3.7910 ca        1 H25     -0.135000
     14 C16         7.4490   62.2290    3.2350 ca        1 H25      0.023600
     15 N15         7.9310   63.5380    3.3960 n         1 H25     -0.472100
     16 C14         8.5310   64.2940    2.4010 c         1 H25      0.657100
     17 O27         8.7300   63.8620    1.2540 o         1 H25     -0.566100
     18 C22         8.9170   65.7370    2.7580 c3        1 H25      0.084800
     19 N4          9.6510   65.8450    4.0080 n3        1 H25     -0.721600
     20 C31         9.8100   67.2280    4.4640 c3        1 H25      0.152800
     21 C34        11.3090   67.6010    4.4970 c3        1 H25      0.115100
     22 O33        11.4980   68.6840    3.6110 oh        1 H25     -0.605800
     23 C20        10.9740   65.2210    3.9660 c3        1 H25      0.145800
     24 C6         12.0640   66.3310    3.9930 c3        1 H25      0.046700
     25 N7         13.2290   65.9780    4.7570 n         1 H25     -0.554900
     26 C5         14.3400   66.7970    4.7790 c         1 H25      0.710700
     27 O24        14.3500   67.8710    4.1350 o         1 H25     -0.629100
     28 C2         15.5000   66.3490    5.5670 cc        1 H25     -0.209700
     29 C12        15.4630   65.5090    6.6740 cd        1 H25     -0.121000
     30 C19        16.7590   65.2900    7.2100 cd        1 H25     -0.158000
     31 S3         17.0570   66.8410    5.2230 ss        1 H25      0.194200
     32 C10        17.7260   65.9750    6.4830 cc        1 H25     -0.051700
     33 CL1        19.3630   65.9480    6.8160 cl        1 H25     -0.019400
     34 H11         8.2480   59.1680    1.8630 ha        1 H25      0.182000
     35 H26         4.7120   60.3610    4.1160 ha        1 H25      0.142000
     36 H21         5.3170   58.3250    4.9410 h4        1 H25      0.156000
     37 H29         4.2790   56.0460    4.9200 ha        1 H25      0.152000
     38 H30         4.2960   54.6910    2.8090 ha        1 H25      0.142000
     39 H23         5.4040   55.6550    0.7430 ha        1 H25      0.166000
     40 H28         5.6030   62.6300    4.3200 ha        1 H25      0.141000
     41 H15         7.7250   63.9770    4.2650 hn        1 H25      0.332500
     42 H221        9.4900   66.1410    1.8720 h1        1 H25      0.073200
     43 H222        7.9620   66.3290    2.8540 h1        1 H25      0.073200
     44 H201       11.0430   64.5580    4.8730 h1        1 H25      0.065200
     45 H202       11.1060   64.5780    3.0540 h1        1 H25      0.065200
     46 H311        9.2530   67.9640    3.8210 h1        1 H25      0.068200
     47 H312        9.3910   67.2770    5.5060 h1        1 H25      0.068200
     48 H6         12.4020   66.5420    2.9320 h1        1 H25      0.085700
     49 H34        11.6240   67.8970    5.5320 h1        1 H25      0.053700
     50 H33        12.4510   68.8680    3.5920 ho        1 H25      0.436000
     51 H7         13.2020   65.1610    5.3170 hn        1 H25      0.319500
     52 H12        14.5630   65.0690    7.1100 ha        1 H25      0.155000
     53 H19        16.9580   64.6630    8.0820 ha        1 H25      0.169000
@<TRIPOS>BOND
     1    1    2 1   
     2    2    3 ar  
     3    2   14 ar  
     4    3    4 ar  
     5    3   34 1   
     6    4    5 1   
     7    4   12 ar  
     8    5    6 1   
     9    5   10 1   
    10    6    7 2   
    11    6   36 1   
    12    7    8 1   
    13    7   37 1   
    14    8    9 2   
    15    8   38 1   
    16    9   10 1   
    17    9   39 1   
    18   10   11 2   
    19   12   13 ar  
    20   12   35 1   
    21   13   14 ar  
    22   13   40 1   
    23   14   15 1   
    24   15   16 1   
    25   15   41 1   
    26   16   17 2   
    27   16   18 1   
    28   18   19 1   
    29   18   42 1   
    30   18   43 1   
    31   19   20 1   
    32   19   23 1   
    33   20   21 1   
    34   20   46 1   
    35   20   47 1   
    36   21   22 1   
    37   21   24 1   
    38   21   49 1   
    39   22   50 1   
    40   23   24 1   
    41   23   44 1   
    42   23   45 1   
    43   24   25 1   
    44   24   48 1   
    45   25   26 1   
    46   25   51 1   
    47   26   27 2   
    48   26   28 1   
    49   28   29 2   
    50   28   31 1   
    51   29   30 1   
    52   29   52 1   
    53   30   32 2   
    54   30   53 1   
    55   31   32 1   
    56   32   33 1   
@<TRIPOS>SUBSTRUCTURE
     1 H25         1 TEMP              0 ****  ****    0 ROOT
