@<TRIPOS>MOLECULE
H25
   54    57     1     0     0
SMALL
bcc


@<TRIPOS>ATOM
      1 F3          3.0160   -2.2060   -2.7150 f         1 H25     -0.154900
      2 C17         3.0180   -1.2040   -1.7950 ca        1 H25      0.067900
      3 C11         3.3260   -1.5120   -0.4650 ca        1 H25     -0.122000
      4 C9          3.3090   -0.5000    0.5120 ca        1 H25      0.042600
      5 N1          3.5490   -0.8230    1.8770 n         1 H25     -0.261200
      6 C21         4.4100   -0.0270    2.6180 cc        1 H25      0.008600
      7 C29         4.6630   -0.2620    3.9430 cd        1 H25     -0.228000
      8 C30         4.0210   -1.3580    4.5980 cd        1 H25     -0.026000
      9 C23         3.1740   -2.1580    3.9020 cc        1 H25     -0.257200
     10 C8          2.8920   -1.9280    2.4860 c         1 H25      0.700700
     11 O25         2.1190   -2.6390    1.8080 o         1 H25     -0.673500
     12 C26         3.0350    0.8260    0.1210 ca        1 H25     -0.126000
     13 C28         2.7470    1.1340   -1.2020 ca        1 H25     -0.110000
     14 C16         2.7030    0.1310   -2.1890 ca        1 H25      0.017600
     15 N15         2.3470    0.3910   -3.5240 n         1 H25     -0.456100
     16 C14         1.4030    1.3310   -3.9110 c         1 H25      0.656100
     17 O27         1.0880    2.3160   -3.2270 o         1 H25     -0.556100
     18 C22         0.7410    1.1050   -5.2840 c3        1 H25      0.084800
     19 N4          0.0890   -0.1900   -5.3360 n3        1 H25     -0.745600
     20 C31        -0.4760   -0.5420   -6.6380 c3        1 H25      0.118800
     21 C34        -1.6070   -1.5710   -6.3810 c3        1 H25      0.127100
     22 O33        -2.8490   -1.1870   -6.9270 oh        1 H25     -0.582800
     23 C20        -0.9670   -0.3680   -4.3390 c3        1 H25      0.136800
     24 C6         -1.8260   -1.5620   -4.8320 c3        1 H25      0.112500
     25 N7         -1.4060   -2.8540   -4.2110 n4        1 H25     -0.668800
     26 C5         -1.7190   -2.9500   -2.7170 c         1 H25      0.619700
     27 O24        -2.5980   -2.1990   -2.3100 o         1 H25     -0.442100
     28 C2         -0.9320   -3.9120   -2.0070 cc        1 H25     -0.350700
     29 C12        -0.1950   -4.9740   -2.5720 cd        1 H25     -0.089000
     30 C19         0.4370   -5.7460   -1.5900 cd        1 H25     -0.156000
     31 S3         -0.7970   -3.9200   -0.3390 ss        1 H25      0.359200
     32 C10         0.1720   -5.2490   -0.2990 cc        1 H25     -0.016700
     33 CL1         0.7760   -5.9320    1.0900 cl        1 H25      0.061600
     34 H11         3.5440   -2.5580   -0.1930 ha        1 H25      0.176000
     35 H26         3.0330    1.6390    0.8660 ha        1 H25      0.157000
     36 H21         4.8910    0.8050    2.0700 h4        1 H25      0.164000
     37 H29         5.3550    0.3830    4.5010 ha        1 H25      0.164000
     38 H30         4.2310   -1.5350    5.6650 ha        1 H25      0.153000
     39 H23         2.6510   -3.0150    4.3500 ha        1 H25      0.167000
     40 H28         2.5230    2.1810   -1.4750 ha        1 H25      0.184000
     41 H15         2.5720   -0.3320   -4.1740 hn        1 H25      0.330500
     42 H221        1.5270    1.1350   -6.0900 h1        1 H25      0.086700
     43 H222        0.0290    1.9670   -5.4490 h1        1 H25      0.086700
     44 H201       -0.4950   -0.5460   -3.3350 h1        1 H25      0.087700
     45 H202       -1.6480    0.5270   -4.2460 h1        1 H25      0.087700
     46 H311        0.3420   -0.9970   -7.2590 h1        1 H25      0.075700
     47 H312       -0.8930    0.3460   -7.1920 h1        1 H25      0.075700
     48 H6         -2.9170   -1.3950   -4.5870 hx        1 H25      0.154700
     49 H34        -1.3170   -2.5800   -6.7810 h1        1 H25      0.053700
     50 H33        -2.7100   -0.9830   -7.8630 ho        1 H25      0.439000
     51 H7         -1.8880   -3.6240   -4.6870 hn        1 H25      0.459300
     52 H12        -0.1230   -5.2060   -3.6380 ha        1 H25      0.150000
     53 H19         1.0580   -6.6240   -1.7960 ha        1 H25      0.193000
     54 H72        -0.3930   -2.9740   -4.3330 hn        1 H25      0.459300
@<TRIPOS>BOND
     1    1    2 1   
     2    2    3 ar  
     3    2   14 ar  
     4    3    4 ar  
     5    3   34 1   
     6    4    5 1   
     7    4   12 ar  
     8    5    6 1   
     9    5   10 1   
    10    6    7 2   
    11    6   36 1   
    12    7    8 1   
    13    7   37 1   
    14    8    9 2   
    15    8   38 1   
    16    9   10 1   
    17    9   39 1   
    18   10   11 2   
    19   12   13 ar  
    20   12   35 1   
    21   13   14 ar  
    22   13   40 1   
    23   14   15 1   
    24   15   16 1   
    25   15   41 1   
    26   16   17 2   
    27   16   18 1   
    28   18   19 1   
    29   18   42 1   
    30   18   43 1   
    31   19   20 1   
    32   19   23 1   
    33   20   21 1   
    34   20   46 1   
    35   20   47 1   
    36   21   22 1   
    37   21   24 1   
    38   21   49 1   
    39   22   50 1   
    40   23   24 1   
    41   23   44 1   
    42   23   45 1   
    43   24   25 1   
    44   24   48 1   
    45   25   26 1   
    46   25   51 1   
    47   25   54 1   
    48   26   27 2   
    49   26   28 1   
    50   28   29 2   
    51   28   31 1   
    52   29   30 1   
    53   29   52 1   
    54   30   32 2   
    55   30   53 1   
    56   31   32 1   
    57   32   33 1   
@<TRIPOS>SUBSTRUCTURE
     1 H25         1 TEMP              0 ****  ****    0 ROOT
