@<TRIPOS>MOLECULE
H25
   53    49     1     0     0
SMALL
bcc


@<TRIPOS>ATOM
      1 F3          3.6040   -1.5610    1.1000 f         1 H25     -0.083000
      2 C17         3.2710   -0.5840    1.9490 c2        1 H25      0.104000
      3 C11         4.0570   -0.3460    3.0740 c1        1 H25     -0.174000
      4 C9          3.7690    0.7340    3.9070 c1        1 H25      0.048000
      5 N1          4.6860    1.0720    5.0190 n3        1 H25     -0.195000
      6 C21         5.7980    1.9680    4.7900 c2        1 H25      0.011000
      7 C29         6.7700    2.2600    5.9000 c1        1 H25     -0.246000
      8 C30         6.5410    1.7040    7.2360 c1        1 H25     -0.136500
      9 C23         5.4160    0.8000    7.4650 c1        1 H25     -0.136500
     10 C8          4.4560    0.5080    6.3590 c1        1 H25      0.330000
     11 O25         3.4890   -0.2720    6.5570 o         1 H25     -0.353000
     12 C26         2.7010    1.5690    3.6130 c1        1 H25     -0.104000
     13 C28         1.9160    1.3290    2.4860 c1        1 H25     -0.140000
     14 C16         2.2020    0.2530    1.6560 c2        1 H25      0.029000
     15 N15         1.5090    0.1230    0.3680 n         1 H25     -0.315000
     16 C14         0.8470   -1.1450    0.0120 c2        1 H25      0.300000
     17 O27         0.8770   -2.0700    0.7750 o         1 H25     -0.325000
     18 C22         0.2390   -1.3230   -1.3720 c3        1 H25     -0.099000
     19 N4         -1.1490   -0.8000   -1.3770 n3        1 H25     -0.258000
     20 C31        -1.9890   -1.8030   -1.3860 c3        1 H25     -0.089000
     21 C34        -2.2810   -2.1470   -2.9600 c3        1 H25      0.000000
     22 O33        -1.1880   -2.9720   -3.5060 oh        1 H25     -0.326000
     23 C20        -1.4130   -0.0560   -2.6980 c3        1 H25     -0.076000
     24 C6         -2.3260   -1.0320   -3.5650 c3        1 H25     -0.038000
     25 N7         -3.7570   -0.5160   -3.6200 n         1 H25     -0.368000
     26 C5         -4.2990   -0.0590   -4.8570 c2        1 H25      0.382000
     27 O24        -3.6210   -0.0830   -5.8630 o         1 H25     -0.366000
     28 C2         -5.7210    0.4290   -4.9220 c2        1 H25     -0.452000
     29 C12        -6.7970   -0.1810   -5.6780 c1        1 H25     -0.071000
     30 C19        -8.1060    0.7150   -5.4950 c1        1 H25     -0.162000
     31 S3         -6.2840    1.7160   -4.2360 ss        1 H25      0.614000
     32 C10        -7.7740    1.8410   -4.6310 c1        1 H25     -0.362000
     33 CL1        -8.8720    3.0350   -4.0630 cl        1 H25      0.062000
     34 H11         4.8930   -0.8690    3.2120 ha        1 H25      0.155000
     35 H26         2.5030    2.3120    4.1850 ha        1 H25      0.169000
     36 H21         5.9470    2.3350    3.9110 h4        1 H25      0.159000
     37 H29         7.5410    2.8800    5.7400 ha        1 H25      0.153000
     38 H30         7.1380    1.8850    7.9210 ha        1 H25      0.153500
     39 H23         5.2570    0.4130    8.3900 ha        1 H25      0.153500
     40 H28         1.1630    1.9200    2.2810 ha        1 H25      0.143000
     41 H15         1.4820    0.8140   -0.1960 hn        1 H25      0.243000
     42 H221        0.2270   -2.2750   -1.6030 h1        1 H25      0.113500
     43 H222        0.7640   -0.8440   -2.0170 h1        1 H25      0.113500
     44 H201       -1.8890    0.7880   -2.5230 h1        1 H25      0.095500
     45 H202       -0.5450    0.1270   -3.1760 h1        1 H25      0.095500
     46 H311       -2.8300   -1.5450   -0.9320 h1        1 H25      0.113000
     47 H312       -1.5820   -2.5990   -0.9300 h1        1 H25      0.113000
     48 H6         -1.9700   -1.1190   -4.4480 h1        1 H25      0.131000
     49 H34        -3.1370   -2.6160   -3.0470 h1        1 H25      0.089000
     50 H33        -1.5050   -3.6800   -3.8280 ho        1 H25      0.232000
     51 H7         -4.3030   -0.5710   -2.8650 hn        1 H25      0.221000
     52 H12        -6.7310   -1.0000   -6.2090 DU        1 H25      0.177000
     53 H19        -8.9920    0.5360   -5.9000 DU        1 H25      0.177000
@<TRIPOS>BOND
     1    1    2 1   
     2    2    3 1   
     3    2   14 1   
     4    3   34 1   
     5    4    5 1   
     6    4   12 1   
     7    5    6 1   
     8    5   10 1   
     9    6    7 1   
    10    6   36 1   
    11    7   37 1   
    12    8    9 1   
    13    8   38 1   
    14    9   39 1   
    15   10   11 1   
    16   12   35 1   
    17   13   14 1   
    18   13   40 1   
    19   14   15 1   
    20   15   16 1   
    21   15   41 1   
    22   16   17 1   
    23   16   18 1   
    24   18   19 1   
    25   18   42 1   
    26   18   43 1   
    27   19   20 1   
    28   19   23 1   
    29   20   21 1   
    30   20   46 1   
    31   20   47 1   
    32   21   22 1   
    33   21   24 1   
    34   21   49 1   
    35   22   50 1   
    36   23   24 1   
    37   23   44 1   
    38   23   45 1   
    39   24   25 1   
    40   24   48 1   
    41   25   26 1   
    42   25   51 1   
    43   26   27 1   
    44   26   28 1   
    45   28   29 1   
    46   28   31 1   
    47   29   30 1   
    48   30   32 1   
    49   31   32 1   
@<TRIPOS>SUBSTRUCTURE
     1 H25         1 TEMP              0 ****  ****    0 ROOT
