@<TRIPOS>MOLECULE
H25
   55    58     1     0     0
SMALL
bcc


@<TRIPOS>ATOM
      1 F3          3.0790   -1.6700   -2.1900 f         1 H25     -0.134900
      2 C17         3.2970   -0.6030   -1.3830 ca        1 H25      0.169900
      3 C11         3.3690   -0.7830    0.0000 ca        1 H25     -0.151000
      4 C9          3.5900    0.3230    0.8570 ca        1 H25      0.159600
      5 N1          3.6150    0.1530    2.2520 n         1 H25     -0.279200
      6 C21         4.4760    0.9430    3.0250 cc        1 H25     -0.029400
      7 C29         4.5110    0.8630    4.3850 cd        1 H25     -0.175000
      8 C30         3.6430   -0.0500    5.0720 cd        1 H25     -0.025000
      9 C23         2.8000   -0.8370    4.3620 cc        1 H25     -0.232200
     10 C8          2.7390   -0.7800    2.9010 c         1 H25      0.703700
     11 O25         1.9740   -1.4720    2.2060 o         1 H25     -0.630500
     12 C26         3.7720    1.6040    0.2710 ca        1 H25     -0.157000
     13 C28         3.7100    1.7810   -1.1000 ca        1 H25     -0.052000
     14 C16         3.4560    0.6900   -1.9510 ca        1 H25     -0.150400
     15 N15         3.3930    0.8790   -3.3970 n4        1 H25     -0.520200
     16 C14         2.1340    1.6070   -3.8140 c         1 H25      0.539100
     17 O27         2.2690    2.7880   -4.0900 o         1 H25     -0.393100
     18 C22         0.8200    0.8340   -3.8120 c3        1 H25      0.103800
     19 N4          0.9470   -0.4790   -4.4050 n3        1 H25     -0.748600
     20 C31         0.6280   -0.5430   -5.8360 c3        1 H25      0.115800
     21 C34        -0.3360   -1.7270   -6.0920 c3        1 H25      0.120100
     22 O33        -1.4720   -1.3740   -6.8440 oh        1 H25     -0.588800
     23 C20         0.2200   -1.5450   -3.7120 c3        1 H25      0.156800
     24 C6         -0.8700   -2.0920   -4.6770 c3        1 H25      0.087500
     25 N7         -1.1840   -3.5360   -4.5290 n4        1 H25     -0.664800
     26 C5         -1.9750   -3.8640   -3.2530 c         1 H25      0.628700
     27 O24        -1.9690   -2.9770   -2.4060 o         1 H25     -0.462100
     28 C2         -2.5930   -5.1470   -3.2460 cc        1 H25     -0.348700
     29 C12        -2.4820   -6.1580   -4.2280 cd        1 H25     -0.082000
     30 C19        -3.2270   -7.2930   -3.8930 cd        1 H25     -0.147000
     31 S3         -3.5900   -5.6540   -1.9930 ss        1 H25      0.340200
     32 C10        -3.8930   -7.1270   -2.6610 cc        1 H25     -0.012700
     33 CL1        -4.8640   -8.2860   -1.9790 cl        1 H25      0.081600
     34 H11         3.2350   -1.8030    0.4100 ha        1 H25      0.213000
     35 H26         3.9470    2.4890    0.9090 ha        1 H25      0.183000
     36 H21         5.1530    1.6160    2.4670 h4        1 H25      0.164000
     37 H29         5.2090    1.4890    4.9620 ha        1 H25      0.179000
     38 H30         3.6850   -0.0940    6.1740 ha        1 H25      0.172000
     39 H23         2.1140   -1.5630    4.8250 ha        1 H25      0.185000
     40 H28         3.8500    2.7950   -1.5160 ha        1 H25      0.173000
     41 H15         3.4280   -0.0410   -3.8580 hn        1 H25      0.474300
     42 H221        0.0790    1.5040   -4.3510 h1        1 H25      0.119200
     43 H222        0.5010    0.7690   -2.7280 h1        1 H25      0.119200
     44 H201        0.9800   -2.3380   -3.4570 h1        1 H25      0.095200
     45 H202       -0.2680   -1.2090   -2.7550 h1        1 H25      0.095200
     46 H311        1.5940   -0.7130   -6.3870 h1        1 H25      0.088200
     47 H312        0.1600    0.4060   -6.2230 h1        1 H25      0.088200
     48 H6         -1.8410   -1.5330   -4.5020 hx        1 H25      0.147700
     49 H34         0.2140   -2.5750   -6.5830 h1        1 H25      0.069700
     50 H33        -1.1780   -1.0910   -7.7230 ho        1 H25      0.451000
     51 H7         -0.3220   -4.0910   -4.5220 hn        1 H25      0.463300
     52 H12        -1.8910   -6.0990   -5.1460 ha        1 H25      0.154000
     53 H19        -3.2890   -8.2000   -4.5070 ha        1 H25      0.205000
     54 H152        4.2140    1.4320   -3.6890 hn        1 H25      0.474300
     55 H72        -1.7500   -3.8210   -5.3410 hn        1 H25      0.463300
@<TRIPOS>BOND
     1    1    2 1   
     2    2    3 ar  
     3    2   14 ar  
     4    3    4 ar  
     5    3   34 1   
     6    4    5 1   
     7    4   12 ar  
     8    5    6 1   
     9    5   10 1   
    10    6    7 2   
    11    6   36 1   
    12    7    8 1   
    13    7   37 1   
    14    8    9 2   
    15    8   38 1   
    16    9   10 1   
    17    9   39 1   
    18   10   11 2   
    19   12   13 ar  
    20   12   35 1   
    21   13   14 ar  
    22   13   40 1   
    23   14   15 1   
    24   15   16 1   
    25   15   41 1   
    26   15   54 1   
    27   16   17 2   
    28   16   18 1   
    29   18   19 1   
    30   18   42 1   
    31   18   43 1   
    32   19   20 1   
    33   19   23 1   
    34   20   21 1   
    35   20   46 1   
    36   20   47 1   
    37   21   22 1   
    38   21   24 1   
    39   21   49 1   
    40   22   50 1   
    41   23   24 1   
    42   23   44 1   
    43   23   45 1   
    44   24   25 1   
    45   24   48 1   
    46   25   26 1   
    47   25   51 1   
    48   25   55 1   
    49   26   27 2   
    50   26   28 1   
    51   28   29 2   
    52   28   31 1   
    53   29   30 1   
    54   29   52 1   
    55   30   32 2   
    56   30   53 1   
    57   31   32 1   
    58   32   33 1   
@<TRIPOS>SUBSTRUCTURE
     1 H25         1 TEMP              0 ****  ****    0 ROOT
