@<TRIPOS>MOLECULE
H25
   54    57     1     0     0
SMALL
bcc


@<TRIPOS>ATOM
      1 F3          3.0140   -2.0350   -2.8700 f         1 H25     -0.158900
      2 C17         3.0060   -1.1180   -1.8640 ca        1 H25      0.064900
      3 C11         3.4910   -1.4930   -0.6070 ca        1 H25     -0.127000
      4 C9          3.4540   -0.5790    0.4620 ca        1 H25      0.046600
      5 N1          3.8810   -0.9820    1.7570 n         1 H25     -0.262200
      6 C21         4.6860   -0.1290    2.5010 cc        1 H25      0.006600
      7 C29         5.1110   -0.4440    3.7630 cd        1 H25     -0.225000
      8 C30         4.7200   -1.6880    4.3480 cd        1 H25     -0.027000
      9 C23         3.9360   -2.5470    3.6480 cc        1 H25     -0.253200
     10 C8          3.4720   -2.2320    2.2970 c         1 H25      0.701700
     11 O25         2.7490   -2.9910    1.6180 o         1 H25     -0.674500
     12 C26         2.9660    0.7240    0.2330 ca        1 H25     -0.127000
     13 C28         2.5060    1.1030   -1.0220 ca        1 H25     -0.101000
     14 C16         2.5000    0.1950   -2.0980 ca        1 H25      0.015600
     15 N15         2.0100    0.5310   -3.3710 ns        1 H25     -0.456100
     16 C14         0.8660    1.2860   -3.5870 c         1 H25      0.656100
     17 O27         0.3840    2.0610   -2.7480 o         1 H25     -0.558100
     18 C22         0.2040    1.1380   -4.9700 c3        1 H25      0.085800
     19 N4         -0.1090   -0.2500   -5.2500 n3        1 H25     -0.748600
     20 C31        -0.4140   -0.5440   -6.6480 c3        1 H25      0.120800
     21 C34        -1.2620   -1.8400   -6.6640 c3        1 H25      0.129100
     22 O33        -2.4660   -1.7060   -7.3850 oh        1 H25     -0.582800
     23 C20        -1.1840   -0.8060   -4.4310 c3        1 H25      0.137800
     24 C6         -1.7020   -2.0630   -5.1790 c3        1 H25      0.109500
     25 N7         -1.1530   -3.3360   -4.6140 ny        1 H25     -0.666800
     26 C5         -1.9810   -3.8360   -3.4330 c         1 H25      0.615700
     27 O24        -3.1300   -4.1480   -3.7350 o         1 H25     -0.455100
     28 C2         -1.3300   -3.9050   -2.1640 cc        1 H25     -0.324700
     29 C12        -0.0430   -3.4540   -1.8120 cd        1 H25     -0.083000
     30 C19         0.2460   -3.6950   -0.4590 cd        1 H25     -0.146000
     31 S3         -2.1000   -4.5850   -0.8340 ss        1 H25      0.278200
     32 C10        -0.8290   -4.3260    0.1880 cc        1 H25     -0.007700
     33 Cl1        -0.8230   -4.7580    1.7920 cl        1 H25      0.057600
     34 H11         3.8660   -2.5210   -0.4610 ha        1 H25      0.179000
     35 H26         2.9310    1.4600    1.0540 ha        1 H25      0.158000
     36 H21         4.9730    0.8180    2.0060 h4        1 H25      0.164000
     37 H29         5.7520    0.2490    4.3240 ha        1 H25      0.164000
     38 H30         5.0690   -1.9290    5.3650 ha        1 H25      0.154000
     39 H23         3.6050   -3.5190    4.0420 ha        1 H25      0.170000
     40 H28         2.1130    2.1250   -1.1690 ha        1 H25      0.181000
     41 H15         2.3310   -0.0480   -4.1170 hn        1 H25      0.329500
     42 H221       -0.7070    1.8060   -4.9720 h1        1 H25      0.087700
     43 H222        0.9170    1.5120   -5.7580 h1        1 H25      0.087700
     44 H201       -0.7720   -1.0340   -3.4090 h1        1 H25      0.084200
     45 H202       -2.0540   -0.1000   -4.3030 h1        1 H25      0.084200
     46 H311        0.5570   -0.6980   -7.1910 h1        1 H25      0.076200
     47 H312       -0.9830    0.2840   -7.1590 h1        1 H25      0.076200
     48 H6         -2.8310   -2.1270   -5.1290 hx        1 H25      0.154700
     49 H34        -0.6640   -2.6950   -7.0810 h1        1 H25      0.057700
     50 H33        -2.2440   -1.4120   -8.2800 ho        1 H25      0.439000
     51 H7         -1.1910   -4.0560   -5.3460 hn        1 H25      0.459800
     52 H12         0.6790   -2.9620   -2.4740 ha        1 H25      0.162000
     53 H19         1.1920   -3.4250    0.0380 ha        1 H25      0.229000
     54 H72        -0.1770   -3.1970   -4.3340 hn        1 H25      0.459800
@<TRIPOS>BOND
     1    1    2 1   
     2    2    3 ar  
     3    2   14 ar  
     4    3    4 ar  
     5    3   34 1   
     6    4    5 1   
     7    4   12 ar  
     8    5    6 1   
     9    5   10 1   
    10    6    7 2   
    11    6   36 1   
    12    7    8 1   
    13    7   37 1   
    14    8    9 2   
    15    8   38 1   
    16    9   10 1   
    17    9   39 1   
    18   10   11 2   
    19   12   13 ar  
    20   12   35 1   
    21   13   14 ar  
    22   13   40 1   
    23   14   15 1   
    24   15   16 1   
    25   15   41 1   
    26   16   17 2   
    27   16   18 1   
    28   18   19 1   
    29   18   42 1   
    30   18   43 1   
    31   19   20 1   
    32   19   23 1   
    33   20   21 1   
    34   20   46 1   
    35   20   47 1   
    36   21   22 1   
    37   21   24 1   
    38   21   49 1   
    39   22   50 1   
    40   23   24 1   
    41   23   44 1   
    42   23   45 1   
    43   24   25 1   
    44   24   48 1   
    45   25   26 1   
    46   25   51 1   
    47   25   54 1   
    48   26   27 2   
    49   26   28 1   
    50   28   29 2   
    51   28   31 1   
    52   29   30 1   
    53   29   52 1   
    54   30   32 2   
    55   30   53 1   
    56   31   32 1   
    57   32   33 1   
@<TRIPOS>SUBSTRUCTURE
     1 H25         1 TEMP              0 ****  ****    0 ROOT
