@<TRIPOS>MOLECULE
H26
   30    31     1     0     0
SMALL
bcc


@<TRIPOS>ATOM
      1 OAD         5.2340   -0.0290    1.6620 oh        1 H26     -0.803400
      2 PAT         4.8280    0.1680    0.0690 p5        1 H26      1.346600
      3 OAE         5.8950    0.9760   -0.5700 o         1 H26     -0.877500
      4 OAC         4.5780   -1.2460   -0.3140 o         1 H26     -0.877500
      5 CAJ         3.4250    1.1050    0.1950 c3        1 H26     -0.349600
      6 CAH         2.1660    0.2820    0.1510 c3        1 H26      0.150400
      7 OAN         1.1900    1.0200   -0.5960 os        1 H26     -0.443600
      8 CAG        -0.1100    0.4380   -0.5750 c3        1 H26      0.156100
      9 CAI        -0.8160    0.7550    0.6890 c2        1 H26     -0.204800
     10 N9         -2.1070    0.5000    0.9250 na        1 H26      0.122600
     11 C8         -2.8010    0.8250    2.1240 cc        1 H26      0.151700
     12 N7         -4.1220    0.4680    2.1150 nd        1 H26     -0.513300
     13 C4         -3.0740   -0.1040    0.1080 cc        1 H26     -0.115500
     14 C5         -4.3300   -0.1050    0.8960 cd        1 H26     -0.122600
     15 N3         -2.9720   -0.6290   -1.1650 nc        1 H26     -0.508300
     16 C2         -4.0870   -1.1340   -1.6460 cd        1 H26      0.326800
     17 N1         -5.3370   -1.1850   -1.0010 n         1 H26     -0.515400
     18 C6         -5.5180   -0.6800    0.3000 c         1 H26      0.755700
     19 O6         -6.6640   -0.7730    0.8020 o         1 H26     -0.724500
     20 HAJ         3.4460    1.7080    1.1350 hc        1 H26      0.074700
     21 HAJA        3.4030    1.8480   -0.6440 hc        1 H26      0.074700
     22 HAH         2.3620   -0.6980   -0.3680 h1        1 H26      0.038700
     23 HAHA        1.7530    0.0790    1.1770 h1        1 H26      0.038700
     24 HAG        -0.6210    0.9030   -1.4650 h1        1 H26      0.025700
     25 HAGA       -0.0400   -0.6730   -0.7400 h1        1 H26      0.025700
     26 HAI        -0.2550    1.2640    1.4810 h4        1 H26      0.008800
     27 HAIA        5.2380   -0.9490    1.8990 ho        1 H26      0.414000
     28 H8         -2.2860    1.3070    2.9530 h5        1 H26      0.042800
     29 H2         -4.0620   -1.5680   -2.6610 h5        1 H26      0.008800
     30 HN1        -6.1030   -1.6070   -1.4620 hn        1 H26      0.294500
@<TRIPOS>BOND
     1    1    2 1   
     2    1   27 1   
     3    2    3 1   
     4    2    4 1   
     5    2    5 1   
     6    5    6 1   
     7    5   20 1   
     8    5   21 1   
     9    6    7 1   
    10    6   22 1   
    11    6   23 1   
    12    7    8 1   
    13    8    9 1   
    14    8   24 1   
    15    8   25 1   
    16    9   10 2   
    17    9   26 1   
    18   10   11 1   
    19   10   13 1   
    20   11   12 2   
    21   11   28 1   
    22   12   14 1   
    23   13   14 2   
    24   13   15 1   
    25   14   18 1   
    26   15   16 2   
    27   16   17 1   
    28   16   29 1   
    29   17   18 1   
    30   17   30 1   
    31   18   19 2   
@<TRIPOS>SUBSTRUCTURE
     1 H26         1 TEMP              0 ****  ****    0 ROOT
