@<TRIPOS>MOLECULE
H26
   30    31     1     0     0
SMALL
bcc


@<TRIPOS>ATOM
      1 OAD         1.6250    2.2220    1.0270 oh        1 H26     -0.803400
      2 PAT         2.3740    1.1710   -0.0100 p5        1 H26      1.346600
      3 OAE         3.6750    0.7930    0.5950 o         1 H26     -0.878500
      4 OAC         1.2850    0.1770   -0.2040 o         1 H26     -0.878500
      5 CAJ         2.6500    2.1620   -1.3530 c3        1 H26     -0.350600
      6 CAH         1.6160    1.9840   -2.4330 c3        1 H26      0.152400
      7 OAN         2.2930    1.9770   -3.6930 os        1 H26     -0.449600
      8 CAG         1.4460    1.6550   -4.7950 c3        1 H26      0.153100
      9 CAI         0.5240    2.7390   -5.1980 c2        1 H26     -0.221800
     10 N9          0.6790    3.5140   -6.2820 na        1 H26      0.130600
     11 C8          1.7270    3.4890   -7.2360 cc        1 H26      0.163700
     12 N7          1.5550    4.3630   -8.2770 nd        1 H26     -0.516300
     13 C4         -0.2190    4.4790   -6.7670 cc        1 H26     -0.107500
     14 C5          0.3700    4.9900   -8.0260 cd        1 H26     -0.119600
     15 N3         -1.4160    4.9300   -6.2440 nc        1 H26     -0.511300
     16 C2         -2.0130    5.8600   -6.9570 cd        1 H26      0.330800
     17 N1         -1.5590    6.4170   -8.1670 n         1 H26     -0.515400
     18 C6         -0.3450    6.0150   -8.7560 c         1 H26      0.754700
     19 O6         -0.0150    6.5690   -9.8320 o         1 H26     -0.721500
     20 HAJ         2.6840    3.2340   -1.0420 hc        1 H26      0.076700
     21 HAJA        3.6630    1.9360   -1.7760 hc        1 H26      0.076700
     22 HAH         0.8650    2.8210   -2.4480 h1        1 H26      0.036200
     23 HAHA        1.0730    1.0070   -2.2880 h1        1 H26      0.036200
     24 HAG         0.8340    0.7460   -4.5350 h1        1 H26      0.017200
     25 HAGA        2.1780    1.3790   -5.6040 h1        1 H26      0.017200
     26 HAI        -0.3360    2.9510   -4.5540 h4        1 H26      0.016800
     27 HAIA        0.7530    1.9160    1.2460 ho        1 H26      0.414000
     28 H8          2.5970    2.8470   -7.1040 h5        1 H26      0.049800
     29 H2         -2.9740    6.2580   -6.5860 h5        1 H26      0.007800
     30 HN1        -2.0890    7.1290   -8.6010 hn        1 H26      0.294500
@<TRIPOS>BOND
     1    1    2 1   
     2    1   27 1   
     3    2    3 1   
     4    2    4 1   
     5    2    5 1   
     6    5    6 1   
     7    5   20 1   
     8    5   21 1   
     9    6    7 1   
    10    6   22 1   
    11    6   23 1   
    12    7    8 1   
    13    8    9 1   
    14    8   24 1   
    15    8   25 1   
    16    9   10 2   
    17    9   26 1   
    18   10   11 1   
    19   10   13 1   
    20   11   12 2   
    21   11   28 1   
    22   12   14 1   
    23   13   14 2   
    24   13   15 1   
    25   14   18 1   
    26   15   16 2   
    27   16   17 1   
    28   16   29 1   
    29   17   18 1   
    30   17   30 1   
    31   18   19 2   
@<TRIPOS>SUBSTRUCTURE
     1 H26         1 TEMP              0 ****  ****    0 ROOT
