@<TRIPOS>MOLECULE
H26
   30    31     1     0     0
SMALL
bcc


@<TRIPOS>ATOM
      1 OAD         0.7600    1.3370    0.8730 oh        1 H26     -0.803400
      2 PAT         2.0670    0.8200   -0.0020 p5        1 H26      1.346600
      3 OAE         3.2180    0.7150    0.9280 o         1 H26     -0.877000
      4 OAC         1.4820   -0.3750   -0.6650 o         1 H26     -0.877000
      5 CAJ         2.3130    2.1310   -1.0440 c3        1 H26     -0.349600
      6 CAH         1.6890    1.9280   -2.3970 c3        1 H26      0.149400
      7 OAN         2.6210    2.4020   -3.3790 os        1 H26     -0.437600
      8 CAG         2.1390    2.3110   -4.7130 c3        1 H26      0.155100
      9 CAI         1.2500    3.4500   -5.0530 c2        1 H26     -0.208800
     10 N9          0.8150    3.6800   -6.2980 na        1 H26      0.123600
     11 C8          1.0850    2.9030   -7.4550 cc        1 H26      0.149700
     12 N7          0.5110    3.3940   -8.5990 nd        1 H26     -0.514300
     13 C4          0.0140    4.7370   -6.7550 cc        1 H26     -0.113500
     14 C5         -0.1540    4.5180   -8.2110 cd        1 H26     -0.117600
     15 N3         -0.5490    5.7940   -6.0690 nc        1 H26     -0.508300
     16 C2         -1.2590    6.6170   -6.8110 cd        1 H26      0.323800
     17 N1         -1.4870    6.5190   -8.1960 n         1 H26     -0.515400
     18 C6         -0.9510    5.4670   -8.9620 c         1 H26      0.754700
     19 O6         -1.2080    5.4570  -10.1890 o         1 H26     -0.723500
     20 HAJ         3.4140    2.2960   -1.1700 hc        1 H26      0.076200
     21 HAJA        1.9160    3.0690   -0.5840 hc        1 H26      0.076200
     22 HAH         0.7290    2.5010   -2.5170 h1        1 H26      0.040700
     23 HAHA        1.4900    0.8340   -2.5730 h1        1 H26      0.040700
     24 HAG         3.0800    2.3210   -5.3360 h1        1 H26      0.008700
     25 HAGA        1.6220    1.3220   -4.8730 h1        1 H26      0.008700
     26 HAI         0.0220    0.7500    0.7590 ho        1 H26      0.415000
     27 HAIA        0.9640    4.1520   -4.2640 h4        1 H26      0.027800
     28 H8          1.6880    1.9990   -7.3930 h5        1 H26      0.045800
     29 H2         -1.7330    7.4820   -6.3150 h5        1 H26      0.007800
     30 HN1        -2.0500    7.1980   -8.6430 hn        1 H26      0.294500
@<TRIPOS>BOND
     1    1    2 1   
     2    1   26 1   
     3    2    3 1   
     4    2    4 1   
     5    2    5 1   
     6    5    6 1   
     7    5   20 1   
     8    5   21 1   
     9    6    7 1   
    10    6   22 1   
    11    6   23 1   
    12    7    8 1   
    13    8    9 1   
    14    8   24 1   
    15    8   25 1   
    16    9   10 2   
    17    9   27 1   
    18   10   11 1   
    19   10   13 1   
    20   11   12 2   
    21   11   28 1   
    22   12   14 1   
    23   13   14 2   
    24   13   15 1   
    25   14   18 1   
    26   15   16 2   
    27   16   17 1   
    28   16   29 1   
    29   17   18 1   
    30   17   30 1   
    31   18   19 2   
@<TRIPOS>SUBSTRUCTURE
     1 H26         1 TEMP              0 ****  ****    0 ROOT
