@<TRIPOS>MOLECULE
H26
   30    26     1     0     0
SMALL
bcc


@<TRIPOS>ATOM
      1 OAD         3.4170   -0.2710    5.9990 o         1 H26     -0.690500
      2 PAT         3.2890   -0.9140    4.6360 p4        1 H26      1.629000
      3 OAE         4.4690   -0.5040    3.7680 os        1 H26     -1.209000
      4 OAC         3.2760   -2.4210    4.7910 o         1 H26     -0.739300
      5 CAJ         1.7180   -0.3620    3.8380 c3        1 H26     -0.340600
      6 CAH         1.6520   -0.8960    2.4370 c3        1 H26      0.151400
      7 OAN         0.3470   -0.6090    1.8720 os        1 H26     -0.424600
      8 CAG         0.2820   -0.7790    0.4480 c3        1 H26      0.230400
      9 CAI        -1.2060   -0.6730   -0.0240 c3        1 H26     -0.380700
     10 N9         -1.2430   -0.4420   -1.4320 n3        1 H26      0.261600
     11 C8         -1.1390   -1.4920   -2.2920 c1        1 H26     -0.084600
     12 N7         -1.3710   -1.0290   -3.5500 ne        1 H26     -0.356400
     13 C4         -1.5390    0.6660   -2.1570 c1        1 H26     -0.282300
     14 C5         -1.6190    0.3040   -3.4690 cg        1 H26     -0.187000
     15 N3         -1.7590    2.0490   -1.7690 n1        1 H26     -0.406800
     16 C2         -2.0660    3.0450   -2.7730 c1        1 H26      0.283300
     17 N1         -2.1510    2.6740   -4.1390 n2        1 H26     -0.819800
     18 C6         -1.9370    1.3390   -4.5170 c1        1 H26      0.846900
     19 O6         -1.8960    1.0450   -5.6830 o         1 H26     -0.680500
     20 HAJ         0.9570   -0.6980    4.3510 hc        1 H26      0.073200
     21 HAJA        1.6900    0.6100    3.8150 hc        1 H26      0.073200
     22 HAH         2.3420   -0.4710    1.8950 h1        1 H26      0.030700
     23 HAHA        1.7960   -1.8550    2.4500 h1        1 H26      0.030700
     24 HAG         0.6370   -1.6550    0.2090 h1        1 H26     -0.006800
     25 HAGA        0.8090   -0.0880    0.0160 h1        1 H26     -0.006800
     26 HAI        -1.6430    0.0660    0.4390 h1        1 H26      0.148700
     27 HAIA       -1.6780   -1.5150    0.1820 h1        1 H26      0.148700
     28 H8         -0.8930   -2.4140   -2.0510 DU        1 H26      0.177000
     29 H2         -2.1910    3.9810   -2.5120 ha        1 H26      0.078500
     30 HN1        -2.3460    3.3080   -4.7780 hn        1 H26      0.452400
@<TRIPOS>BOND
     1    1    2 1   
     2    2    4 2   
     3    2    5 1   
     4    5    6 1   
     5    5   20 1   
     6    5   21 1   
     7    6    7 1   
     8    6   22 1   
     9    6   23 1   
    10    7    8 1   
    11    8    9 1   
    12    8   24 1   
    13    8   25 1   
    14    9   10 1   
    15    9   26 1   
    16    9   27 1   
    17   10   11 2   
    18   10   13 1   
    19   11   12 2   
    20   12   14 1   
    21   13   14 3   
    22   15   16 3   
    23   16   29 1   
    24   17   18 2   
    25   17   30 1   
    26   18   19 2   
@<TRIPOS>SUBSTRUCTURE
     1 H26         1 TEMP              0 ****  ****    0 ROOT
