@<TRIPOS>MOLECULE
H2A
   62    63     1     0     0
SMALL
bcc


@<TRIPOS>ATOM
      1 S1         -0.3610   -0.7260   -0.2180 ss        1 H2A     -0.329200
      2 C2          1.3810   -0.3880   -0.4140 c3        1 H2A      0.015700
      3 C3          2.0420    0.3360    0.7380 c3        1 H2A     -0.113700
      4 C3'         1.5510    1.7770    0.8670 c3        1 H2A      0.136400
      5 C4          1.9010   -0.4350    2.0790 c3        1 H2A      0.004700
      6 C4'         2.8820   -1.6170    2.0410 c         1 H2A      0.618100
      7 O4A         3.9870   -1.5900    2.8250 oh        1 H2A     -0.539100
      8 O4B         2.7690   -2.6090    1.3250 o         1 H2A     -0.464000
      9 N5          0.5720   -0.8990    2.3500 n         1 H2A     -0.437800
     10 C6         -0.3330   -1.5150    1.3750 cy        1 H2A      0.146800
     11 C7         -1.5190   -1.1490    2.3430 cy        1 H2A     -0.007500
     12 C8         -0.4140   -0.4470    3.2230 c         1 H2A      0.731500
     13 O9         -0.4390    0.1910    4.2650 o         1 H2A     -0.567500
     14 N10        -2.5690   -0.2650    1.8080 n4        1 H2A     -0.670800
     15 C11        -3.9400   -0.4310    2.4820 c         1 H2A      0.561100
     16 O12        -4.1980   -1.5490    2.8850 o         1 H2A     -0.389100
     17 C13        -4.7960    0.8000    2.5100 c3        1 H2A     -0.156400
     18 C14        -4.0990    2.0550    2.9880 c3        1 H2A     -0.098400
     19 C15        -3.4170    1.8570    4.3240 c3        1 H2A     -0.107400
     20 C16        -2.8260    3.1530    4.8370 c3        1 H2A     -0.072400
     21 C17        -2.4090    3.0740    6.2930 c3        1 H2A     -0.077500
     22 C18        -3.6350    2.5420    7.2030 c         1 H2A      0.935600
     23 O19        -4.7560    2.9560    6.8650 o         1 H2A     -0.752300
     24 O20        -3.2930    1.7580    8.1230 o         1 H2A     -0.752300
     25 N21        -1.2260    2.1980    6.5490 n4        1 H2A     -0.656800
     26 C22         0.1180    2.8210    6.4250 c         1 H2A      0.475100
     27 O23         0.2030    4.0060    6.1250 o         1 H2A     -0.449100
     28 C24         1.3010    1.8750    6.6840 c3        1 H2A      0.118800
     29 N25         2.5890    2.4080    6.4090 n3        1 H2A     -0.904800
     30 O1          2.6510    2.6600    1.0890 os        1 H2A     -0.426900
     31 C1          2.9810    3.0070    2.3720 c         1 H2A      0.658100
     32 O2          2.3730    2.4440    3.2910 o         1 H2A     -0.601000
     33 C26         4.0530    4.0340    2.4420 c3        1 H2A     -0.157100
     34 H21A        1.9060   -1.3660   -0.5840 h1        1 H2A      0.122200
     35 H22         1.4440    0.2160   -1.3560 h1        1 H2A      0.122200
     36 H3          3.1510    0.3760    0.5080 hc        1 H2A      0.118700
     37 H3'1        1.1280    2.1420   -0.1100 h1        1 H2A      0.071700
     38 H3'2        0.7900    1.8870    1.6820 h1        1 H2A      0.071700
     39 H4          2.1880    0.2720    2.9210 h1        1 H2A      0.126700
     40 H6         -0.1550   -2.6180    1.2740 h2        1 H2A      0.159700
     41 H7         -1.9770   -2.0510    2.8400 hx        1 H2A      0.175700
     42 H10        -2.2770    0.7160    1.9080 hn        1 H2A      0.470800
     43 H131       -5.2200    0.9550    1.4780 hc        1 H2A      0.129200
     44 H132       -5.6590    0.5660    3.2040 hc        1 H2A      0.129200
     45 H141       -3.3760    2.4370    2.2210 hc        1 H2A      0.073700
     46 H142       -4.8890    2.8530    3.1020 hc        1 H2A      0.073700
     47 H151       -2.6180    1.0720    4.2340 hc        1 H2A      0.056700
     48 H152       -4.1770    1.4910    5.0750 hc        1 H2A      0.056700
     49 H161       -1.9730    3.4790    4.1870 hc        1 H2A      0.069700
     50 H162       -3.6200    3.9520    4.8010 hc        1 H2A      0.069700
     51 H17        -2.1590    4.1070    6.6660 hx        1 H2A      0.114700
     52 H21        -1.2690    1.3840    5.9290 hn        1 H2A      0.472800
     53 H241        1.2490    1.5690    7.7710 h1        1 H2A      0.097700
     54 H242        1.1440    0.9600    6.0380 h1        1 H2A      0.097700
     55 H251        3.9870   -0.8120    3.4020 ho        1 H2A      0.440000
     56 H252        2.8350    3.1640    7.0150 hn        1 H2A      0.389800
     57 H253        2.7070    2.6670    5.4500 hn        1 H2A      0.389800
     58 H261        4.8210    3.7130    3.1890 hc        1 H2A      0.095700
     59 H262        4.5360    4.1790    1.4440 hc        1 H2A      0.095700
     60 H263        3.6000    5.0020    2.7750 hc        1 H2A      0.095700
     61 H102       -2.6770   -0.4610    0.8000 hn        1 H2A      0.470800
     62 H212       -1.3650    1.8490    7.5320 hn        1 H2A      0.472800
@<TRIPOS>BOND
     1    1    2 1   
     2    1   10 1   
     3    2    3 1   
     4    2   34 1   
     5    2   35 1   
     6    3    4 1   
     7    3    5 1   
     8    3   36 1   
     9    4   30 1   
    10    4   37 1   
    11    4   38 1   
    12    5    6 1   
    13    5    9 1   
    14    5   39 1   
    15    6    7 1   
    16    6    8 2   
    17    7   55 1   
    18    9   10 1   
    19    9   12 1   
    20   10   11 1   
    21   10   40 1   
    22   11   12 1   
    23   11   14 1   
    24   11   41 1   
    25   12   13 2   
    26   14   15 1   
    27   14   42 1   
    28   14   61 1   
    29   15   16 2   
    30   15   17 1   
    31   17   18 1   
    32   17   43 1   
    33   17   44 1   
    34   18   19 1   
    35   18   45 1   
    36   18   46 1   
    37   19   20 1   
    38   19   47 1   
    39   19   48 1   
    40   20   21 1   
    41   20   49 1   
    42   20   50 1   
    43   21   22 1   
    44   21   25 1   
    45   21   51 1   
    46   22   23 1   
    47   22   24 1   
    48   25   26 1   
    49   25   52 1   
    50   25   62 1   
    51   26   27 2   
    52   26   28 1   
    53   28   29 1   
    54   28   53 1   
    55   28   54 1   
    56   29   56 1   
    57   29   57 1   
    58   30   31 1   
    59   31   32 2   
    60   31   33 1   
    61   33   58 1   
    62   33   59 1   
    63   33   60 1   
@<TRIPOS>SUBSTRUCTURE
     1 H2A         1 TEMP              0 ****  ****    0 ROOT
