@<TRIPOS>MOLECULE
H2A
   60    61     1     0     0
SMALL
bcc


@<TRIPOS>ATOM
      1 S1          3.5750   -0.4120    1.3100 ss        1 H2A     -0.440200
      2 C2          4.6970   -0.3550    2.4200 c3        1 H2A      0.035700
      3 C3          4.2860   -1.0510    3.6850 c3        1 H2A     -0.107700
      4 C3'         3.1880   -0.2850    4.3140 c3        1 H2A      0.138400
      5 C4          3.7770   -2.5730    3.4340 c3        1 H2A     -0.042300
      6 C4'         4.8620   -3.4430    3.1530 c         1 H2A      0.926600
      7 O4A         5.8880   -3.4530    3.9320 o         1 H2A     -0.818300
      8 O4B         4.7580   -4.3150    2.2260 o         1 H2A     -0.818300
      9 N5          2.6340   -2.5700    2.2700 n         1 H2A     -0.409800
     10 C6          3.0430   -1.8650    1.0560 cy        1 H2A      0.174800
     11 C7          1.6160   -1.8600    0.5350 cy        1 H2A     -0.001300
     12 C8          1.1970   -2.5010    1.8360 c         1 H2A      0.681500
     13 O9          0.2120   -2.8790    2.2650 o         1 H2A     -0.599500
     14 N10         1.6040   -1.8340    0.5280 n         1 H2A     -0.538900
     15 C11         2.1400   -0.9360   -0.9520 c         1 H2A      0.660100
     16 O12         2.9810   -1.4060   -1.6590 o         1 H2A     -0.621100
     17 C13         1.3730    0.7440   -1.3880 c3        1 H2A     -0.153400
     18 C14         0.1910    0.5420   -2.6190 c3        1 H2A     -0.065400
     19 C15        -1.2790    1.3610   -2.1610 c3        1 H2A     -0.084400
     20 C16        -2.0880    1.9190   -3.5620 c3        1 H2A     -0.084400
     21 C17        -3.6590    1.9510   -3.2970 c3        1 H2A      0.020700
     22 C18        -4.0300    3.2180   -2.7760 c         1 H2A      0.862600
     23 O19        -3.9560    4.2090   -3.4820 o         1 H2A     -0.570300
     24 O20        -4.5860    3.2930   -1.6440 o         1 H2A     -0.570300
     25 N21        -4.3790    1.7140   -4.5620 n         1 H2A     -0.552900
     26 C22        -5.7820    1.2190   -4.5430 c         1 H2A      0.660100
     27 O23        -6.3700    1.1280   -3.5090 o         1 H2A     -0.637100
     28 C24        -6.4280    0.7140   -5.8300 c3        1 H2A      0.089800
     29 N25        -7.8310    0.3340   -5.5680 n4        1 H2A     -1.131600
     30 O1          3.2090   -0.4940    5.7230 os        1 H2A     -0.431900
     31 C1          2.9030    0.6700    6.4840 c         1 H2A      0.639100
     32 O2          3.6420    1.6170    6.4540 o         1 H2A     -0.562000
     33 C26         1.6450    0.6770    7.4520 c3        1 H2A     -0.153100
     34 H21A        4.9010    0.6090    2.6300 h1        1 H2A      0.092200
     35 H22         5.5370   -0.7980    2.0600 h1        1 H2A      0.092200
     36 H3          5.0840   -1.0700    4.3250 hc        1 H2A      0.094700
     37 H3'1        3.3060    0.6880    4.1190 h1        1 H2A      0.059200
     38 H3'2        2.2610   -0.6140    3.9230 h1        1 H2A      0.059200
     39 H4          3.4410   -2.9590    4.2260 h1        1 H2A      0.085700
     40 H6          3.6540   -2.4130    0.4860 h2        1 H2A      0.130700
     41 H7          1.4480   -2.4540   -0.3340 h1        1 H2A      0.117700
     42 H10         0.8220   -1.4280    1.1450 hn        1 H2A      0.327500
     43 H131        2.0950    1.3640   -1.7170 hc        1 H2A      0.066700
     44 H132        0.9590    1.1230   -0.6050 hc        1 H2A      0.066700
     45 H141        0.0020   -0.4460   -2.7480 hc        1 H2A      0.051200
     46 H142        0.5260    0.9190   -3.4550 hc        1 H2A      0.051200
     47 H151       -1.8610    0.7410   -1.6740 hc        1 H2A      0.057700
     48 H152       -1.0610    2.1230   -1.5850 hc        1 H2A      0.057700
     49 H161       -1.7730    2.8370   -3.7830 hc        1 H2A      0.063700
     50 H162       -1.8940    1.3100   -4.3240 hc        1 H2A      0.063700
     51 H17        -3.8880    1.2760   -2.6730 h1        1 H2A      0.092700
     52 H21        -4.0000    1.9160   -5.3250 hn        1 H2A      0.339500
     53 H241       -5.9560   -0.0350   -6.1420 hx        1 H2A      0.064200
     54 H242       -6.4030    1.4110   -6.4970 hx        1 H2A      0.064200
     55 H251       -7.8700   -0.2210   -4.8020 hn        1 H2A      0.395467
     56 H252       -8.3400    1.1040   -5.4230 hn        1 H2A      0.395467
     57 H253       -8.1550   -0.1090   -6.2730 hn        1 H2A      0.395467
     58 H261        1.8760    1.1090    8.2720 hc        1 H2A      0.073033
     59 H262        0.8840    1.1740    7.0130 hc        1 H2A      0.073033
     60 H263        1.3730   -0.2370    7.6350 hc        1 H2A      0.073033
@<TRIPOS>BOND
     1    1    2 1   
     2    1   10 1   
     3    2    3 1   
     4    2   34 1   
     5    2   35 1   
     6    3    4 1   
     7    3    5 1   
     8    3   36 1   
     9    4   30 1   
    10    4   37 1   
    11    4   38 1   
    12    5    6 1   
    13    5    9 1   
    14    5   39 1   
    15    6    7 1   
    16    6    8 1   
    17    9   10 1   
    18    9   12 1   
    19   10   11 1   
    20   10   40 1   
    21   11   12 1   
    22   11   14 1   
    23   11   41 1   
    24   12   13 2   
    25   14   15 1   
    26   14   42 1   
    27   15   16 2   
    28   15   17 1   
    29   17   18 1   
    30   17   43 1   
    31   17   44 1   
    32   18   19 1   
    33   18   45 1   
    34   18   46 1   
    35   19   20 1   
    36   19   47 1   
    37   19   48 1   
    38   20   21 1   
    39   20   49 1   
    40   20   50 1   
    41   21   22 1   
    42   21   25 1   
    43   21   51 1   
    44   22   23 1   
    45   22   24 1   
    46   25   26 1   
    47   25   52 1   
    48   26   27 2   
    49   26   28 1   
    50   28   29 1   
    51   28   53 1   
    52   28   54 1   
    53   29   55 1   
    54   29   56 1   
    55   29   57 1   
    56   30   31 1   
    57   31   32 2   
    58   31   33 1   
    59   33   58 1   
    60   33   59 1   
    61   33   60 1   
@<TRIPOS>SUBSTRUCTURE
     1 H2A         1 TEMP              0 ****  ****    0 ROOT
