@<TRIPOS>MOLECULE
H2A
   60    61     1     0     0
SMALL
bcc


@<TRIPOS>ATOM
      1 S1          3.7520   -1.1230    4.5470 ss        1 H2A     -0.358200
      2 C2          4.4370   -1.2660    2.9040 c3        1 H2A      0.011700
      3 C3          3.6450   -2.1350    1.9520 c3        1 H2A     -0.093700
      4 C3'         3.6780   -3.6070    2.3530 c3        1 H2A      0.132400
      5 C4          2.2050   -1.6140    1.7440 c3        1 H2A     -0.039300
      6 C4'         2.2410   -0.4480    0.6700 c         1 H2A      0.927600
      7 O4A         1.5490   -0.6650   -0.3560 o         1 H2A     -0.806300
      8 O4B         2.9560    0.5530    0.9150 o         1 H2A     -0.806300
      9 N5          1.5490   -1.2260    2.9550 n         1 H2A     -0.429800
     10 C6          2.1480   -0.4990    4.0710 cy        1 H2A      0.159800
     11 C7          0.8850   -0.9010    4.9390 cy        1 H2A      0.046700
     12 C8          0.4180   -1.6460    3.6300 c         1 H2A      0.682500
     13 O9         -0.5660   -2.3140    3.2860 o         1 H2A     -0.697500
     14 N10         1.1090   -1.7130    6.0750 n         1 H2A     -0.552900
     15 C11         0.2730   -1.6850    7.1820 c         1 H2A      0.669100
     16 O12        -0.6200   -0.8190    7.2780 o         1 H2A     -0.614100
     17 C13         0.5070   -2.6780    8.3030 c3        1 H2A     -0.147400
     18 C14         1.0490   -4.0340    7.9160 c3        1 H2A     -0.081400
     19 C15         0.1100   -4.8140    7.0190 c3        1 H2A     -0.086400
     20 C16         0.7750   -6.0770    6.5160 c3        1 H2A     -0.082400
     21 C17        -0.1770   -6.9980    5.7520 c3        1 H2A     -0.054300
     22 C18        -1.2580   -7.5670    6.7580 c         1 H2A      0.921600
     23 O19        -0.8190   -8.3560    7.6290 o         1 H2A     -0.813300
     24 O20        -2.4540   -7.1970    6.6120 o         1 H2A     -0.813300
     25 N21        -0.8230   -6.3870    4.6060 n         1 H2A     -0.478900
     26 C22        -0.1700   -5.8150    3.5750 c         1 H2A      0.636100
     27 O23         1.0720   -5.8380    3.3850 o         1 H2A     -0.665100
     28 C24        -1.0570   -5.1040    2.5160 c3        1 H2A      0.008800
     29 N25        -0.2320   -4.3990    1.5070 n4        1 H2A     -0.834600
     30 O1          4.2950   -4.3790    1.3060 os        1 H2A     -0.430900
     31 C1          3.5250   -4.8960    0.3160 c         1 H2A      0.675100
     32 O2          2.2920   -4.7850    0.3650 o         1 H2A     -0.625000
     33 C26         4.3190   -5.5730   -0.7490 c3        1 H2A     -0.153100
     34 H21A        5.4670   -1.6680    3.0510 h1        1 H2A      0.098200
     35 H22         4.4920   -0.2370    2.4520 h1        1 H2A      0.098200
     36 H3          4.1410   -2.0410    0.9390 hc        1 H2A      0.094700
     37 H3'1        2.6640   -4.0220    2.5890 h1        1 H2A      0.072700
     38 H3'2        4.3660   -3.7870    3.2250 h1        1 H2A      0.072700
     39 H4          1.5990   -2.4490    1.2830 h1        1 H2A      0.036700
     40 H6          2.2240    0.5980    3.8690 h2        1 H2A      0.118700
     41 H7          0.2240   -0.0290    5.1890 h1        1 H2A      0.126700
     42 H10         1.7820   -2.4410    5.9870 hn        1 H2A      0.331500
     43 H131        1.2130   -2.1860    9.0260 hc        1 H2A      0.074200
     44 H132       -0.4810   -2.8090    8.8230 hc        1 H2A      0.074200
     45 H141        1.2140   -4.6220    8.8610 hc        1 H2A      0.043700
     46 H142        2.0540   -3.9360    7.4270 hc        1 H2A      0.043700
     47 H151       -0.2030   -4.1730    6.1540 hc        1 H2A      0.054200
     48 H152       -0.8230   -5.0900    7.5830 hc        1 H2A      0.054200
     49 H161        1.6490   -5.8100    5.8640 hc        1 H2A      0.052700
     50 H162        1.1550   -6.6760    7.3880 hc        1 H2A      0.052700
     51 H17         0.4270   -7.8740    5.3740 h1        1 H2A      0.060700
     52 H21        -1.8130   -6.2620    4.7200 hn        1 H2A      0.349500
     53 H241       -1.7050   -4.3390    3.0380 hx        1 H2A      0.114700
     54 H242       -1.7040   -5.8660    2.0020 hx        1 H2A      0.114700
     55 H251        0.7770   -4.5440    1.7340 hn        1 H2A      0.474133
     56 H252       -0.4170   -3.3830    1.5400 hn        1 H2A      0.474133
     57 H253       -0.3920   -4.7520    0.5670 hn        1 H2A      0.474133
     58 H261        5.3670   -5.7540   -0.4100 hc        1 H2A      0.076367
     59 H262        4.3320   -4.9140   -1.6530 hc        1 H2A      0.076367
     60 H263        3.8320   -6.5440   -1.0080 hc        1 H2A      0.076367
@<TRIPOS>BOND
     1    1    2 1   
     2    1   10 1   
     3    2    3 1   
     4    2   34 1   
     5    2   35 1   
     6    3    4 1   
     7    3    5 1   
     8    3   36 1   
     9    4   30 1   
    10    4   37 1   
    11    4   38 1   
    12    5    6 1   
    13    5    9 1   
    14    5   39 1   
    15    6    7 1   
    16    6    8 1   
    17    9   10 1   
    18    9   12 1   
    19   10   11 1   
    20   10   40 1   
    21   11   12 1   
    22   11   14 1   
    23   11   41 1   
    24   12   13 2   
    25   14   15 1   
    26   14   42 1   
    27   15   16 2   
    28   15   17 1   
    29   17   18 1   
    30   17   43 1   
    31   17   44 1   
    32   18   19 1   
    33   18   45 1   
    34   18   46 1   
    35   19   20 1   
    36   19   47 1   
    37   19   48 1   
    38   20   21 1   
    39   20   49 1   
    40   20   50 1   
    41   21   22 1   
    42   21   25 1   
    43   21   51 1   
    44   22   23 1   
    45   22   24 1   
    46   25   26 1   
    47   25   52 1   
    48   26   27 2   
    49   26   28 1   
    50   28   29 1   
    51   28   53 1   
    52   28   54 1   
    53   29   55 1   
    54   29   56 1   
    55   29   57 1   
    56   30   31 1   
    57   31   32 2   
    58   31   33 1   
    59   33   58 1   
    60   33   59 1   
    61   33   60 1   
@<TRIPOS>SUBSTRUCTURE
     1 H2A         1 TEMP              0 ****  ****    0 ROOT
