@<TRIPOS>MOLECULE
H2A
   62    63     1     0     0
SMALL
bcc


@<TRIPOS>ATOM
      1 S1         -0.3500   -0.6350   -0.2640 ss        1 H2A     -0.329200
      2 C2          1.3950   -0.3010   -0.4430 c3        1 H2A      0.015700
      3 C3          2.0540    0.3900    0.7310 c3        1 H2A     -0.113700
      4 C3'         1.5690    1.8300    0.8930 c3        1 H2A      0.136400
      5 C4          1.9010   -0.4130    2.0510 c3        1 H2A      0.004700
      6 C4'         2.8760   -1.5990    1.9900 c         1 H2A      0.618100
      7 O4A         3.9760   -1.5970    2.7800 oh        1 H2A     -0.539100
      8 O4B         2.7620   -2.5720    1.2490 o         1 H2A     -0.464000
      9 N5          0.5680   -0.8770    2.3030 n         1 H2A     -0.437800
     10 C6         -0.3350   -1.4640    1.3080 cy        1 H2A      0.146800
     11 C7         -1.5240   -1.1150    2.2790 cy        1 H2A     -0.007500
     12 C8         -0.4200   -0.4410    3.1820 c         1 H2A      0.731500
     13 O9         -0.4480    0.1710    4.2390 o         1 H2A     -0.567500
     14 N10        -2.5670   -0.2130    1.7600 ny        1 H2A     -0.670800
     15 C11        -3.9420   -0.3880    2.4220 c         1 H2A      0.561100
     16 O12        -4.2090   -1.5150    2.7960 o         1 H2A     -0.389100
     17 C13        -4.7930    0.8470    2.4750 c3        1 H2A     -0.156400
     18 C14        -4.0920    2.0850    2.9880 c3        1 H2A     -0.098400
     19 C15        -3.4190    1.8510    4.3230 c3        1 H2A     -0.107400
     20 C16        -2.8230    3.1310    4.8690 c3        1 H2A     -0.072400
     21 C17        -2.4150    3.0140    6.3260 c3        1 H2A     -0.077500
     22 C18        -3.6490    2.4680    7.2160 c         1 H2A      0.935600
     23 O19        -4.7660    2.8960    6.8810 o         1 H2A     -0.752300
     24 O20        -3.3160    1.6600    8.1180 o         1 H2A     -0.752300
     25 N21        -1.2390    2.1260    6.5670 ny        1 H2A     -0.656800
     26 C22         0.1100    2.7440    6.4660 c         1 H2A      0.475100
     27 O23         0.2030    3.9350    6.1950 o         1 H2A     -0.449100
     28 C24         1.2870    1.7850    6.7080 c3        1 H2A      0.118800
     29 N25         2.5790    2.3170    6.4540 n8        1 H2A     -0.904800
     30 O1          2.6720    2.7020    1.1420 os        1 H2A     -0.426900
     31 C1          2.9970    3.0150    2.4350 c         1 H2A      0.658100
     32 O2          2.3820    2.4330    3.3360 o         1 H2A     -0.601000
     33 C26         4.0740    4.0340    2.5360 c3        1 H2A     -0.157100
     34 H21A        1.4670    0.3260   -1.3690 h1        1 H2A      0.122200
     35 H22         1.9160   -1.2780   -0.6340 h1        1 H2A      0.122200
     36 H3          3.1640    0.4300    0.5070 hc        1 H2A      0.118700
     37 H3'1        1.1530    2.2210   -0.0780 h1        1 H2A      0.071700
     38 H3'2        0.8040    1.9240    1.7060 h1        1 H2A      0.071700
     39 H4          2.1870    0.2710    2.9130 h1        1 H2A      0.126700
     40 H6         -0.1620   -2.5650    1.1810 h2        1 H2A      0.159700
     41 H7         -1.9900   -2.0270    2.7500 hx        1 H2A      0.175700
     42 H10        -2.6700   -0.3830    0.7460 hn        1 H2A      0.470800
     43 H131       -5.2100    1.0280    1.4450 hc        1 H2A      0.129200
     44 H132       -5.6600    0.6000    3.1580 hc        1 H2A      0.129200
     45 H141       -4.8780    2.8840    3.1170 hc        1 H2A      0.074200
     46 H142       -3.3620    2.4820    2.2350 hc        1 H2A      0.074200
     47 H151       -4.1850    1.4710    5.0600 hc        1 H2A      0.056700
     48 H152       -2.6230    1.0650    4.2180 hc        1 H2A      0.056700
     49 H161       -3.6130    3.9360    4.8480 hc        1 H2A      0.069700
     50 H162       -1.9640    3.4680    4.2330 hc        1 H2A      0.069700
     51 H17        -2.1610    4.0370    6.7250 hx        1 H2A      0.114700
     52 H21        -1.3850    1.7540    7.5400 hn        1 H2A      0.472800
     53 H241        1.2260    1.4540    7.7870 h1        1 H2A      0.097700
     54 H242        1.1280    0.8870    6.0390 h1        1 H2A      0.097700
     55 H251        2.7040    2.5990    5.5020 hn        1 H2A      0.389800
     56 H252        3.9770   -0.8330    3.3760 ho        1 H2A      0.440000
     57 H253        2.8250    3.0580    7.0790 hn        1 H2A      0.389800
     58 H261        4.8380    3.6910    3.2770 hc        1 H2A      0.095700
     59 H262        4.5610    4.2040    1.5440 hc        1 H2A      0.095700
     60 H263        3.6250    4.9960    2.8920 hc        1 H2A      0.095700
     61 H102       -2.2700    0.7640    1.8860 hn        1 H2A      0.470800
     62 H212       -1.2820    1.3280    5.9280 hn        1 H2A      0.472800
@<TRIPOS>BOND
     1    1    2 1   
     2    1   10 1   
     3    2    3 1   
     4    2   34 1   
     5    2   35 1   
     6    3    4 1   
     7    3    5 1   
     8    3   36 1   
     9    4   30 1   
    10    4   37 1   
    11    4   38 1   
    12    5    6 1   
    13    5    9 1   
    14    5   39 1   
    15    6    7 1   
    16    6    8 2   
    17    7   56 1   
    18    9   10 1   
    19    9   12 1   
    20   10   11 1   
    21   10   40 1   
    22   11   12 1   
    23   11   14 1   
    24   11   41 1   
    25   12   13 2   
    26   14   15 1   
    27   14   42 1   
    28   14   61 1   
    29   15   16 2   
    30   15   17 1   
    31   17   18 1   
    32   17   43 1   
    33   17   44 1   
    34   18   19 1   
    35   18   45 1   
    36   18   46 1   
    37   19   20 1   
    38   19   47 1   
    39   19   48 1   
    40   20   21 1   
    41   20   49 1   
    42   20   50 1   
    43   21   22 1   
    44   21   25 1   
    45   21   51 1   
    46   22   23 1   
    47   22   24 1   
    48   25   26 1   
    49   25   52 1   
    50   25   62 1   
    51   26   27 2   
    52   26   28 1   
    53   28   29 1   
    54   28   53 1   
    55   28   54 1   
    56   29   55 1   
    57   29   57 1   
    58   30   31 1   
    59   31   32 2   
    60   31   33 1   
    61   33   58 1   
    62   33   59 1   
    63   33   60 1   
@<TRIPOS>SUBSTRUCTURE
     1 H2A         1 TEMP              0 ****  ****    0 ROOT
