@<TRIPOS>MOLECULE
H2A
   62    63     1     0     0
SMALL
bcc


@<TRIPOS>ATOM
      1 S1         -0.3030   -0.7430   -0.2070 ss        1 H2A     -0.329200
      2 C2          1.4420   -0.4020   -0.3780 c3        1 H2A      0.015700
      3 C3          2.0840    0.3280    0.7810 c3        1 H2A     -0.113700
      4 C3'         1.5870    1.7680    0.8970 c3        1 H2A      0.136400
      5 C4          1.9230   -0.4380    2.1230 c3        1 H2A      0.004700
      6 C4'         2.9060   -1.6180    2.1050 c         1 H2A      0.618100
      7 O4A         3.9990   -1.5850    2.9060 oh        1 H2A     -0.539100
      8 O4B         2.8060   -2.6140    1.3930 o         1 H2A     -0.464000
      9 N5          0.5910   -0.9030    2.3760 n         1 H2A     -0.437800
     10 C6         -0.2980   -1.5250    1.3890 cy        1 H2A      0.146800
     11 C7         -1.5000   -1.1570    2.3380 cy        1 H2A     -0.007500
     12 C8         -0.4090   -0.4490    3.2310 c         1 H2A      0.731500
     13 O9         -0.4510    0.1940    4.2700 o         1 H2A     -0.567500
     14 N10        -2.5430   -0.2770    1.7820 n4        1 H2A     -0.670800
     15 C11        -3.9230   -0.4410    2.4380 c         1 H2A      0.561100
     16 O12        -4.1860   -1.5570    2.8440 o         1 H2A     -0.389100
     17 C13        -4.7810    0.7890    2.4440 c3        1 H2A     -0.156400
     18 C14        -4.0930    2.0480    2.9250 c3        1 H2A     -0.098400
     19 C15        -3.4310    1.8590    4.2730 c3        1 H2A     -0.107400
     20 C16        -2.8460    3.1590    4.7840 c3        1 H2A     -0.072400
     21 C17        -2.4530    3.0900    6.2480 c3        1 H2A     -0.077500
     22 C18        -3.6940    2.5680    7.1420 c         1 H2A      0.935600
     23 O19        -4.8080    2.9800    6.7830 o         1 H2A     -0.752300
     24 O20        -3.3660    1.7900    8.0730 o         1 H2A     -0.752300
     25 N21        -1.2750    2.2150    6.5280 n4        1 H2A     -0.656800
     26 C22         0.0720    2.8370    6.4220 c         1 H2A      0.475100
     27 O23         0.1630    4.0200    6.1170 o         1 H2A     -0.449100
     28 C24         1.2500    1.8910    6.7060 c3        1 H2A      0.118800
     29 N25         2.5420    2.4210    6.4500 n3        1 H2A     -0.904800
     30 O1          2.6830    2.6550    1.1290 os        1 H2A     -0.426900
     31 C1          2.9950    3.0080    2.4150 c         1 H2A      0.658100
     32 O2          2.3760    2.4470    3.3280 o         1 H2A     -0.601000
     33 C26         4.0640    4.0370    2.4950 c3        1 H2A     -0.157100
     34 H21A        1.9710   -1.3800   -0.5360 h1        1 H2A      0.122200
     35 H22         1.5180    0.1980   -1.3210 h1        1 H2A      0.122200
     36 H3          3.1960    0.3690    0.5680 hc        1 H2A      0.118700
     37 H3'1        0.8150    1.8810    1.7000 h1        1 H2A      0.071700
     38 H3'2        1.1770    2.1280   -0.0880 h1        1 H2A      0.071700
     39 H4          2.1960    0.2730    2.9670 h1        1 H2A      0.126700
     40 H6         -0.1160   -2.6280    1.2960 h2        1 H2A      0.159700
     41 H7         -1.9630   -2.0580    2.8310 hx        1 H2A      0.175700
     42 H10        -2.2530    0.7040    1.8800 hn        1 H2A      0.470800
     43 H131       -5.1900    0.9360    1.4060 hc        1 H2A      0.129200
     44 H132       -5.6540    0.5580    3.1270 hc        1 H2A      0.129200
     45 H141       -4.8850    2.8450    3.0220 hc        1 H2A      0.074200
     46 H142       -3.3580    2.4250    2.1660 hc        1 H2A      0.074200
     47 H151       -4.2020    1.4980    5.0140 hc        1 H2A      0.056700
     48 H152       -2.6300    1.0740    4.2000 hc        1 H2A      0.056700
     49 H161       -3.6390    3.9580    4.7290 hc        1 H2A      0.069700
     50 H162       -1.9830    3.4800    4.1450 hc        1 H2A      0.069700
     51 H17        -2.2070    4.1260    6.6160 hx        1 H2A      0.114700
     52 H21        -1.3080    1.3980    5.9140 hn        1 H2A      0.472800
     53 H241        1.1790    1.5920    7.7930 h1        1 H2A      0.097700
     54 H242        1.1020    0.9730    6.0630 h1        1 H2A      0.097700
     55 H251        2.7790    3.1810    7.0550 hn        1 H2A      0.389800
     56 H252        3.9890   -0.8040    3.4790 ho        1 H2A      0.440000
     57 H253        2.6760    2.6750    5.4910 hn        1 H2A      0.389800
     58 H261        4.5550    4.1840    1.5010 hc        1 H2A      0.095700
     59 H262        4.8270    3.7180    3.2480 hc        1 H2A      0.095700
     60 H263        3.6060    5.0040    2.8240 hc        1 H2A      0.095700
     61 H102       -2.6360   -0.4800    0.7730 hn        1 H2A      0.470800
     62 H212       -1.4300    1.8730    7.5110 hn        1 H2A      0.472800
@<TRIPOS>BOND
     1    1    2 1   
     2    1   10 1   
     3    2    3 1   
     4    2   34 1   
     5    2   35 1   
     6    3    4 1   
     7    3    5 1   
     8    3   36 1   
     9    4   30 1   
    10    4   37 1   
    11    4   38 1   
    12    5    6 1   
    13    5    9 1   
    14    5   39 1   
    15    6    7 1   
    16    6    8 2   
    17    7   56 1   
    18    9   10 1   
    19    9   12 1   
    20   10   11 1   
    21   10   40 1   
    22   11   12 1   
    23   11   14 1   
    24   11   41 1   
    25   12   13 2   
    26   14   15 1   
    27   14   42 1   
    28   14   61 1   
    29   15   16 2   
    30   15   17 1   
    31   17   18 1   
    32   17   43 1   
    33   17   44 1   
    34   18   19 1   
    35   18   45 1   
    36   18   46 1   
    37   19   20 1   
    38   19   47 1   
    39   19   48 1   
    40   20   21 1   
    41   20   49 1   
    42   20   50 1   
    43   21   22 1   
    44   21   25 1   
    45   21   51 1   
    46   22   23 1   
    47   22   24 1   
    48   25   26 1   
    49   25   52 1   
    50   25   62 1   
    51   26   27 2   
    52   26   28 1   
    53   28   29 1   
    54   28   53 1   
    55   28   54 1   
    56   29   55 1   
    57   29   57 1   
    58   30   31 1   
    59   31   32 2   
    60   31   33 1   
    61   33   58 1   
    62   33   59 1   
    63   33   60 1   
@<TRIPOS>SUBSTRUCTURE
     1 H2A         1 TEMP              0 ****  ****    0 ROOT
