@<TRIPOS>MOLECULE
H2B
   31    32     1     0     0
SMALL
bcc


@<TRIPOS>ATOM
      1 N1         -0.0110    0.1500   -0.1120 nc        1 H2B     -0.846000
      2 C2          1.3550   -0.1290   -0.0370 cc        1 H2B      0.784200
      3 N2          2.0320   -0.1060   -1.3850 n4        1 H2B     -0.795600
      4 N3          2.1370   -0.3960    0.9840 nd        1 H2B     -0.682100
      5 C4          1.5480   -0.4270    2.2840 c         1 H2B      0.626200
      6 O4          2.2600   -0.6340    3.2630 o         1 H2B     -0.387100
      7 C4A         0.0510   -0.2040    2.3820 cd        1 H2B      0.221000
      8 C8A        -0.6570    0.1250    1.0790 cd        1 H2B      0.655900
      9 N5         -0.5480   -0.3270    3.5170 n2        1 H2B     -0.396900
     10 N8         -1.9900    0.3550    1.1420 nh        1 H2B     -0.755200
     11 C6         -1.9740   -0.1630    3.6190 c3        1 H2B      0.077500
     12 C7         -2.6890    0.4780    2.4020 c3        1 H2B      0.169800
     13 C9         -2.3890    0.6540    4.8810 c3        1 H2B      0.165100
     14 O9         -3.8010    0.5180    4.9020 oh        1 H2B     -0.611800
     15 C10        -1.7170    0.1210    6.1620 c3        1 H2B      0.120100
     16 C11        -2.5870    0.2910    7.3930 c3        1 H2B     -0.143100
     17 O10        -0.5270    0.8920    6.2840 oh        1 H2B     -0.599800
     18 H22         1.9120    0.8260   -1.8000 hn        1 H2B      0.480467
     19 H21         3.0340   -0.3150   -1.2820 hn        1 H2B      0.480467
     20 H8         -2.5100    0.5690    0.3130 hn        1 H2B      0.479800
     21 H6         -2.3840   -1.2150    3.7670 h1        1 H2B      0.128700
     22 H71        -3.7030   -0.0080    2.2960 h1        1 H2B      0.097700
     23 H72        -2.8570    1.5790    2.6030 h1        1 H2B      0.097700
     24 H9         -2.1060    1.7370    4.7450 h1        1 H2B      0.072700
     25 H9O1       -4.1300    1.0450    5.6430 ho        1 H2B      0.435000
     26 H10        -1.4580   -0.9680    6.0380 h1        1 H2B      0.054700
     27 H113       -2.0220   -0.0390    8.2990 hc        1 H2B      0.056700
     28 H112       -3.5110   -0.3290    7.3060 hc        1 H2B      0.056700
     29 H111       -2.8690    1.3630    7.5320 hc        1 H2B      0.056700
     30 H1O1       -0.0210    0.5140    7.0130 ho        1 H2B      0.421000
     31 H23         1.5910   -0.8080   -1.9900 hn        1 H2B      0.480467
@<TRIPOS>BOND
     1    1    2 1   
     2    1    8 2   
     3    2    3 1   
     4    2    4 2   
     5    3   18 1   
     6    3   19 1   
     7    3   31 1   
     8    4    5 1   
     9    5    6 2   
    10    5    7 1   
    11    7    8 1   
    12    7    9 2   
    13    8   10 1   
    14    9   11 1   
    15   10   12 1   
    16   10   20 1   
    17   11   12 1   
    18   11   13 1   
    19   11   21 1   
    20   12   22 1   
    21   12   23 1   
    22   13   14 1   
    23   13   15 1   
    24   13   24 1   
    25   14   25 1   
    26   15   16 1   
    27   15   17 1   
    28   15   26 1   
    29   16   27 1   
    30   16   28 1   
    31   16   29 1   
    32   17   30 1   
@<TRIPOS>SUBSTRUCTURE
     1 H2B         1 TEMP              0 ****  ****    0 ROOT
