@<TRIPOS>MOLECULE
H2B
   31    32     1     0     0
SMALL
bcc


@<TRIPOS>ATOM
      1 N1         -0.0170    0.1490   -0.1190 nc        1 H2B     -0.846000
      2 C2          1.3470   -0.1460   -0.0480 cc        1 H2B      0.784200
      3 N2          2.0200   -0.1260   -1.3980 nz        1 H2B     -0.795600
      4 N3          2.1270   -0.4240    0.9710 nd        1 H2B     -0.682100
      5 C4          1.5420   -0.4530    2.2720 c         1 H2B      0.626200
      6 O4          2.2530   -0.6700    3.2480 o         1 H2B     -0.387100
      7 C4A         0.0460   -0.2130    2.3740 cd        1 H2B      0.221000
      8 C8A        -0.6600    0.1270    1.0730 cd        1 H2B      0.655900
      9 N5         -0.5510   -0.3330    3.5100 n2        1 H2B     -0.396900
     10 N8         -1.9910    0.3710    1.1410 nu        1 H2B     -0.755200
     11 C6         -1.9750   -0.1540    3.6160 c3        1 H2B      0.077500
     12 C7         -2.6860    0.4990    2.4030 c3        1 H2B      0.169800
     13 C9         -2.3780    0.6630    4.8810 c3        1 H2B      0.165100
     14 O9         -3.7910    0.5430    4.9050 oh        1 H2B     -0.611800
     15 C10        -1.7100    0.1180    6.1590 c3        1 H2B      0.120100
     16 C11        -2.5750    0.2930    7.3930 c3        1 H2B     -0.143100
     17 O10        -0.5110    0.8760    6.2810 oh        1 H2B     -0.599800
     18 H22         3.0200   -0.3460   -1.2970 hn        1 H2B      0.480467
     19 H21         1.5700   -0.8210   -2.0030 hn        1 H2B      0.480467
     20 H8         -2.5100    0.5940    0.3140 hn        1 H2B      0.479800
     21 H6         -2.3950   -1.2020    3.7620 h1        1 H2B      0.128700
     22 H71        -3.7040    0.0240    2.2980 h1        1 H2B      0.097700
     23 H72        -2.8410    1.6000    2.6070 h1        1 H2B      0.097700
     24 H9         -2.0830    1.7430    4.7490 h1        1 H2B      0.072700
     25 H9O1       -4.1130    1.0710    5.6480 ho        1 H2B      0.435000
     26 H10        -1.4630   -0.9730    6.0310 h1        1 H2B      0.054700
     27 H113       -2.8450    1.3670    7.5360 hc        1 H2B      0.056700
     28 H112       -2.0120   -0.0460    8.2970 hc        1 H2B      0.056700
     29 H111       -3.5060   -0.3160    7.3060 hc        1 H2B      0.056700
     30 H1O1       -0.0070    0.4900    7.0080 ho        1 H2B      0.421000
     31 H23         1.9090    0.8080   -1.8100 hn        1 H2B      0.480467
@<TRIPOS>BOND
     1    1    2 1   
     2    1    8 2   
     3    2    3 1   
     4    2    4 2   
     5    3   18 1   
     6    3   19 1   
     7    3   31 1   
     8    4    5 1   
     9    5    6 2   
    10    5    7 1   
    11    7    8 1   
    12    7    9 2   
    13    8   10 1   
    14    9   11 1   
    15   10   12 1   
    16   10   20 1   
    17   11   12 1   
    18   11   13 1   
    19   11   21 1   
    20   12   22 1   
    21   12   23 1   
    22   13   14 1   
    23   13   15 1   
    24   13   24 1   
    25   14   25 1   
    26   15   16 1   
    27   15   17 1   
    28   15   26 1   
    29   16   27 1   
    30   16   28 1   
    31   16   29 1   
    32   17   30 1   
@<TRIPOS>SUBSTRUCTURE
     1 H2B         1 TEMP              0 ****  ****    0 ROOT
