@<TRIPOS>MOLECULE
H2B
   30    31     1     0     0
SMALL
bcc


@<TRIPOS>ATOM
      1 N1         -1.0710    0.1500   -2.7360 nc        1 H2B     -0.814000
      2 C2          0.1690    0.3960   -3.4110 cc        1 H2B      0.922200
      3 N2          0.0860    0.4200   -4.7880 nh        1 H2B     -0.906800
      4 N3          1.3710    0.5980   -2.8370 nd        1 H2B     -0.784100
      5 C4          1.4930    0.5280   -1.4540 c         1 H2B      0.632200
      6 O4          2.5630    0.7850   -0.8860 o         1 H2B     -0.506100
      7 C4A         0.2720    0.1210   -0.6230 cd        1 H2B      0.245000
      8 C8A        -1.0160    0.0080   -1.4210 cd        1 H2B      0.608900
      9 N5          0.3680   -0.1130    0.6390 n2        1 H2B     -0.487900
     10 N8         -2.1480   -0.3300   -0.7030 nh        1 H2B     -0.816200
     11 C6         -0.7950   -0.5090    1.3960 c3        1 H2B      0.053500
     12 C7         -2.1590   -0.1880    0.7310 c3        1 H2B      0.186800
     13 C9         -0.8110    0.1150    2.8180 c3        1 H2B      0.129100
     14 O9         -1.9990   -0.3110    3.4650 oh        1 H2B     -0.600800
     15 C10         0.4190   -0.2560    3.6700 c3        1 H2B      0.121100
     16 C11         1.5270    0.7710    3.5600 c3        1 H2B     -0.133100
     17 O10         0.8590   -1.5690    3.3750 oh        1 H2B     -0.609800
     18 H22         0.8870    0.6610   -5.3190 hn        1 H2B      0.452300
     19 H21        -0.7970    0.3700   -5.2310 hn        1 H2B      0.452300
     20 H8         -3.0330   -0.3280   -1.1610 hn        1 H2B      0.451800
     21 H6         -0.7110   -1.6340    1.5290 h1        1 H2B      0.102700
     22 H71        -2.9310   -0.8950    1.1480 h1        1 H2B      0.066700
     23 H72        -2.4660    0.8610    1.0160 h1        1 H2B      0.066700
     24 H9         -0.9110    1.2340    2.7550 h1        1 H2B      0.087700
     25 H9O1       -1.8780   -1.2390    3.7080 ho        1 H2B      0.413000
     26 H10         0.0730   -0.3230    4.7460 h1        1 H2B      0.077700
     27 H113        2.3610    0.4900    4.2490 hc        1 H2B      0.057033
     28 H112        1.9360    0.8270    2.5230 hc        1 H2B      0.057033
     29 H111        1.1450    1.7780    3.8510 hc        1 H2B      0.057033
     30 H1O1        1.4830   -1.5160    2.6390 ho        1 H2B      0.420000
@<TRIPOS>BOND
     1    1    2 1   
     2    1    8 2   
     3    2    3 1   
     4    2    4 2   
     5    3   18 1   
     6    3   19 1   
     7    4    5 1   
     8    5    6 2   
     9    5    7 1   
    10    7    8 1   
    11    7    9 2   
    12    8   10 1   
    13    9   11 1   
    14   10   12 1   
    15   10   20 1   
    16   11   12 1   
    17   11   13 1   
    18   11   21 1   
    19   12   22 1   
    20   12   23 1   
    21   13   14 1   
    22   13   15 1   
    23   13   24 1   
    24   14   25 1   
    25   15   16 1   
    26   15   17 1   
    27   15   26 1   
    28   16   27 1   
    29   16   28 1   
    30   16   29 1   
    31   17   30 1   
@<TRIPOS>SUBSTRUCTURE
     1 H2B         1 TEMP              0 ****  ****    0 ROOT
