@<TRIPOS>MOLECULE
H2B
   31    32     1     0     0
SMALL
bcc


@<TRIPOS>ATOM
      1 N1         -0.0110    0.0980   -0.1030 nc        1 H2B     -0.844000
      2 C2          1.3650   -0.1340   -0.0280 cc        1 H2B      0.786200
      3 N2          2.0220   -0.1980   -1.3840 n4        1 H2B     -0.795600
      4 N3          2.1680   -0.2910    0.9990 nd        1 H2B     -0.681100
      5 C4          1.5990   -0.2320    2.3050 c         1 H2B      0.626200
      6 O4          2.3280   -0.2940    3.2910 o         1 H2B     -0.391100
      7 C4A         0.0900   -0.0970    2.4060 cd        1 H2B      0.228000
      8 C8A        -0.6430    0.1340    1.0950 cd        1 H2B      0.654900
      9 N5         -0.4960   -0.2080    3.5490 n2        1 H2B     -0.425900
     10 N8         -1.9790    0.3400    1.1650 nh        1 H2B     -0.753200
     11 C6         -1.9300   -0.1220    3.6470 c3        1 H2B      0.072500
     12 C7         -2.6590    0.5050    2.4320 c3        1 H2B      0.170800
     13 C9         -2.3840    0.6560    4.9190 c3        1 H2B      0.134100
     14 O9         -3.7980    0.5520    4.8700 oh        1 H2B     -0.613800
     15 C10        -1.7810    0.0570    6.2090 c3        1 H2B      0.124100
     16 C11        -2.6710    0.2970    7.4170 c3        1 H2B     -0.112100
     17 O10        -0.5550    0.7220    6.4680 oh        1 H2B     -0.588800
     18 H22         1.5960   -0.9610   -1.9240 hn        1 H2B      0.481467
     19 H21         1.8650    0.6920   -1.8710 hn        1 H2B      0.481467
     20 H8         -2.5170    0.4950    0.3350 hn        1 H2B      0.481800
     21 H6         -2.2920   -1.1930    3.7760 h1        1 H2B      0.126700
     22 H71        -3.6810    0.0310    2.3550 h1        1 H2B      0.101200
     23 H72        -2.8070    1.6110    2.6140 h1        1 H2B      0.101200
     24 H9         -2.0740    1.7360    4.8410 h1        1 H2B      0.069700
     25 H9O1       -4.1500    1.0400    5.6270 ho        1 H2B      0.437000
     26 H10        -1.6230   -1.0490    6.0750 h1        1 H2B      0.050700
     27 H113       -2.1340   -0.0300    8.3400 hc        1 H2B      0.058700
     28 H112       -2.9080    1.3830    7.5220 hc        1 H2B      0.058700
     29 H111       -3.6160   -0.2880    7.3190 hc        1 H2B      0.058700
     30 H1O1        0.1550    0.1960    6.0820 ho        1 H2B      0.418000
     31 H23         3.0320   -0.3660   -1.2800 hn        1 H2B      0.481467
@<TRIPOS>BOND
     1    1    2 1   
     2    1    8 2   
     3    2    3 1   
     4    2    4 2   
     5    3   18 1   
     6    3   19 1   
     7    3   31 1   
     8    4    5 1   
     9    5    6 2   
    10    5    7 1   
    11    7    8 1   
    12    7    9 2   
    13    8   10 1   
    14    9   11 1   
    15   10   12 1   
    16   10   20 1   
    17   11   12 1   
    18   11   13 1   
    19   11   21 1   
    20   12   22 1   
    21   12   23 1   
    22   13   14 1   
    23   13   15 1   
    24   13   24 1   
    25   14   25 1   
    26   15   16 1   
    27   15   17 1   
    28   15   26 1   
    29   16   27 1   
    30   16   28 1   
    31   16   29 1   
    32   17   30 1   
@<TRIPOS>SUBSTRUCTURE
     1 H2B         1 TEMP              0 ****  ****    0 ROOT
