@<TRIPOS>MOLECULE
H2B
   30    28     1     0     0
SMALL
bcc


@<TRIPOS>ATOM
      1 N1          1.1330   -1.8760   -2.4980 n1        1 H2B     -0.315000
      2 C2          2.6220   -1.8890   -2.4860 c1        1 H2B      0.257000
      3 N2          3.3360   -1.9610   -3.7060 n3        1 H2B     -0.338000
      4 N3          3.3690   -1.8170   -1.1800 n1        1 H2B     -0.359000
      5 C4          2.6440   -1.6990    0.0630 c1        1 H2B      0.323000
      6 O4          3.2550   -1.6590    1.1330 o         1 H2B     -0.265000
      7 C4A         1.1630   -1.6090    0.0510 c2        1 H2B     -0.107000
      8 C8A         0.4060   -1.7120   -1.2740 c2        1 H2B      0.182000
      9 N5          0.4260   -0.9460    1.2200 n1        1 H2B     -0.068000
     10 N8         -0.9290   -1.2320   -1.3020 n3        1 H2B     -0.295000
     11 C6         -0.9510   -0.4600    0.9560 c2        1 H2B     -0.081000
     12 C7         -1.5890   -1.1820   -0.1430 c3        1 H2B     -0.036000
     13 C9         -0.9780    1.0880    0.7140 c3        1 H2B      0.001000
     14 O9         -1.8860    1.3820   -0.2990 oh        1 H2B     -0.325000
     15 C10        -1.3830    1.7720    1.9530 c3        1 H2B     -0.005000
     16 C11        -1.3470    3.2940    1.7350 c3        1 H2B     -0.255000
     17 O10        -0.4860    1.4190    3.0060 oh        1 H2B     -0.318000
     18 H22         2.8910   -1.8920   -4.5020 hn        1 H2B      0.240000
     19 H21         4.2300   -2.0700   -3.6990 hn        1 H2B      0.240000
     20 H8         -1.4000   -1.2030   -2.1110 hn        1 H2B      0.251000
     21 H6         -1.5050   -0.5320    1.7820 ha        1 H2B      0.159000
     22 H71        -1.7420   -2.0870    0.1480 h1        1 H2B      0.101500
     23 H72        -2.4680   -0.7610   -0.3120 h1        1 H2B      0.101500
     24 H9         -0.1060    1.3850    0.4570 h1        1 H2B      0.101000
     25 H9O1       -1.6130    2.1390   -0.7440 ho        1 H2B      0.211000
     26 H10        -2.2910    1.5000    2.1940 h1        1 H2B      0.124000
     27 H113       -1.4200    3.7460    2.5900 hc        1 H2B      0.089667
     28 H112       -2.0920    3.5580    1.1630 hc        1 H2B      0.089667
     29 H111       -0.4980    3.5420    1.3040 hc        1 H2B      0.089667
     30 H1O1       -0.7900    1.7610    3.7890 ho        1 H2B      0.205000
@<TRIPOS>BOND
     1    1    8 1   
     2    2    3 1   
     3    2    4 1   
     4    3   18 1   
     5    3   19 1   
     6    5    6 1   
     7    5    7 1   
     8    7    8 1   
     9    7    9 1   
    10    8   10 1   
    11   10   12 1   
    12   10   20 1   
    13   11   12 1   
    14   11   13 1   
    15   11   21 1   
    16   12   22 1   
    17   12   23 1   
    18   13   14 1   
    19   13   15 1   
    20   13   24 1   
    21   14   25 1   
    22   15   16 1   
    23   15   17 1   
    24   15   26 1   
    25   16   27 1   
    26   16   28 1   
    27   16   29 1   
    28   17   30 1   
@<TRIPOS>SUBSTRUCTURE
     1 H2B         1 TEMP              0 ****  ****    0 ROOT
