@<TRIPOS>MOLECULE
H2K
   40    42     1     0     0
SMALL
bcc


@<TRIPOS>ATOM
      1 N6         -0.1690   -0.2940   -2.5480 n1        1 H2K     -0.337800
      2 C15         0.1850   -0.1210   -1.4550 cg        1 H2K      0.139800
      3 C13         0.6070    0.0820   -0.1080 ca        1 H2K      0.328000
      4 N4          1.7140    0.8340    0.1470 nb        1 H2K     -0.568000
      5 C12         2.0500    0.9950    1.4280 ca        1 H2K      0.241900
      6 C14        -0.1380   -0.5110    0.9500 ca        1 H2K      0.364900
      7 N5          0.1910   -0.3630    2.2430 nb        1 H2K     -0.649000
      8 C11         1.2880    0.4110    2.5130 ca        1 H2K      0.460900
      9 N3          1.7060    0.6620    3.8230 n         1 H2K     -0.558400
     10 C10         0.8880    0.4230    4.9650 c         1 H2K      0.779100
     11 O2         -0.3420    0.5940    4.9140 o         1 H2K     -0.553100
     12 N2          1.5490   -0.0090    6.1330 n         1 H2K     -0.450100
     13 C9          0.9370    0.0380    7.4020 ca        1 H2K      0.044600
     14 C16        -0.4160   -0.3040    7.5880 ca        1 H2K     -0.105000
     15 C1         -0.9650   -0.3200    8.8730 ca        1 H2K      0.011400
     16 CL         -2.6040   -0.7260    9.0660 cl        1 H2K     -0.081400
     17 C4          1.7120    0.3640    8.5550 ca        1 H2K      0.077100
     18 C3          1.1470    0.3190    9.8310 ca        1 H2K     -0.164000
     19 C2         -0.1940   -0.0160    9.9950 ca        1 H2K     -0.112000
     20 O1          3.0520    0.6500    8.3380 os        1 H2K     -0.346900
     21 C5          3.6590    1.5580    9.2670 c3        1 H2K      0.119100
     22 C8          4.3920    0.7690   10.3850 c3        1 H2K      0.119800
     23 N1          5.7940    1.1650   10.4130 n3        1 H2K     -0.789200
     24 C7          6.0810    1.9050    9.1870 c3        1 H2K      0.144800
     25 C6          4.7630    2.3020    8.5020 c3        1 H2K     -0.110400
     26 H13         2.9470    1.6100    1.6210 h4        1 H2K      0.040100
     27 H14        -1.0300   -1.1330    0.7480 h4        1 H2K      0.051100
     28 H12         2.6860    0.7930    3.9380 hn        1 H2K      0.325500
     29 H11         2.5470    0.0360    6.1630 hn        1 H2K      0.323500
     30 H15        -1.0490   -0.5470    6.7150 ha        1 H2K      0.188000
     31 H2          1.7660    0.5460   10.7130 ha        1 H2K      0.145000
     32 H1         -0.6350   -0.0420   11.0030 ha        1 H2K      0.152000
     33 H3          2.8940    2.2600    9.6850 h1        1 H2K      0.063700
     34 H9          4.3490   -0.3300   10.1480 h1        1 H2K      0.062700
     35 H10         3.8950    0.9360   11.3770 h1        1 H2K      0.062700
     36 H8          5.9780    1.7370   11.2160 hn        1 H2K      0.350800
     37 H6          6.7120    2.8110    9.3910 h1        1 H2K      0.053700
     38 H7          6.6680    1.2210    8.5140 h1        1 H2K      0.053700
     39 H4          4.7690    2.0020    7.4260 hc        1 H2K      0.060700
     40 H5          4.5940    3.4040    8.5580 hc        1 H2K      0.060700
@<TRIPOS>BOND
     1    1    2 3   
     2    2    3 1   
     3    3    4 ar  
     4    3    6 ar  
     5    4    5 ar  
     6    5    8 ar  
     7    5   26 1   
     8    6    7 ar  
     9    6   27 1   
    10    7    8 ar  
    11    8    9 1   
    12    9   10 1   
    13    9   28 1   
    14   10   11 2   
    15   10   12 1   
    16   12   13 1   
    17   12   29 1   
    18   13   14 ar  
    19   13   17 ar  
    20   14   15 ar  
    21   14   30 1   
    22   15   16 1   
    23   15   19 ar  
    24   17   18 ar  
    25   17   20 1   
    26   18   19 ar  
    27   18   31 1   
    28   19   32 1   
    29   20   21 1   
    30   21   22 1   
    31   21   25 1   
    32   21   33 1   
    33   22   23 1   
    34   22   34 1   
    35   22   35 1   
    36   23   24 1   
    37   23   36 1   
    38   24   25 1   
    39   24   37 1   
    40   24   38 1   
    41   25   39 1   
    42   25   40 1   
@<TRIPOS>SUBSTRUCTURE
     1 H2K         1 TEMP              0 ****  ****    0 ROOT
