@<TRIPOS>MOLECULE
H2K
   42    44     1     0     0
SMALL
bcc


@<TRIPOS>ATOM
      1 N6          0.7210   -3.5330   -0.1890 n1        1 H2K     -0.194800
      2 C15         0.8310   -2.5280    0.3840 cg        1 H2K      0.070800
      3 C13         0.9690   -1.2980    1.0910 ca        1 H2K      0.491000
      4 N4          0.3510   -0.1800    0.6430 nb        1 H2K     -0.553000
      5 C12         0.5250    0.9510    1.3570 ca        1 H2K      0.370900
      6 C14         1.7750   -1.2780    2.2870 ca        1 H2K      0.347900
      7 N5          1.9520   -0.1650    3.0000 nb        1 H2K     -0.640000
      8 C11         1.3280    0.9630    2.5330 ca        1 H2K      0.308900
      9 N3          1.5150    2.2080    3.2900 n4        1 H2K     -0.641500
     10 C10         0.8160    2.1600    4.6710 c         1 H2K      0.655100
     11 O2         -0.1490    2.9260    4.7260 o         1 H2K     -0.466100
     12 N2          1.3470    1.3420    5.6260 n         1 H2K     -0.408100
     13 C9          0.6970    1.1500    6.8780 ca        1 H2K      0.022600
     14 C16        -0.7040    1.2300    6.9950 ca        1 H2K     -0.107000
     15 C1         -1.3270    1.0100    8.2270 ca        1 H2K      0.034400
     16 CL         -3.0050    1.1240    8.3400 cl        1 H2K      0.002600
     17 C4          1.4560    0.8340    8.0350 ca        1 H2K      0.073100
     18 C3          0.8160    0.6020    9.2560 ca        1 H2K     -0.154000
     19 C2         -0.5680    0.6930    9.3600 ca        1 H2K     -0.073000
     20 O1          2.8370    0.6830    7.8920 os        1 H2K     -0.346900
     21 C5          3.6120    1.1410    9.0030 c3        1 H2K      0.138100
     22 C8          3.9550   -0.0520    9.9290 c3        1 H2K      0.069800
     23 N1          5.4250   -0.3260    9.8200 n4        1 H2K     -0.762000
     24 C7          6.0560    0.8490    9.1250 c3        1 H2K      0.108800
     25 C6          4.9480    1.6540    8.4480 c3        1 H2K     -0.110400
     26 H13         0.0030    1.8470    0.9630 h4        1 H2K      0.080100
     27 H14         2.2790   -2.1970    2.6520 h4        1 H2K      0.084100
     28 H12         1.0690    2.9810    2.7670 hn        1 H2K      0.480300
     29 H11         5.5800   -1.1790    9.2730 hn        1 H2K      0.465800
     30 H15        -1.3280    1.4840    6.1180 ha        1 H2K      0.183000
     31 H2          1.4070    0.3460   10.1490 ha        1 H2K      0.143000
     32 H1         -1.0630    0.5150   10.3310 ha        1 H2K      0.186000
     33 H3          3.0640    1.9350    9.5770 h1        1 H2K      0.116700
     34 H9          3.3780   -0.9710    9.6260 hx        1 H2K      0.125700
     35 H10         3.7140    0.2020   11.0000 hx        1 H2K      0.125700
     36 H8          5.8380   -0.4600   10.7480 hn        1 H2K      0.465800
     37 H6          6.5930    1.4740    9.8960 hx        1 H2K      0.121200
     38 H7          6.8120    0.4730    8.3800 hx        1 H2K      0.121200
     39 H4          5.0720    2.7450    8.6690 hc        1 H2K      0.107200
     40 H5          4.9840    1.5200    7.3360 hc        1 H2K      0.107200
     41 H32         2.5170    2.4080    3.3940 hn        1 H2K      0.480300
     42 H22         2.1470    0.7700    5.4500 hn        1 H2K      0.370500
@<TRIPOS>BOND
     1    1    2 3   
     2    2    3 1   
     3    3    4 ar  
     4    3    6 ar  
     5    4    5 ar  
     6    5    8 ar  
     7    5   26 1   
     8    6    7 ar  
     9    6   27 1   
    10    7    8 ar  
    11    8    9 1   
    12    9   10 1   
    13    9   28 1   
    14    9   41 1   
    15   10   11 2   
    16   10   12 1   
    17   12   13 1   
    18   12   42 1   
    19   13   14 ar  
    20   13   17 ar  
    21   14   15 ar  
    22   14   30 1   
    23   15   16 1   
    24   15   19 ar  
    25   17   18 ar  
    26   17   20 1   
    27   18   19 ar  
    28   18   31 1   
    29   19   32 1   
    30   20   21 1   
    31   21   22 1   
    32   21   25 1   
    33   21   33 1   
    34   22   23 1   
    35   22   34 1   
    36   22   35 1   
    37   23   24 1   
    38   23   29 1   
    39   23   36 1   
    40   24   25 1   
    41   24   37 1   
    42   24   38 1   
    43   25   39 1   
    44   25   40 1   
@<TRIPOS>SUBSTRUCTURE
     1 H2K         1 TEMP              0 ****  ****    0 ROOT
