@<TRIPOS>MOLECULE
H2K
   40    42     1     0     0
SMALL
bcc


@<TRIPOS>ATOM
      1 N6         -8.3760   -1.3660    0.2070 n1        1 H2K     -0.337800
      2 C15        -7.2160   -1.3540    0.1310 cg        1 H2K      0.139800
      3 C13        -5.7930   -1.3230    0.0430 ca        1 H2K      0.327000
      4 N4         -5.1200   -2.4220   -0.4010 nb        1 H2K     -0.567000
      5 C12        -3.7910   -2.3270   -0.4690 ca        1 H2K      0.240900
      6 C14        -5.0990   -0.1410    0.4260 ca        1 H2K      0.365900
      7 N5         -3.7620   -0.0320    0.3690 nb        1 H2K     -0.649000
      8 C11        -3.0760   -1.1220   -0.0980 ca        1 H2K      0.460900
      9 N3         -1.6850   -1.1120   -0.2290 n         1 H2K     -0.560400
     10 C10        -0.9040    0.0790   -0.2080 c         1 H2K      0.780100
     11 O2         -1.3440    1.1360   -0.6930 o         1 H2K     -0.552100
     12 N2          0.3710   -0.0150    0.3870 n         1 H2K     -0.449100
     13 C9          1.3740    0.9520    0.1660 ca        1 H2K      0.042600
     14 C16         1.0820    2.3270    0.1130 ca        1 H2K     -0.105000
     15 C1          2.1120    3.2580   -0.0370 ca        1 H2K      0.010400
     16 CL          1.7290    4.9120   -0.1100 cl        1 H2K     -0.081400
     17 C4          2.7400    0.5500    0.0680 ca        1 H2K      0.079100
     18 C3          3.7560    1.5000   -0.0630 ca        1 H2K     -0.167000
     19 C2          3.4460    2.8560   -0.1220 ca        1 H2K     -0.110000
     20 O1          2.9920   -0.8090    0.1770 os        1 H2K     -0.355900
     21 C5          4.1750   -1.2850   -0.4830 c3        1 H2K      0.117100
     22 C8          5.3740   -1.3000    0.5010 c3        1 H2K      0.119800
     23 N1          5.6850   -2.6780    0.8610 n3        1 H2K     -0.789200
     24 C7          4.9890   -3.5560   -0.0770 c3        1 H2K      0.143800
     25 C6          3.9160   -2.7570   -0.8360 c3        1 H2K     -0.110400
     26 H13        -3.2590   -3.2220   -0.8340 h4        1 H2K      0.040100
     27 H14        -5.6400    0.7490    0.7980 h4        1 H2K      0.051100
     28 H12        -1.2410   -1.9960   -0.1200 hn        1 H2K      0.325500
     29 H11         0.7260   -0.9220    0.6100 hn        1 H2K      0.321500
     30 H15         0.0330    2.6720    0.1730 ha        1 H2K      0.188000
     31 H2          4.8070    1.1780   -0.1180 ha        1 H2K      0.147000
     32 H1          4.2500    3.5990   -0.2330 ha        1 H2K      0.153000
     33 H3          4.3920   -0.6660   -1.3900 h1        1 H2K      0.069700
     34 H9          6.2770   -0.8720   -0.0150 h1        1 H2K      0.062200
     35 H10         5.1470   -0.6720    1.4030 h1        1 H2K      0.062200
     36 H8          5.3860   -2.8660    1.8000 hn        1 H2K      0.354800
     37 H6          5.7570   -3.9460   -0.8010 h1        1 H2K      0.053200
     38 H7          4.5330   -4.4360    0.4480 h1        1 H2K      0.053200
     39 H4          2.8890   -3.0610   -0.5170 hc        1 H2K      0.061700
     40 H5          4.0030   -2.9160   -1.9370 hc        1 H2K      0.061700
@<TRIPOS>BOND
     1    1    2 3   
     2    2    3 1   
     3    3    4 ar  
     4    3    6 ar  
     5    4    5 ar  
     6    5    8 ar  
     7    5   26 1   
     8    6    7 ar  
     9    6   27 1   
    10    7    8 ar  
    11    8    9 1   
    12    9   10 1   
    13    9   28 1   
    14   10   11 2   
    15   10   12 1   
    16   12   13 1   
    17   12   29 1   
    18   13   14 ar  
    19   13   17 ar  
    20   14   15 ar  
    21   14   30 1   
    22   15   16 1   
    23   15   19 ar  
    24   17   18 ar  
    25   17   20 1   
    26   18   19 ar  
    27   18   31 1   
    28   19   32 1   
    29   20   21 1   
    30   21   22 1   
    31   21   25 1   
    32   21   33 1   
    33   22   23 1   
    34   22   34 1   
    35   22   35 1   
    36   23   24 1   
    37   23   36 1   
    38   24   25 1   
    39   24   37 1   
    40   24   38 1   
    41   25   39 1   
    42   25   40 1   
@<TRIPOS>SUBSTRUCTURE
     1 H2K         1 TEMP              0 ****  ****    0 ROOT
