@<TRIPOS>MOLECULE
H2K
   40    42     1     0     0
SMALL
bcc


@<TRIPOS>ATOM
      1 N6         -0.1750   -0.3030   -2.5450 n1        1 H2K     -0.337800
      2 C15         0.1790   -0.1290   -1.4520 cg        1 H2K      0.139800
      3 C13         0.6020    0.0750   -0.1060 ca        1 H2K      0.328000
      4 N4          1.7090    0.8290    0.1470 nb        1 H2K     -0.568000
      5 C12         2.0460    0.9920    1.4280 ca        1 H2K      0.241900
      6 C14        -0.1420   -0.5170    0.9530 ca        1 H2K      0.364900
      7 N5          0.1880   -0.3680    2.2460 nb        1 H2K     -0.649000
      8 C11         1.2850    0.4070    2.5140 ca        1 H2K      0.460900
      9 N3          1.7040    0.6590    3.8240 ns        1 H2K     -0.558400
     10 C10         0.8870    0.4200    4.9660 c         1 H2K      0.779100
     11 O2         -0.3440    0.5910    4.9160 o         1 H2K     -0.553100
     12 N2          1.5490   -0.0100    6.1340 ns        1 H2K     -0.450100
     13 C9          0.9370    0.0390    7.4040 ca        1 H2K      0.044600
     14 C16        -0.4150   -0.3040    7.5910 ca        1 H2K     -0.105000
     15 C1         -0.9630   -0.3180    8.8760 ca        1 H2K      0.011400
     16 Cl         -2.6020   -0.7240    9.0720 cl        1 H2K     -0.081400
     17 C4          1.7140    0.3660    8.5560 ca        1 H2K      0.077100
     18 C3          1.1500    0.3230    9.8320 ca        1 H2K     -0.164000
     19 C2         -0.1910   -0.0120    9.9980 ca        1 H2K     -0.112000
     20 O1          3.0530    0.6520    8.3360 os        1 H2K     -0.346900
     21 C5          3.6620    1.5610    9.2650 c3        1 H2K      0.119100
     22 C8          4.3950    0.7730   10.3830 c3        1 H2K      0.119800
     23 N1          5.7980    1.1680   10.4090 n7        1 H2K     -0.789200
     24 C7          6.0830    1.9070    9.1820 c3        1 H2K      0.144800
     25 C6          4.7640    2.3040    8.4980 c3        1 H2K     -0.110400
     26 H13         2.9420    1.6070    1.6190 h4        1 H2K      0.040100
     27 H14        -1.0340   -1.1390    0.7520 h4        1 H2K      0.051100
     28 H12         2.6830    0.7910    3.9380 hn        1 H2K      0.325500
     29 H11         2.5460    0.0360    6.1630 hn        1 H2K      0.323500
     30 H15        -1.0480   -0.5470    6.7200 ha        1 H2K      0.188000
     31 H2          1.7690    0.5510   10.7130 ha        1 H2K      0.145000
     32 H1         -0.6310   -0.0370   11.0060 ha        1 H2K      0.152000
     33 H3          2.8970    2.2640    9.6820 h1        1 H2K      0.063700
     34 H9          3.8990    0.9420   11.3750 h1        1 H2K      0.062700
     35 H10         4.3510   -0.3270   10.1470 h1        1 H2K      0.062700
     36 H8          5.9820    1.7410   11.2110 hn        1 H2K      0.350800
     37 H6          6.6690    1.2220    8.5100 h1        1 H2K      0.053700
     38 H7          6.7150    2.8130    9.3850 h1        1 H2K      0.053700
     39 H4          4.7700    2.0030    7.4220 hc        1 H2K      0.060700
     40 H5          4.5970    3.4060    8.5540 hc        1 H2K      0.060700
@<TRIPOS>BOND
     1    1    2 3   
     2    2    3 1   
     3    3    4 ar  
     4    3    6 ar  
     5    4    5 ar  
     6    5    8 ar  
     7    5   26 1   
     8    6    7 ar  
     9    6   27 1   
    10    7    8 ar  
    11    8    9 1   
    12    9   10 1   
    13    9   28 1   
    14   10   11 2   
    15   10   12 1   
    16   12   13 1   
    17   12   29 1   
    18   13   14 ar  
    19   13   17 ar  
    20   14   15 ar  
    21   14   30 1   
    22   15   16 1   
    23   15   19 ar  
    24   17   18 ar  
    25   17   20 1   
    26   18   19 ar  
    27   18   31 1   
    28   19   32 1   
    29   20   21 1   
    30   21   22 1   
    31   21   25 1   
    32   21   33 1   
    33   22   23 1   
    34   22   34 1   
    35   22   35 1   
    36   23   24 1   
    37   23   36 1   
    38   24   25 1   
    39   24   37 1   
    40   24   38 1   
    41   25   39 1   
    42   25   40 1   
@<TRIPOS>SUBSTRUCTURE
     1 H2K         1 TEMP              0 ****  ****    0 ROOT
