@<TRIPOS>MOLECULE
H2P
   30    30     1     0     0
SMALL
bcc


@<TRIPOS>ATOM
      1 C1          0.8480   -0.8790   -0.0450 c3        1 H2P      0.448600
      2 C2          1.5630   -0.4940   -1.4020 c3        1 H2P      0.111100
      3 C3          0.6820    0.4860   -2.1950 c3        1 H2P      0.092100
      4 C4         -0.7900    0.0420   -2.2890 c3        1 H2P      0.088100
      5 C5         -1.3040   -0.3430   -0.8950 c3        1 H2P      0.051100
      6 C6         -2.7350   -0.8730   -0.9060 c3        1 H2P      0.167400
      7 C7          1.5720   -2.0610    0.5970 c3        1 H2P     -0.110100
      8 O1          0.7690    0.2430    0.6910 os        1 H2P     -0.602200
      9 O2          2.8100    0.1120   -1.1200 oh        1 H2P     -0.636800
     10 O3          1.2230    0.6020   -3.5110 oh        1 H2P     -0.621800
     11 O4         -1.5500    1.0930   -2.8760 oh        1 H2P     -0.644800
     12 O5         -0.4630   -1.3790   -0.4080 os        1 H2P     -0.472600
     13 O6         -3.5240   -0.3490    0.1390 oh        1 H2P     -0.676800
     14 P           0.0510    0.7750    2.2590 p5        1 H2P      1.362900
     15 OP1         0.3900   -0.3670    3.1600 o         1 H2P     -0.912500
     16 OP2         0.7910    2.0580    2.4420 o         1 H2P     -0.912500
     17 OP3        -1.3830    0.8840    1.8090 o         1 H2P     -0.912500
     18 H2          1.7920   -1.4010   -2.0160 h1        1 H2P      0.042700
     19 H3          0.7290    1.4910   -1.6840 h1        1 H2P      0.063700
     20 H4         -0.8860   -0.8130   -3.0120 h1        1 H2P      0.050700
     21 H5         -1.2310    0.5490   -0.1780 h1        1 H2P      0.167700
     22 H61        -3.2470   -0.5730   -1.8620 h1        1 H2P      0.007700
     23 H62        -2.7350   -1.9940   -0.8250 h1        1 H2P      0.007700
     24 H71         1.1500   -2.2490    1.6140 hc        1 H2P      0.037367
     25 H72         1.4600   -2.9730   -0.0340 hc        1 H2P      0.037367
     26 H73         2.6520   -1.8000    0.6870 hc        1 H2P      0.037367
     27 HO2         2.6640    0.6740   -0.3390 ho        1 H2P      0.439000
     28 HO3         0.6000    1.1560   -3.9970 ho        1 H2P      0.382000
     29 HO4        -1.7600    1.7110   -2.1640 ho        1 H2P      0.412000
     30 HO6        -2.9290   -0.0380    0.8570 ho        1 H2P      0.497000
@<TRIPOS>BOND
     1    1    2 1   
     2    1    7 1   
     3    1    8 1   
     4    1   12 1   
     5    2    3 1   
     6    2    9 1   
     7    2   18 1   
     8    3    4 1   
     9    3   10 1   
    10    3   19 1   
    11    4    5 1   
    12    4   11 1   
    13    4   20 1   
    14    5    6 1   
    15    5   12 1   
    16    5   21 1   
    17    6   13 1   
    18    6   22 1   
    19    6   23 1   
    20    7   24 1   
    21    7   25 1   
    22    7   26 1   
    23    8   14 1   
    24    9   27 1   
    25   10   28 1   
    26   11   29 1   
    27   13   30 1   
    28   14   15 1   
    29   14   16 1   
    30   14   17 1   
@<TRIPOS>SUBSTRUCTURE
     1 H2P         1 TEMP              0 ****  ****    0 ROOT
