@<TRIPOS>MOLECULE
H2P
   30    30     1     0     0
SMALL
bcc


@<TRIPOS>ATOM
      1 C1         -0.3480    0.2650   -1.0390 c3        1 H2P      0.408600
      2 C2          1.1660    0.2310   -1.0620 c3        1 H2P      0.106100
      3 C3          1.7510    0.2100    0.3030 c3        1 H2P      0.077100
      4 C4          1.1650   -0.8650    1.1520 c3        1 H2P      0.128100
      5 C5         -0.3520   -0.8270    1.1650 c3        1 H2P      0.090100
      6 C6         -0.7960    0.3950    1.8990 c3        1 H2P      0.116400
      7 C7         -0.8100    1.6430   -0.5000 c3        1 H2P     -0.124100
      8 O1         -0.8200    0.1100   -2.3330 os        1 H2P     -0.530200
      9 O2          1.5940   -0.9490   -1.7700 oh        1 H2P     -0.656800
     10 O3          1.5090    1.4940    0.9380 oh        1 H2P     -0.634800
     11 O4          1.5940   -2.1410    0.6450 oh        1 H2P     -0.656800
     12 O5         -0.9260   -0.8020   -0.1850 os        1 H2P     -0.406600
     13 O6         -1.1050    0.0580    3.2280 oh        1 H2P     -0.651800
     14 P          -2.0390   -0.9000   -2.5870 p5        1 H2P      1.348900
     15 OP1        -1.5950   -2.3020   -2.2970 o         1 H2P     -0.916500
     16 OP2        -2.4840   -0.8000   -4.0320 o         1 H2P     -0.916500
     17 OP3        -3.1870   -0.5400   -1.6830 o         1 H2P     -0.916500
     18 H2          1.4930    1.0200   -1.5340 h1        1 H2P      0.020700
     19 H3          2.7200    0.0670    0.2320 h1        1 H2P      0.074700
     20 H4          1.4940   -0.7600    2.0700 h1        1 H2P      0.027700
     21 H5         -0.6800   -1.6080    1.6300 h1        1 H2P      0.094700
     22 H61        -1.5860    0.7650    1.4650 h1        1 H2P      0.006200
     23 H62        -0.0810    1.0560    1.8900 h1        1 H2P      0.006200
     24 H71        -1.7620    1.5880   -0.2220 hc        1 H2P      0.019700
     25 H72        -0.2540    1.8970    0.2770 hc        1 H2P      0.019700
     26 H73        -0.7150    2.3160   -1.2030 hc        1 H2P      0.019700
     27 HO2         2.1370   -0.7150   -2.4350 ho        1 H2P      0.493000
     28 HO3         2.2780    1.8620    1.1580 ho        1 H2P      0.391000
     29 HO4         2.1660   -2.5070    1.2120 ho        1 H2P      0.502000
     30 HO6        -1.5260    0.7380    3.6160 ho        1 H2P      0.461000
@<TRIPOS>BOND
     1    1    2 1   
     2    1    7 1   
     3    1    8 1   
     4    1   12 1   
     5    2    3 1   
     6    2    9 1   
     7    2   18 1   
     8    3    4 1   
     9    3   10 1   
    10    3   19 1   
    11    4    5 1   
    12    4   11 1   
    13    4   20 1   
    14    5    6 1   
    15    5   12 1   
    16    5   21 1   
    17    6   13 1   
    18    6   22 1   
    19    6   23 1   
    20    7   24 1   
    21    7   25 1   
    22    7   26 1   
    23    8   14 1   
    24    9   27 1   
    25   10   28 1   
    26   11   29 1   
    27   13   30 1   
    28   14   15 1   
    29   14   16 1   
    30   14   17 1   
@<TRIPOS>SUBSTRUCTURE
     1 H2P         1 TEMP              0 ****  ****    0 ROOT
