@<TRIPOS>MOLECULE
H2S
    3     2     1     0     0
SMALL
bcc


@<TRIPOS>ATOM
      1 S           0.0000   -0.0000   -0.0970 sh        1 H2S     -0.440600
      2 HS1         1.2920    0.0000    0.1890 hs        1 H2S      0.219800
      3 HS2        -0.4080    0.0000    1.1610 hs        1 H2S      0.219800
@<TRIPOS>BOND
     1    1    2 1   
     2    1    3 1   
@<TRIPOS>SUBSTRUCTURE
     1 H2S         1 TEMP              0 ****  ****    0 ROOT
