@<TRIPOS>MOLECULE
H2U
   34    34     1     0     0
SMALL
bcc


@<TRIPOS>ATOM
      1 P           3.7480   -3.5530    0.7390 p4        1 H2U      1.721200
      2 OP1         5.2130   -3.7830    0.4010 o         1 H2U     -0.843000
      3 OP2         3.5770   -3.5300    2.2340 os        1 H2U     -0.833000
      4 OP3         2.9120   -4.6740    0.1510 o         1 H2U     -0.891800
      5 O5'         3.2620   -2.1260    0.1150 os        1 H2U     -0.599200
      6 C5'         2.0030   -1.5620    0.5750 c3        1 H2U      0.181400
      7 C4'         1.6660   -0.3460   -0.2450 c3        1 H2U      0.040100
      8 O4'         0.6170   -0.5720   -0.9540 os        1 H2U     -0.444600
      9 C3'         1.2940    0.9150    0.7370 c3        1 H2U      0.272100
     10 O3'         2.5410    1.6120    1.1680 oh        1 H2U     -0.991800
     11 C1'        -0.0970    0.7470   -1.0210 c3        1 H2U      0.288500
     12 C2'         0.6030    1.6760    0.0670 c3        1 H2U      0.040100
     13 O2'         1.4810    2.7190   -0.6170 oh        1 H2U     -0.648800
     14 N1         -1.3860    0.5890   -0.7330 n         1 H2U     -0.441800
     15 C2         -1.8440   -0.6400   -0.1710 c         1 H2U      0.814500
     16 O2         -1.0310   -1.5390    0.0900 o         1 H2U     -0.706500
     17 N3         -3.2590   -0.9040   -0.0740 n         1 H2U     -0.613500
     18 C4         -4.1850    0.1590   -0.1650 c         1 H2U      0.724500
     19 O4         -5.3820   -0.0530    0.0050 o         1 H2U     -0.681500
     20 C5         -3.7050    1.5560   -0.5120 c3        1 H2U     -0.203400
     21 C6         -2.3190    1.5730   -1.1250 c3        1 H2U      0.078000
     22 H5'         1.2850   -2.2350    0.4760 h1        1 H2U      0.019700
     23 H5''        2.0870   -1.3040    1.5310 h1        1 H2U      0.019700
     24 H4'         2.4190   -0.1100   -0.8240 h1        1 H2U      0.043700
     25 H3'         0.7960    0.6030    1.5160 h1        1 H2U     -0.060300
     26 HO3'        2.5080    1.7660    2.0490 ho        1 H2U      0.449000
     27 H1'         0.0060    1.1510   -1.9380 h2        1 H2U      0.087700
     28 H2'        -0.0680    2.1090    0.6280 h1        1 H2U      0.027700
     29 HO2'        1.1610    3.5230   -0.4590 ho        1 H2U      0.434000
     30 HN3        -3.5640   -1.7790    0.0570 hn        1 H2U      0.317500
     31 H51        -4.4470    2.0110   -0.9920 hc        1 H2U      0.130200
     32 H52        -3.5480    2.0330    0.3180 hc        1 H2U      0.130200
     33 H61        -2.4270    1.5040   -2.1010 h1        1 H2U      0.069700
     34 H62        -1.9170    2.4600   -0.9280 h1        1 H2U      0.069700
@<TRIPOS>BOND
     1    1    2 1   
     2    1    4 2   
     3    1    5 1   
     4    5    6 1   
     5    6    7 1   
     6    6   22 1   
     7    6   23 1   
     8    7    8 1   
     9    7    9 1   
    10    7   24 1   
    11    8   11 1   
    12    9   10 1   
    13    9   12 1   
    14    9   25 1   
    15   10   26 1   
    16   11   12 1   
    17   11   14 1   
    18   11   27 1   
    19   12   13 1   
    20   12   28 1   
    21   13   29 1   
    22   14   15 1   
    23   14   21 1   
    24   15   16 2   
    25   15   17 1   
    26   17   18 1   
    27   17   30 1   
    28   18   19 2   
    29   18   20 1   
    30   20   21 1   
    31   20   31 1   
    32   20   32 1   
    33   21   33 1   
    34   21   34 1   
@<TRIPOS>SUBSTRUCTURE
     1 H2U         1 TEMP              0 ****  ****    0 ROOT
