@<TRIPOS>MOLECULE
H2U
   34    35     1     0     0
SMALL
bcc


@<TRIPOS>ATOM
      1 P          -0.8980   -0.0420   -2.5230 p5        1 H2U      1.341900
      2 OP1        -1.5370   -0.2900   -1.1750 o         1 H2U     -0.925167
      3 OP2        -1.7940    0.3380   -3.6560 o         1 H2U     -0.925167
      4 OP3         0.2610   -0.9790   -2.7750 o         1 H2U     -0.925167
      5 O5'         0.0390    1.3950   -2.2210 os        1 H2U     -0.564200
      6 C5'         0.2170    1.7560   -0.9160 c3        1 H2U      0.211400
      7 C4'         1.5750    1.2770   -0.3500 c3        1 H2U      0.059100
      8 O4'         1.6970    1.6940    1.0340 os        1 H2U     -0.443600
      9 C3'         1.7360   -0.2550   -0.3930 c3        1 H2U      0.092100
     10 O3'         2.6660   -0.6410   -1.3760 oh        1 H2U     -0.671800
     11 C1'         1.8350    0.5700    1.9000 c3        1 H2U      0.281500
     12 C2'         2.2550   -0.6430    1.0030 c3        1 H2U      0.099100
     13 O2'         3.6600   -0.7890    1.0870 oh        1 H2U     -0.614800
     14 N1          0.6230    0.3560    2.7080 n         1 H2U     -0.453800
     15 C2          0.5340   -0.8720    3.3920 c         1 H2U      0.806500
     16 O2          1.5160   -1.4090    3.9620 o         1 H2U     -0.685500
     17 N3         -0.7270   -1.4920    3.5530 n         1 H2U     -0.619500
     18 C4         -1.8760   -1.0930    2.8560 c         1 H2U      0.724500
     19 O4         -2.9340   -1.7100    3.0840 o         1 H2U     -0.665500
     20 C5         -1.7380    0.0600    1.9060 c3        1 H2U     -0.225400
     21 C6         -0.6250    1.0010    2.3560 c3        1 H2U      0.077000
     22 H5'        -0.6150    1.3460   -0.2740 h1        1 H2U      0.000700
     23 H5''        0.2180    2.8840   -0.8360 h1        1 H2U      0.000700
     24 H4'         2.4210    1.7800   -0.8870 h1        1 H2U      0.049700
     25 H3'         0.7230   -0.7260   -0.6140 h1        1 H2U      0.151700
     26 HO3'        2.1230   -0.8510   -2.1740 ho        1 H2U      0.501000
     27 H1'         2.6550    0.8320    2.6300 h2        1 H2U      0.074700
     28 H2'         1.8260   -1.6130    1.3640 h1        1 H2U      0.074700
     29 HO2'        4.0360   -0.4420    0.2670 ho        1 H2U      0.419000
     30 HN3        -0.7530   -2.3130    4.1130 hn        1 H2U      0.318500
     31 H51        -2.7080    0.6170    1.8540 hc        1 H2U      0.158700
     32 H52        -1.5530   -0.3290    0.8380 hc        1 H2U      0.158700
     33 H61        -0.9680    1.5500    3.2830 h1        1 H2U      0.060700
     34 H62        -0.4390    1.7720    1.5550 h1        1 H2U      0.060700
@<TRIPOS>BOND
     1    1    2 1   
     2    1    3 1   
     3    1    4 1   
     4    1    5 1   
     5    5    6 1   
     6    6    7 1   
     7    6   22 1   
     8    6   23 1   
     9    7    8 1   
    10    7    9 1   
    11    7   24 1   
    12    8   11 1   
    13    9   10 1   
    14    9   12 1   
    15    9   25 1   
    16   10   26 1   
    17   11   12 1   
    18   11   14 1   
    19   11   27 1   
    20   12   13 1   
    21   12   28 1   
    22   13   29 1   
    23   14   15 1   
    24   14   21 1   
    25   15   16 2   
    26   15   17 1   
    27   17   18 1   
    28   17   30 1   
    29   18   19 2   
    30   18   20 1   
    31   20   21 1   
    32   20   31 1   
    33   20   32 1   
    34   21   33 1   
    35   21   34 1   
@<TRIPOS>SUBSTRUCTURE
     1 H2U         1 TEMP              0 ****  ****    0 ROOT
