@<TRIPOS>MOLECULE
H2V
   50    49     1     0     0
SMALL
bcc


@<TRIPOS>ATOM
      1 C          -4.5960    0.1600    0.5520 c3        1 H2V     -0.091100
      2 N          -1.0550   -2.4160   -0.7060 n         1 H2V     -0.540900
      3 O          -2.1680    1.4590   -1.0590 os        1 H2V     -0.560200
      4 P          -0.7180    1.3770   -1.9720 p5        1 H2V      1.347900
      5 S           4.1430    1.7400    0.9050 ss        1 H2V     -0.207700
      6 C1         -3.3400   -0.4380   -0.0750 c3        1 H2V     -0.111000
      7 N1          1.8300   -0.9860   -0.9210 n         1 H2V     -0.541900
      8 O1          0.3510    1.6140   -0.9330 o         1 H2V     -0.922833
      9 C2         -3.6220   -0.7740   -1.5300 c3        1 H2V     -0.091100
     10 N2          7.9490    1.6520    1.9090 n3        1 H2V     -0.891800
     11 O2         -0.6610   -0.0980   -2.3280 o         1 H2V     -0.922833
     12 C3         -2.2050    0.6250    0.0320 c3        1 H2V      0.228400
     13 O3         -0.9340    2.3730   -3.0580 o         1 H2V     -0.922833
     14 C4         -3.0040   -1.7220    0.7070 c3        1 H2V      0.093100
     15 O4         -2.3550   -1.4740    1.9420 oh        1 H2V     -0.615800
     16 C5         -2.2150   -2.7870   -0.0830 c         1 H2V      0.622100
     17 O5         -2.6150   -3.9790   -0.0480 o         1 H2V     -0.694100
     18 C6         -0.2990   -3.3750   -1.4700 c3        1 H2V      0.112000
     19 O6          2.9360   -2.9730   -1.2740 o         1 H2V     -0.723100
     20 C7          0.7850   -2.7300   -2.3320 c3        1 H2V     -0.174400
     21 O7          6.3620    0.9450   -0.3360 o         1 H2V     -0.570100
     22 C8          1.9340   -2.2310   -1.4730 c         1 H2V      0.659100
     23 C9          2.8600   -0.4510   -0.0760 c3        1 H2V      0.119000
     24 C10         3.2230    0.9920   -0.4060 c3        1 H2V     -0.069300
     25 C11         5.7930    1.5150    0.6090 c         1 H2V      0.488700
     26 C12         6.6210    2.1750    1.7120 c3        1 H2V      0.050800
     27 H          -5.4820   -0.4920    0.3610 hc        1 H2V      0.034367
     28 HA         -4.4630    0.2690    1.6550 hc        1 H2V      0.034367
     29 HB         -4.7840    1.1670    0.1070 hc        1 H2V      0.034367
     30 HN         -0.9610   -1.4460   -1.0230 hn        1 H2V      0.397500
     31 HN1         1.0510   -0.3640   -1.1670 hn        1 H2V      0.410500
     32 H2         -4.3790   -0.0660   -1.9450 hc        1 H2V      0.034367
     33 H2A        -2.6800   -0.6420   -2.1370 hc        1 H2V      0.034367
     34 H2B        -4.0100   -1.8150   -1.6350 hc        1 H2V      0.034367
     35 HN2         7.8990    0.7000    2.2210 hn        1 H2V      0.344800
     36 H3         -1.2040    0.1230    0.1690 h1        1 H2V     -0.004300
     37 H3A        -2.4080    1.2320    0.9650 h1        1 H2V     -0.004300
     38 H4         -3.9690   -2.2270    1.0150 h1        1 H2V      0.064700
     39 HO4        -1.5350   -0.9990    1.7540 ho        1 H2V      0.418000
     40 H6          0.1690   -4.1120   -0.7560 h1        1 H2V      0.023700
     41 H6A        -0.9870   -3.9630   -2.1470 h1        1 H2V      0.023700
     42 H7          1.1930   -3.5080   -3.0260 hc        1 H2V      0.094700
     43 H7A         0.3460   -1.8790   -2.9350 hc        1 H2V      0.094700
     44 H9          2.4940   -0.4830    0.9930 h1        1 H2V      0.034700
     45 H9A         3.7820   -1.0980   -0.1450 h1        1 H2V      0.034700
     46 H10         2.2710    1.6200   -0.4820 h1        1 H2V      0.150200
     47 H10A        3.7700    1.0610   -1.3730 h1        1 H2V      0.150200
     48 H24         8.4460    1.6570    1.0350 hn        1 H2V      0.344800
     49 H12         6.0580    2.1020    2.6840 h1        1 H2V      0.071700
     50 H26         6.7140    3.2670    1.4450 h1        1 H2V      0.071700
@<TRIPOS>BOND
     1    1    6 1   
     2    1   27 1   
     3    1   28 1   
     4    1   29 1   
     5    2   16 1   
     6    2   18 1   
     7    2   30 1   
     8    3    4 1   
     9    3   12 1   
    10    4    8 1   
    11    4   11 1   
    12    4   13 1   
    13    5   24 1   
    14    5   25 1   
    15    6    9 1   
    16    6   12 1   
    17    6   14 1   
    18    7   22 1   
    19    7   23 1   
    20    7   31 1   
    21    9   32 1   
    22    9   33 1   
    23    9   34 1   
    24   10   26 1   
    25   10   35 1   
    26   10   48 1   
    27   12   36 1   
    28   12   37 1   
    29   14   15 1   
    30   14   16 1   
    31   14   38 1   
    32   15   39 1   
    33   16   17 2   
    34   18   20 1   
    35   18   40 1   
    36   18   41 1   
    37   19   22 2   
    38   20   22 1   
    39   20   42 1   
    40   20   43 1   
    41   21   25 2   
    42   23   24 1   
    43   23   44 1   
    44   23   45 1   
    45   24   46 1   
    46   24   47 1   
    47   25   26 1   
    48   26   49 1   
    49   26   50 1   
@<TRIPOS>SUBSTRUCTURE
     1 H2V         1 TEMP              0 ****  ****    0 ROOT
