@<TRIPOS>MOLECULE
H2V
   53    52     1     0     0
SMALL
bcc


@<TRIPOS>ATOM
      1 C           0.0000    0.0000    0.0000 c3        1 H2V      0.012900
      2 N           4.2340   -1.0670    1.0310 ny        1 H2V      0.059200
      3 O           1.5630    1.2510   -2.0680 os        1 H2V     -0.496200
      4 P           1.9060    2.4200   -3.1190 p5        1 H2V      0.856900
      5 S          12.2090   -4.8880   -0.0970 ss        1 H2V     -0.322700
      6 C1          1.5300    0.0000    0.0000 c3        1 H2V     -0.110000
      7 N1          8.4130   -3.5180    0.2530 ny        1 H2V      0.121200
      8 O1          1.2410    3.8000   -2.6230 o         1 H2V     -0.400833
      9 C2          2.0400   -1.2480   -0.7220 c3        1 H2V      0.012900
     10 N2         13.9480   -8.2930   -1.4140 nz        1 H2V      0.072400
     11 O2          1.3190    2.0320   -4.5660 o         1 H2V     -0.400833
     12 C3          2.0390    1.2500   -0.7210 c3        1 H2V      0.308400
     13 O3          3.3740    2.5850   -3.2110 o         1 H2V     -0.400833
     14 C4          2.0390    0.0000    1.4430 c3        1 H2V      0.143100
     15 O4          1.5500    1.1580    2.1210 oh        1 H2V     -0.512800
     16 C5          3.5470    0.0170    1.4420 c         1 H2V      0.304100
     17 O5          4.1420    1.0070    1.8130 o         1 H2V     -0.398100
     18 C6          5.6960   -1.0820    1.1100 c3        1 H2V     -0.001200
     19 O6          8.3200   -1.4700    1.1010 o         1 H2V     -0.577100
     20 C7          6.2220   -2.4180    0.5830 c3        1 H2V     -0.072400
     21 O7         11.6060   -7.1580   -1.0770 o         1 H2V     -0.600100
     22 C8          7.7270   -2.4340    0.6650 c         1 H2V      0.134100
     23 C9          9.8760   -3.5330    0.3320 c3        1 H2V     -0.006200
     24 C10        10.4020   -4.8700   -0.1940 c3        1 H2V      0.052700
     25 C11        12.5250   -6.4470   -0.7270 c         1 H2V      0.590700
     26 C12        13.9450   -6.9370   -0.8500 c3        1 H2V     -0.153200
     27 H          -0.3610   -0.8060    0.6270 hc        1 H2V      0.015033
     28 HA         -0.3610   -0.1400   -1.0120 hc        1 H2V      0.015033
     29 HB         -0.3610    0.9460    0.3840 hc        1 H2V      0.015033
     30 HN          3.9050   -1.8420    1.5720 hn        1 H2V      0.274800
     31 HN1         8.0850   -4.2930    0.7940 hn        1 H2V      0.198800
     32 H2          2.2180   -2.0360    0.0010 hc        1 H2V      0.015033
     33 H2A         1.3000   -1.5780   -1.4410 hc        1 H2V      0.015033
     34 H2B         2.9640   -1.0150   -1.2360 hc        1 H2V      0.015033
     35 HN2        13.4340   -8.9060   -0.8120 hn        1 H2V      0.220800
     36 H3          3.1220    1.2510   -0.7210 h1        1 H2V     -0.006800
     37 H3A         1.6770    2.1340   -0.2100 h1        1 H2V     -0.006800
     38 H4          1.6880   -0.8910    1.9500 h1        1 H2V      0.019700
     39 HO4         1.4670    0.9720    3.0410 ho        1 H2V      0.401000
     40 H6          6.0980   -0.2740    0.5110 hx        1 H2V      0.097200
     41 H6A         6.0030   -0.9550    2.1410 hx        1 H2V      0.097200
     42 H7          5.9140   -2.5460   -0.4480 hc        1 H2V      0.018700
     43 H7A         5.8190   -3.2260    1.1820 hc        1 H2V      0.018700
     44 H9         10.2780   -2.7250   -0.2670 hx        1 H2V      0.077700
     45 H9A        10.1830   -3.4050    1.3630 hx        1 H2V      0.077700
     46 H10        10.0950   -4.9980   -1.2250 h1        1 H2V      0.047200
     47 H10A       10.0000   -5.6780    0.4050 h1        1 H2V      0.047200
     48 H24        14.8910   -8.6190   -1.4950 hn        1 H2V      0.220800
     49 H12        14.5010   -6.2740   -1.5010 hx        1 H2V      0.098200
     50 H26        14.4070   -6.9530    0.1300 hx        1 H2V      0.098200
     51 HN3         3.9920   -1.2170    0.0710 hn        1 H2V      0.274800
     52 H121        8.1720   -3.6680   -0.7070 hn        1 H2V      0.198800
     53 H23        13.5210   -8.2790   -2.3190 hn        1 H2V      0.220800
@<TRIPOS>BOND
     1    1    6 1   
     2    1   27 1   
     3    1   28 1   
     4    1   29 1   
     5    2   16 1   
     6    2   18 1   
     7    2   30 1   
     8    2   51 1   
     9    3    4 1   
    10    3   12 1   
    11    4    8 1   
    12    4   11 1   
    13    4   13 1   
    14    5   24 1   
    15    5   25 1   
    16    6    9 1   
    17    6   12 1   
    18    6   14 1   
    19    7   22 1   
    20    7   23 1   
    21    7   31 1   
    22    7   52 1   
    23    9   32 1   
    24    9   33 1   
    25    9   34 1   
    26   10   26 1   
    27   10   35 1   
    28   10   48 1   
    29   10   53 1   
    30   12   36 1   
    31   12   37 1   
    32   14   15 1   
    33   14   16 1   
    34   14   38 1   
    35   15   39 1   
    36   16   17 2   
    37   18   20 1   
    38   18   40 1   
    39   18   41 1   
    40   19   22 2   
    41   20   22 1   
    42   20   42 1   
    43   20   43 1   
    44   21   25 2   
    45   23   24 1   
    46   23   44 1   
    47   23   45 1   
    48   24   46 1   
    49   24   47 1   
    50   25   26 1   
    51   26   49 1   
    52   26   50 1   
@<TRIPOS>SUBSTRUCTURE
     1 H2V         1 TEMP              0 ****  ****    0 ROOT
