@<TRIPOS>MOLECULE
H2V
   50    49     1     0     0
SMALL
bcc


@<TRIPOS>ATOM
      1 C          -3.6240    0.1490   -3.3260 c3        1 H2V     -0.068600
      2 N          -1.5540   -0.7010    0.0270 n         1 H2V     -0.583900
      3 O          -6.1190   -0.9960   -4.1320 os        1 H2V     -0.599200
      4 P          -7.6860   -0.9580   -4.4270 p5        1 H2V      1.345900
      5 S           6.5160    1.0340    3.1580 ss        1 H2V     -0.173700
      6 C1         -4.1600   -1.1420   -2.7330 c3        1 H2V     -0.130000
      7 N1          2.6500    0.4070    2.4360 n         1 H2V     -0.539900
      8 O1         -8.2070   -2.3700   -4.5700 o         1 H2V     -0.731833
      9 C2         -3.6420   -2.3180   -3.5320 c3        1 H2V     -0.068600
     10 N2          9.2360    3.9260    4.0290 n3        1 H2V     -0.888800
     11 O2         -7.9390   -0.1930   -5.7110 o         1 H2V     -0.731833
     12 C3         -5.6850   -1.1280   -2.7790 c3        1 H2V      0.207400
     13 O3         -8.3970   -0.2720   -3.2830 o         1 H2V     -0.731833
     14 C4         -3.6970   -1.2670   -1.2900 c3        1 H2V      0.291100
     15 O4         -4.3220   -0.2880   -0.5140 oh        1 H2V     -0.963800
     16 C5         -2.1840   -1.0800   -1.2230 c         1 H2V      0.579100
     17 O5         -1.4990   -1.3030   -2.2070 o         1 H2V     -0.752100
     18 C6         -0.1510   -0.9920    0.2500 c3        1 H2V      0.096000
     19 O6          2.2950   -1.5770    1.3390 o         1 H2V     -0.669100
     20 C7          0.3510   -0.2000    1.4610 c3        1 H2V     -0.174400
     21 O7          6.7440    3.1960    4.6180 o         1 H2V     -0.573100
     22 C8          1.8350   -0.5120    1.6980 c         1 H2V      0.657100
     23 C9          4.0280    0.0780    2.7280 c3        1 H2V      0.098000
     24 C10         4.7520    1.3170    3.2090 c3        1 H2V     -0.064300
     25 C11         7.3630    2.4100    3.9260 c         1 H2V      0.493700
     26 C12         8.8680    2.5760    3.7440 c3        1 H2V      0.054800
     27 H          -4.0600    0.3170   -4.1910 hc        1 H2V      0.019700
     28 HA         -2.6560    0.0710   -3.4580 hc        1 H2V      0.019700
     29 HB         -3.8130    0.8940   -2.7130 hc        1 H2V      0.019700
     30 HN         -2.0540   -0.3300    0.6960 hn        1 H2V      0.325500
     31 HN1         2.3020    1.2020    2.7160 hn        1 H2V      0.355500
     32 H2         -4.2340   -2.4810   -4.2950 hc        1 H2V      0.019700
     33 H2A        -2.7390   -2.1220   -3.8560 hc        1 H2V      0.019700
     34 H2B        -3.6180   -3.1190   -2.9600 hc        1 H2V      0.019700
     35 HN2         9.5390    4.3310    3.2580 hn        1 H2V      0.346800
     36 H3         -6.0300   -1.9620   -2.4060 h1        1 H2V      0.023700
     37 H3A        -6.0200   -0.3740   -2.2550 h1        1 H2V      0.023700
     38 H4         -3.9300   -2.1480   -0.9500 h1        1 H2V     -0.047300
     39 HO4        -4.7420   -0.6730    0.1630 ho        1 H2V      0.423000
     40 H6          0.3650   -0.7380   -0.5420 h1        1 H2V      0.033700
     41 H6A        -0.0390   -1.9500    0.4170 h1        1 H2V      0.033700
     42 H7          0.2420    0.7580    1.2920 hc        1 H2V      0.062700
     43 H7A        -0.1640   -0.4520    2.2510 hc        1 H2V      0.062700
     44 H9          4.4620   -0.2600    1.9160 h1        1 H2V      0.058700
     45 H9A         4.0590   -0.6110    3.4260 h1        1 H2V      0.058700
     46 H10         4.4810    1.5170    4.1270 h1        1 H2V      0.115700
     47 H10A        4.5270    2.0700    2.6320 h1        1 H2V      0.115700
     48 H24         9.8980    3.9350    4.6580 hn        1 H2V      0.346800
     49 H12         9.1110    2.3590    2.8230 h1        1 H2V      0.081700
     50 H26         9.3400    1.9720    4.3570 h1        1 H2V      0.081700
@<TRIPOS>BOND
     1    1    6 1   
     2    1   27 1   
     3    1   28 1   
     4    1   29 1   
     5    2   16 1   
     6    2   18 1   
     7    2   30 1   
     8    3    4 1   
     9    3   12 1   
    10    4    8 1   
    11    4   11 1   
    12    4   13 1   
    13    5   24 1   
    14    5   25 1   
    15    6    9 1   
    16    6   12 1   
    17    6   14 1   
    18    7   22 1   
    19    7   23 1   
    20    7   31 1   
    21    9   32 1   
    22    9   33 1   
    23    9   34 1   
    24   10   26 1   
    25   10   35 1   
    26   10   48 1   
    27   12   36 1   
    28   12   37 1   
    29   14   15 1   
    30   14   16 1   
    31   14   38 1   
    32   15   39 1   
    33   16   17 2   
    34   18   20 1   
    35   18   40 1   
    36   18   41 1   
    37   19   22 2   
    38   20   22 1   
    39   20   42 1   
    40   20   43 1   
    41   21   25 2   
    42   23   24 1   
    43   23   44 1   
    44   23   45 1   
    45   24   46 1   
    46   24   47 1   
    47   25   26 1   
    48   26   49 1   
    49   26   50 1   
@<TRIPOS>SUBSTRUCTURE
     1 H2V         1 TEMP              0 ****  ****    0 ROOT
