@<TRIPOS>MOLECULE
H2W
   28    30     1     0     0
SMALL
bcc


@<TRIPOS>ATOM
      1 CAF         0.0150    0.1940   -0.0200 cc        1 H2W     -0.196200
      2 CAE         1.4500    0.1550   -0.0180 ca        1 H2W     -0.016800
      3 CAO         2.2160    0.4340    1.1460 ca        1 H2W      0.109900
      4 FAP         1.5900    0.7490    2.3070 f         1 H2W     -0.137900
      5 CAQ         3.6150    0.3870    1.1020 ca        1 H2W     -0.131000
      6 CAR         4.2660    0.0620   -0.0910 ca        1 H2W     -0.130000
      7 CAS         3.5370   -0.2140   -1.2400 ca        1 H2W     -0.076000
      8 CAD         2.1360   -0.1680   -1.2050 ca        1 H2W     -0.135600
      9 CAB         1.3690   -0.4660   -2.4310 c         1 H2W      0.706100
     10 OAC         1.8830   -0.7630   -3.5270 o         1 H2W     -0.633500
     11 NAA        -0.0270   -0.4060   -2.3480 ns        1 H2W     -0.450100
     12 CAG        -0.6840   -0.0820   -1.1670 cd        1 H2W      0.113400
     13 CAH        -2.1570   -0.0430   -1.1790 ca        1 H2W     -0.078800
     14 CAI        -2.8520    0.5770   -2.2260 ca        1 H2W     -0.100000
     15 CAJ        -4.2440    0.6200   -2.2170 ca        1 H2W     -0.125000
     16 CAK        -4.9480    0.0380   -1.1580 ca        1 H2W      0.028400
     17 Cl         -6.6450    0.0860   -1.1460 cl        1 H2W     -0.082400
     18 CAM        -4.2630   -0.5830   -0.1080 ca        1 H2W     -0.125000
     19 CAN        -2.8710   -0.6220   -0.1210 ca        1 H2W     -0.100000
     20 HAF        -0.5070    0.4600    0.9100 ha        1 H2W      0.163000
     21 HAQ         4.1930    0.6060    2.0120 ha        1 H2W      0.152000
     22 HAR         5.3650    0.0280   -0.1150 ha        1 H2W      0.145000
     23 HAS         4.0390   -0.4720   -2.1870 ha        1 H2W      0.164000
     24 HAA        -0.5630   -0.6210   -3.1610 hn        1 H2W      0.336500
     25 HAI        -2.3040    1.0510   -3.0560 ha        1 H2W      0.147000
     26 HAN        -2.3280   -1.1120    0.7020 ha        1 H2W      0.147000
     27 HAJ        -4.7850    1.1120   -3.0400 ha        1 H2W      0.153500
     28 HAM        -4.8180   -1.0410    0.7260 ha        1 H2W      0.153500
@<TRIPOS>BOND
     1    1    2 1   
     2    1   12 2   
     3    1   20 1   
     4    2    3 ar  
     5    2    8 ar  
     6    3    4 1   
     7    3    5 ar  
     8    5    6 ar  
     9    5   21 1   
    10    6    7 ar  
    11    6   22 1   
    12    7    8 ar  
    13    7   23 1   
    14    8    9 1   
    15    9   10 2   
    16    9   11 1   
    17   11   12 1   
    18   11   24 1   
    19   12   13 1   
    20   13   14 ar  
    21   13   19 ar  
    22   14   15 ar  
    23   14   25 1   
    24   15   16 ar  
    25   15   27 1   
    26   16   17 1   
    27   16   18 ar  
    28   18   19 ar  
    29   18   28 1   
    30   19   26 1   
@<TRIPOS>SUBSTRUCTURE
     1 H2W         1 TEMP              0 ****  ****    0 ROOT
