@<TRIPOS>MOLECULE
H2W
   28    30     1     0     0
SMALL
bcc


@<TRIPOS>ATOM
      1 CAF         0.0190    0.1930   -0.0210 cc        1 H2W     -0.196200
      2 CAE         1.4540    0.1580   -0.0260 ca        1 H2W     -0.016800
      3 CAO         2.2240    0.4360    1.1350 ca        1 H2W      0.109900
      4 FAP         1.6030    0.7460    2.3000 f         1 H2W     -0.137900
      5 CAQ         3.6230    0.3930    1.0850 ca        1 H2W     -0.131000
      6 CAR         4.2690    0.0730   -0.1130 ca        1 H2W     -0.130000
      7 CAS         3.5350   -0.2030   -1.2590 ca        1 H2W     -0.076000
      8 CAD         2.1340   -0.1610   -1.2170 ca        1 H2W     -0.135600
      9 CAB         1.3620   -0.4570   -2.4400 c         1 H2W      0.706100
     10 OAC         1.8730   -0.7510   -3.5390 o         1 H2W     -0.633500
     11 NAA        -0.0330   -0.4020   -2.3510 n         1 H2W     -0.450100
     12 CAG        -0.6860   -0.0830   -1.1650 cd        1 H2W      0.113400
     13 CAH        -2.1590   -0.0470   -1.1710 ca        1 H2W     -0.078800
     14 CAI        -2.8600    0.5740   -2.2120 ca        1 H2W     -0.100000
     15 CAJ        -4.2520    0.6130   -2.1960 ca        1 H2W     -0.125000
     16 CAK        -4.9490    0.0260   -1.1350 ca        1 H2W      0.028400
     17 CL         -6.6460    0.0690   -1.1150 cl        1 H2W     -0.082400
     18 CAM        -4.2580   -0.5960   -0.0900 ca        1 H2W     -0.125000
     19 CAN        -2.8660   -0.6310   -0.1110 ca        1 H2W     -0.100000
     20 HAF        -0.5000    0.4550    0.9120 ha        1 H2W      0.163000
     21 HAQ         4.2050    0.6110    1.9920 ha        1 H2W      0.152000
     22 HAR         5.3690    0.0420   -0.1420 ha        1 H2W      0.145000
     23 HAS         4.0340   -0.4560   -2.2090 ha        1 H2W      0.164000
     24 HAA        -0.5730   -0.6160   -3.1610 hn        1 H2W      0.336500
     25 HAI        -2.3180    1.0510   -3.0430 ha        1 H2W      0.147000
     26 HAN        -2.3180   -1.1220    0.7090 ha        1 H2W      0.147000
     27 HAJ        -4.7980    1.1060   -3.0150 ha        1 H2W      0.153500
     28 HAM        -4.8080   -1.0580    0.7450 ha        1 H2W      0.153500
@<TRIPOS>BOND
     1    1    2 1   
     2    1   12 2   
     3    1   20 1   
     4    2    3 ar  
     5    2    8 ar  
     6    3    4 1   
     7    3    5 ar  
     8    5    6 ar  
     9    5   21 1   
    10    6    7 ar  
    11    6   22 1   
    12    7    8 ar  
    13    7   23 1   
    14    8    9 1   
    15    9   10 2   
    16    9   11 1   
    17   11   12 1   
    18   11   24 1   
    19   12   13 1   
    20   13   14 ar  
    21   13   19 ar  
    22   14   15 ar  
    23   14   25 1   
    24   15   16 ar  
    25   15   27 1   
    26   16   17 1   
    27   16   18 ar  
    28   18   19 ar  
    29   18   28 1   
    30   19   26 1   
@<TRIPOS>SUBSTRUCTURE
     1 H2W         1 TEMP              0 ****  ****    0 ROOT
