@<TRIPOS>MOLECULE
H33
   21    22     1     0     0
SMALL
bcc


@<TRIPOS>ATOM
      1 N1          0.0010    0.0010   -0.0230 n         1 H33     -0.483400
      2 C2          1.4100    0.0510    0.0030 c         1 H33      0.762100
      3 C3          1.9710    0.0740    1.3420 cc        1 H33     -0.342200
      4 C4          1.1650    0.0480    2.5250 cd        1 H33      0.492200
      5 N5         -0.2170   -0.0010    2.4350 n         1 H33     -0.418300
      6 C6         -0.8060   -0.0250    1.1450 c         1 H33      0.815500
      7 N7          3.2980    0.1220    1.7650 na        1 H33     -0.257900
      8 C8          3.2550    0.1230    3.1620 cc        1 H33      0.516500
      9 N9          1.9800    0.0800    3.6660 nd        1 H33     -0.659000
     10 C11        -1.0310   -0.0270    3.6220 c3        1 H33      0.089300
     11 C15        -0.6990   -0.0270   -1.2860 c3        1 H33      0.080300
     12 O19        -2.0510   -0.0700    1.0360 o         1 H33     -0.631500
     13 O20         2.0840    0.0720   -1.0420 o         1 H33     -0.619500
     14 CL          4.6540    0.1750    4.0980 cl        1 H33     -0.068000
     15 H151        0.0440   -0.0020   -2.1270 h1        1 H33      0.064367
     16 H152       -1.3830    0.8610   -1.3550 h1        1 H33      0.064367
     17 H153       -1.3180   -0.9620   -1.3510 h1        1 H33      0.064367
     18 H7          4.0910    0.1480    1.1750 hn        1 H33      0.334700
     19 H111       -0.8360    0.8960    4.2300 h1        1 H33      0.065033
     20 H112       -0.7710   -0.9310    4.2340 h1        1 H33      0.065033
     21 H113       -2.1160   -0.0660    3.3350 h1        1 H33      0.065033
@<TRIPOS>BOND
     1    1    2 1   
     2    1    6 1   
     3    1   11 1   
     4    2    3 1   
     5    2   13 2   
     6    3    4 2   
     7    3    7 1   
     8    4    5 1   
     9    4    9 1   
    10    5    6 1   
    11    5   10 1   
    12    6   12 2   
    13    7    8 1   
    14    7   18 1   
    15    8    9 2   
    16    8   14 1   
    17   10   19 1   
    18   10   20 1   
    19   10   21 1   
    20   11   15 1   
    21   11   16 1   
    22   11   17 1   
@<TRIPOS>SUBSTRUCTURE
     1 H33         1 TEMP              0 ****  ****    0 ROOT
