@<TRIPOS>MOLECULE
H33
   21    22     1     0     0
SMALL
bcc


@<TRIPOS>ATOM
      1 N1         -0.0020    0.0080   -0.0210 n         1 H33     -0.483400
      2 C2          1.4070    0.0570    0.0010 c         1 H33      0.762100
      3 C3          1.9710    0.0730    1.3390 cc        1 H33     -0.342200
      4 C4          1.1670    0.0420    2.5230 cd        1 H33      0.492200
      5 N5         -0.2150   -0.0060    2.4360 n         1 H33     -0.418300
      6 C6         -0.8070   -0.0220    1.1480 c         1 H33      0.815500
      7 N7          3.2990    0.1170    1.7590 na        1 H33     -0.257900
      8 C8          3.2590    0.1120    3.1560 cc        1 H33      0.516500
      9 N9          1.9860    0.0670    3.6630 nd        1 H33     -0.659000
     10 C11        -1.0260   -0.0360    3.6250 c3        1 H33      0.089300
     11 C15        -0.7060   -0.0120   -1.2830 c3        1 H33      0.080300
     12 O19        -2.0520   -0.0650    1.0410 o         1 H33     -0.631500
     13 O20         2.0790    0.0830   -1.0450 o         1 H33     -0.619500
     14 Cl          4.6600    0.1580    4.0900 cl        1 H33     -0.068000
     15 H151        0.0350    0.0120   -2.1250 h1        1 H33      0.064700
     16 H152       -1.3850    0.8790   -1.3480 h1        1 H33      0.064700
     17 H153       -1.3290   -0.9430   -1.3500 h1        1 H33      0.064700
     18 H7          4.0900    0.1460    1.1680 hn        1 H33      0.334700
     19 H111       -0.8310    0.8860    4.2350 h1        1 H33      0.065033
     20 H112       -0.7630   -0.9420    4.2350 h1        1 H33      0.065033
     21 H113       -2.1120   -0.0760    3.3410 h1        1 H33      0.065033
@<TRIPOS>BOND
     1    1    2 1   
     2    1    6 1   
     3    1   11 1   
     4    2    3 1   
     5    2   13 2   
     6    3    4 2   
     7    3    7 1   
     8    4    5 1   
     9    4    9 1   
    10    5    6 1   
    11    5   10 1   
    12    6   12 2   
    13    7    8 1   
    14    7   18 1   
    15    8    9 2   
    16    8   14 1   
    17   10   19 1   
    18   10   20 1   
    19   10   21 1   
    20   11   15 1   
    21   11   16 1   
    22   11   17 1   
@<TRIPOS>SUBSTRUCTURE
     1 H33         1 TEMP              0 ****  ****    0 ROOT
