@<TRIPOS>MOLECULE
H33
   21    21     1     0     0
SMALL
bcc


@<TRIPOS>ATOM
      1 N1         -0.7830    0.0020   -1.4370 n         1 H33     -0.483400
      2 C2          0.6060    0.0020   -1.4370 c         1 H33      0.724300
      3 C3          1.3530    0.0020   -0.1370 ce        1 H33     -0.341400
      4 C4          0.6830    0.0020    1.0180 c1        1 H33      0.367500
      5 N5         -0.7650    0.0020    1.0150 n2        1 H33     -0.359200
      6 C6         -1.4790    0.0020   -0.2270 c2        1 H33      0.738300
      7 N7          2.7590    0.0020    0.0960 nh        1 H33     -0.221300
      8 C8          2.8660    0.0020    1.5430 ce        1 H33      0.385300
      9 N9          1.6570    0.0020    2.0650 ne        1 H33     -0.572700
     10 C11        -1.4790    0.1310    2.2400 c3        1 H33      0.177100
     11 C15        -1.4950   -0.0800   -2.6670 c3        1 H33      0.080300
     12 O19        -2.6940    0.0230   -0.2250 o         1 H33     -0.621300
     13 O20         1.2140    0.0660   -2.4870 o         1 H33     -0.583100
     14 CL          4.1530   -0.8810    2.3220 cl        1 H33     -0.014300
     15 H151       -0.8830   -0.3430   -3.3800 h1        1 H33      0.064367
     16 H152       -2.2070   -0.7430   -2.5880 h1        1 H33      0.064367
     17 H153       -1.8830    0.7910   -2.8760 h1        1 H33      0.064367
     18 H7          3.3040    0.5370   -0.4010 hn        1 H33      0.334700
     19 H111       -2.0240   -0.6650    2.3850 h1        1 H33      0.065033
     20 H112       -2.0560    0.9180    2.1990 h1        1 H33      0.065033
     21 H113       -0.8460    0.2310    2.9770 h1        1 H33      0.065033
@<TRIPOS>BOND
     1    1    2 1   
     2    1    6 1   
     3    1   11 1   
     4    2    3 1   
     5    2   13 2   
     6    3    4 2   
     7    3    7 1   
     8    4    9 2   
     9    5    6 2   
    10    5   10 1   
    11    6   12 1   
    12    7    8 2   
    13    7   18 1   
    14    8    9 1   
    15    8   14 1   
    16   10   19 1   
    17   10   20 1   
    18   10   21 1   
    19   11   15 1   
    20   11   16 1   
    21   11   17 1   
@<TRIPOS>SUBSTRUCTURE
     1 H33         1 TEMP              0 ****  ****    0 ROOT
