@<TRIPOS>MOLECULE
H33
   21    22     1     0     0
SMALL
bcc


@<TRIPOS>ATOM
      1 N1          1.5640    3.4910   -1.3010 n         1 H33     -0.483400
      2 C2          2.9550    3.6000   -1.5030 c         1 H33      0.762100
      3 C3          3.6840    2.3720   -1.2360 cc        1 H33     -0.342200
      4 C4          3.0440    1.1650   -0.8070 cd        1 H33      0.492200
      5 N5          1.6710    1.1210   -0.6260 n         1 H33     -0.418300
      6 C6          0.9220    2.2980   -0.8760 c         1 H33      0.815500
      7 N7          5.0460    2.0940   -1.3220 na        1 H33     -0.257900
      8 C8          5.1870    0.7530   -0.9510 cc        1 H33      0.516500
      9 N9          3.9980    0.1510   -0.6300 nd        1 H33     -0.659000
     10 C11         1.0250   -0.0910   -0.1950 c3        1 H33      0.089300
     11 C15         0.7080    4.6330   -1.5280 c3        1 H33      0.080300
     12 O19        -0.3180    2.2850   -0.7200 o         1 H33     -0.631500
     13 O20         3.4820    4.6630   -1.8760 o         1 H33     -0.619500
     14 CL          6.6880   -0.0100   -0.9130 cl        1 H33     -0.068000
     15 H151        0.1640    4.8880   -0.5790 h1        1 H33      0.064367
     16 H152       -0.0480    4.3830   -2.3190 h1        1 H33      0.064367
     17 H153        1.3300    5.5070   -1.8570 h1        1 H33      0.064367
     18 H7          5.7500    2.7320   -1.5940 hn        1 H33      0.334700
     19 H111       -0.0810    0.0800   -0.1090 h1        1 H33      0.065033
     20 H112        1.4370   -0.4000    0.8030 h1        1 H33      0.065033
     21 H113        1.2230   -0.9060   -0.9410 h1        1 H33      0.065033
@<TRIPOS>BOND
     1    1    2 1   
     2    1    6 1   
     3    1   11 1   
     4    2    3 1   
     5    2   13 2   
     6    3    4 2   
     7    3    7 1   
     8    4    5 1   
     9    4    9 1   
    10    5    6 1   
    11    5   10 1   
    12    6   12 2   
    13    7    8 1   
    14    7   18 1   
    15    8    9 2   
    16    8   14 1   
    17   10   19 1   
    18   10   20 1   
    19   10   21 1   
    20   11   15 1   
    21   11   16 1   
    22   11   17 1   
@<TRIPOS>SUBSTRUCTURE
     1 H33         1 TEMP              0 ****  ****    0 ROOT
