@<TRIPOS>MOLECULE
H33
   21    22     1     0     0
SMALL
bcc


@<TRIPOS>ATOM
      1 N1          0.0020   -0.0210   -0.0250 n         1 H33     -0.483400
      2 C2          1.4110   -0.0040   -0.0050 c         1 H33      0.762100
      3 C3          1.9780    0.0140    1.3330 cc        1 H33     -0.342200
      4 C4          1.1750    0.0150    2.5180 cd        1 H33      0.492200
      5 N5         -0.2080   -0.0020    2.4330 n         1 H33     -0.418300
      6 C6         -0.8020   -0.0200    1.1460 c         1 H33      0.815500
      7 N7          3.3070    0.0340    1.7500 na        1 H33     -0.257900
      8 C8          3.2690    0.0460    3.1480 cc        1 H33      0.516500
      9 N9          1.9960    0.0350    3.6570 nd        1 H33     -0.659000
     10 C11        -1.0180    0.0010    3.6230 c3        1 H33      0.089300
     11 C15        -0.7040   -0.0400   -1.2860 c3        1 H33      0.080300
     12 O19        -2.0470   -0.0350    1.0410 o         1 H33     -0.631500
     13 O20         2.0820   -0.0060   -1.0520 o         1 H33     -0.619500
     14 CL          4.6720    0.0710    4.0790 cl        1 H33     -0.068000
     15 H151       -1.3490   -0.9580   -1.3400 h1        1 H33      0.064700
     16 H152       -1.3630    0.8660   -1.3600 h1        1 H33      0.064700
     17 H153        0.0360   -0.0440   -2.1290 h1        1 H33      0.064700
     18 H7          4.0980    0.0370    1.1580 hn        1 H33      0.334700
     19 H111       -2.1040   -0.0200    3.3410 h1        1 H33      0.065033
     20 H112       -0.7730   -0.9020    4.2450 h1        1 H33      0.065033
     21 H113       -0.8020    0.9270    4.2210 h1        1 H33      0.065033
@<TRIPOS>BOND
     1    1    2 1   
     2    1    6 1   
     3    1   11 1   
     4    2    3 1   
     5    2   13 2   
     6    3    4 2   
     7    3    7 1   
     8    4    5 1   
     9    4    9 1   
    10    5    6 1   
    11    5   10 1   
    12    6   12 2   
    13    7    8 1   
    14    7   18 1   
    15    8    9 2   
    16    8   14 1   
    17   10   19 1   
    18   10   20 1   
    19   10   21 1   
    20   11   15 1   
    21   11   16 1   
    22   11   17 1   
@<TRIPOS>SUBSTRUCTURE
     1 H33         1 TEMP              0 ****  ****    0 ROOT
