@<TRIPOS>MOLECULE
H34
   56    54     1     0     0
SMALL
bcc


@<TRIPOS>ATOM
      1 CAN         1.1250   -1.6500   -0.6210 c3        1 H34     -0.119000
      2 CBC         2.7020   -1.5780   -0.6640 c3        1 H34     -0.051000
      3 CAP         3.1650   -1.5690    0.6440 c3        1 H34     -0.149000
      4 CAY         3.1310   -0.2830   -1.6180 c2        1 H34     -0.196000
      5 CAV         3.1250   -0.3820   -2.9760 c1        1 H34      0.121000
      6 NAA         2.7000   -1.4990   -3.8130 n2        1 H34     -0.341000
      7 CBA         3.7900    0.6010   -3.7620 c2        1 H34     -0.124000
      8 CAF         3.7440    0.5330   -5.1640 c1        1 H34     -0.096000
      9 CAE         4.3580    1.5340   -5.9350 c1        1 H34     -0.138000
     10 CAU         5.0150    2.5980   -5.3070 c1        1 H34     -0.049000
     11 CL1         5.5150    3.8370   -6.4100 cl        1 H34     -0.012000
     12 CAG         5.0630    2.6680   -3.9130 c2        1 H34     -0.105000
     13 CAZ         4.4510    1.6700   -3.1360 c1        1 H34      0.046000
     14 NAS         4.4580    1.7740   -1.7240 n1        1 H34     -0.180000
     15 CAX         3.8250    0.8390   -0.9690 c2        1 H34      0.064000
     16 CAO         3.9390    0.8130    0.6000 c3        1 H34     -0.111000
     17 CBB         3.2100   -0.2950    1.3080 c3        1 H34     -0.076000
     18 CAD         1.7750    0.1520    1.5040 c2        1 H34     -0.152000
     19 CAT         0.7460   -0.3210    0.6030 c2        1 H34     -0.108000
     20 CAL        -0.6800    0.2930    0.6660 c3        1 H34     -0.123000
     21 CAJ        -1.4970   -0.4010    1.8340 c3        1 H34     -0.155000
     22 CAK        -2.9590    0.0240    1.7660 c3        1 H34     -0.180000
     23 CAM        -3.7760   -0.8090    2.7510 c3        1 H34     -0.006000
     24 NBD        -5.0490   -0.2060    2.9400 n3        1 H34     -0.166000
     25 CAH        -6.1660   -0.8450    3.2000 c1        1 H34     -0.120000
     26 NAR        -5.2810    1.1460    3.1200 n2        1 H34      0.009000
     27 NAQ        -6.5550    1.3000    3.4920 n2        1 H34     -0.095000
     28 CAW        -7.1210    0.0870    3.5480 c1        1 H34     -0.211000
     29 CAI        -8.5680   -0.2050    3.8820 c2        1 H34      0.066000
     30 OAB        -9.2300    1.0130    4.2200 oh        1 H34     -0.321000
     31 HAN1        0.7110   -2.5560   -0.5460 hc        1 H34      0.082500
     32 HAN2        0.7520   -1.3440   -1.5190 hc        1 H34      0.082500
     33 HBC         3.0420   -2.4150   -1.1060 hc        1 H34      0.094000
     34 HAP1        4.0400   -1.9290    0.6450 hc        1 H34      0.090000
     35 HAP2        2.6010   -2.1520    1.1640 hc        1 H34      0.090000
     36 HBB         3.6070   -0.4170    2.1620 hc        1 H34      0.100000
     37 HAA1        1.7690   -1.7660   -3.8250 hn        1 H34      0.200500
     38 HAA2        3.2940   -1.8980   -4.3710 hn        1 H34      0.200500
     39 HAF         3.2790   -0.2150   -5.6060 ha        1 H34      0.129000
     40 HAE         4.2480    1.5390   -6.8800 ha        1 H34      0.148000
     41 HAG         5.5150    3.4000   -3.4840 ha        1 H34      0.166000
     42 HAO1        3.5950    1.6770    0.9470 hc        1 H34      0.109000
     43 HAO2        4.9010    0.7450    0.8370 hc        1 H34      0.109000
     44 HAD         1.5590    0.8460    2.1900 ha        1 H34      0.127000
     45 HAL1       -1.1290    0.1490   -0.1730 hc        1 H34      0.089500
     46 HAL2       -0.6170    1.2030    0.8290 hc        1 H34      0.089500
     47 HAJ1       -1.1240   -0.1350    2.6920 hc        1 H34      0.083500
     48 HAJ2       -1.4330   -1.4420    1.7320 hc        1 H34      0.083500
     49 HAK1       -3.2890   -0.1140    0.8820 hc        1 H34      0.100000
     50 HAK2       -3.0390    1.0150    2.0110 hc        1 H34      0.100000
     51 HAM1       -3.9020   -1.7570    2.3790 h1        1 H34      0.105500
     52 HAM2       -3.2890   -0.8570    3.6380 h1        1 H34      0.105500
     53 HAH        -6.2940   -1.7860    3.1560 DU        1 H34      0.190000
     54 HAI1       -8.6120   -0.8480    4.6720 h4        1 H34      0.094000
     55 HAI2       -9.0170   -0.6210    3.0870 h4        1 H34      0.094000
     56 HAB       -10.1230    0.8390    4.4220 ho        1 H34      0.214000
@<TRIPOS>BOND
     1    1    2 1   
     2    1   19 1   
     3    1   31 1   
     4    1   32 1   
     5    2    3 1   
     6    2    4 1   
     7    2   33 1   
     8    3   17 1   
     9    3   34 1   
    10    3   35 1   
    11    4    5 1   
    12    4   15 1   
    13    5    7 1   
    14    6   37 1   
    15    6   38 1   
    16    7    8 1   
    17    7   13 1   
    18    8   39 1   
    19    9   10 1   
    20    9   40 1   
    21   10   12 1   
    22   12   13 1   
    23   12   41 1   
    24   14   15 1   
    25   15   16 1   
    26   16   17 1   
    27   16   42 1   
    28   16   43 1   
    29   17   18 1   
    30   17   36 1   
    31   18   19 1   
    32   18   44 1   
    33   19   20 1   
    34   20   21 1   
    35   20   45 1   
    36   20   46 1   
    37   21   22 1   
    38   21   47 1   
    39   21   48 1   
    40   22   23 1   
    41   22   49 1   
    42   22   50 1   
    43   23   24 1   
    44   23   51 1   
    45   23   52 1   
    46   24   25 1   
    47   24   26 1   
    48   25   28 1   
    49   26   27 1   
    50   27   28 1   
    51   29   30 1   
    52   29   54 1   
    53   29   55 1   
    54   30   56 1   
@<TRIPOS>SUBSTRUCTURE
     1 H34         1 TEMP              0 ****  ****    0 ROOT
