@<TRIPOS>MOLECULE
H34
   57    61     1     0     0
SMALL
bcc


@<TRIPOS>ATOM
      1 CAN        -0.8460    1.2340    0.3880 c3        1 H34     -0.048200
      2 CBC         0.1560    0.5090   -0.5140 c3        1 H34     -0.040400
      3 CAP         0.9990   -0.4230    0.3480 c3        1 H34     -0.073400
      4 CAY         1.0260    1.4650   -1.2710 ca        1 H34     -0.107600
      5 CAV         0.6010    2.0910   -2.4380 ca        1 H34     -0.021400
      6 NAA        -0.7620    1.9010   -2.9350 n4        1 H34     -0.704000
      7 CBA         1.4720    2.9520   -3.1870 ca        1 H34     -0.142300
      8 CAF         1.1270    3.5750   -4.4130 ca        1 H34     -0.151000
      9 CAE         2.0170    4.3950   -5.0620 ca        1 H34     -0.072000
     10 CAU         3.3040    4.6300   -4.5120 ca        1 H34      0.025400
     11 CL1         4.3700    5.6510   -5.3380 cl        1 H34     -0.031400
     12 CAG         3.6830    4.0370   -3.3290 ca        1 H34     -0.141300
     13 CAZ         2.7720    3.1750   -2.6360 ca        1 H34      0.422600
     14 NAS         3.1820    2.5920   -1.4610 nb        1 H34     -0.619000
     15 CAX         2.3660    1.7720   -0.8080 ca        1 H34      0.458600
     16 CAO         2.9040    1.1500    0.4570 c3        1 H34     -0.132700
     17 CBB         1.8430    0.4330    1.2780 c3        1 H34     -0.036500
     18 CAD         1.0000    1.4060    2.0300 c2        1 H34     -0.157200
     19 CAT        -0.2270    1.7780    1.6300 c2        1 H34     -0.117400
     20 CAL        -1.0670    2.6980    2.4490 c3        1 H34     -0.044200
     21 CAJ        -1.6760    3.8540    1.6720 c3        1 H34     -0.081400
     22 CAK        -3.1590    3.6480    1.4320 c3        1 H34     -0.093400
     23 CAM        -3.7500    4.7230    0.5230 c3        1 H34      0.045300
     24 NBD        -3.8510    4.3660   -0.8870 na        1 H34      0.089400
     25 CAH        -4.9090    4.7320   -1.7270 cc        1 H34     -0.172600
     26 NAR        -2.9500    3.6540   -1.5860 nc        1 H34     -0.253800
     27 NAQ        -3.3310    3.5230   -2.8010 nd        1 H34     -0.448000
     28 CAW        -4.5620    4.1780   -2.9820 cd        1 H34      0.274600
     29 CAI        -5.3170    4.2490   -4.2550 c3        1 H34      0.116100
     30 OAB        -6.5130    4.9680   -3.9900 oh        1 H34     -0.599800
     31 HAN1       -1.6470    0.5010    0.6840 hc        1 H34      0.059700
     32 HAN2       -1.3440    2.0680   -0.1700 hc        1 H34      0.059700
     33 HBC        -0.4150   -0.1330   -1.2450 hc        1 H34      0.044700
     34 HAP1        0.3250   -1.0950    0.9390 hc        1 H34      0.067700
     35 HAP2        1.6550   -1.0660   -0.2920 hc        1 H34      0.067700
     36 HBB         2.3670   -0.2340    2.0220 hc        1 H34      0.086700
     37 HAA1       -1.0960    2.7810   -3.3560 hn        1 H34      0.471467
     38 HAA2       -1.3910    1.6390   -2.1650 hn        1 H34      0.471467
     39 HAF         0.1440    3.4100   -4.8810 ha        1 H34      0.126000
     40 HAE         1.7420    4.8760   -6.0170 ha        1 H34      0.170000
     41 HAG         4.6850    4.2110   -2.8980 ha        1 H34      0.188000
     42 HAO1        3.3920    1.9430    1.0890 hc        1 H34      0.089200
     43 HAO2        3.7040    0.4130    0.1670 hc        1 H34      0.089200
     44 HAD         1.4530    1.8110    2.9490 ha        1 H34      0.144000
     45 HAL1       -1.8830    2.0880    2.9290 hc        1 H34      0.061200
     46 HAL2       -0.4450    3.1170    3.2860 hc        1 H34      0.061200
     47 HAJ1       -1.5330    4.8010    2.2590 hc        1 H34      0.052200
     48 HAJ2       -1.1430    3.9980    0.6970 hc        1 H34      0.052200
     49 HAK1       -3.7000    3.7070    2.4150 hc        1 H34      0.064200
     50 HAK2       -3.3410    2.6200    1.0230 hc        1 H34      0.064200
     51 HAM1       -4.8000    4.9610    0.8610 h1        1 H34      0.078700
     52 HAM2       -3.1300    5.6640    0.5940 h1        1 H34      0.078700
     53 HAH        -5.7770    5.3160   -1.4180 h4        1 H34      0.223000
     54 HAI1       -4.7100    4.7850   -5.0380 h1        1 H34      0.046700
     55 HAI2       -5.5630    3.2140   -4.6220 h1        1 H34      0.046700
     56 HAB        -6.9930    5.0170   -4.8260 ho        1 H34      0.423000
     57 HAA3       -0.7720    1.1650   -3.6470 hn        1 H34      0.471467
@<TRIPOS>BOND
     1    1    2 1   
     2    1   19 1   
     3    1   31 1   
     4    1   32 1   
     5    2    3 1   
     6    2    4 1   
     7    2   33 1   
     8    3   17 1   
     9    3   34 1   
    10    3   35 1   
    11    4    5 ar  
    12    4   15 ar  
    13    5    6 1   
    14    5    7 ar  
    15    6   37 1   
    16    6   38 1   
    17    6   57 1   
    18    7    8 ar  
    19    7   13 ar  
    20    8    9 ar  
    21    8   39 1   
    22    9   10 ar  
    23    9   40 1   
    24   10   11 1   
    25   10   12 ar  
    26   12   13 ar  
    27   12   41 1   
    28   13   14 ar  
    29   14   15 ar  
    30   15   16 1   
    31   16   17 1   
    32   16   42 1   
    33   16   43 1   
    34   17   18 1   
    35   17   36 1   
    36   18   19 2   
    37   18   44 1   
    38   19   20 1   
    39   20   21 1   
    40   20   45 1   
    41   20   46 1   
    42   21   22 1   
    43   21   47 1   
    44   21   48 1   
    45   22   23 1   
    46   22   49 1   
    47   22   50 1   
    48   23   24 1   
    49   23   51 1   
    50   23   52 1   
    51   24   25 1   
    52   24   26 1   
    53   25   28 2   
    54   25   53 1   
    55   26   27 2   
    56   27   28 1   
    57   28   29 1   
    58   29   30 1   
    59   29   54 1   
    60   29   55 1   
    61   30   56 1   
@<TRIPOS>SUBSTRUCTURE
     1 H34         1 TEMP              0 ****  ****    0 ROOT
