@<TRIPOS>MOLECULE
H34
   56    60     1     0     0
SMALL
bcc


@<TRIPOS>ATOM
      1 CAN        -0.1010    0.2830   -0.0690 c3        1 H34     -0.037200
      2 CBC         1.4200    0.1150   -0.0380 c3        1 H34     -0.005400
      3 CAP         1.8940    0.1270    1.4090 c3        1 H34     -0.070400
      4 CAY         2.1010    1.1800   -0.8380 ca        1 H34     -0.269600
      5 CAV         2.2150    1.0710   -2.2350 ca        1 H34      0.204600
      6 NAA         1.7300   -0.0390   -2.9170 nv        1 H34     -0.833200
      7 CBA         2.9080    2.1150   -2.9590 ca        1 H34     -0.190300
      8 CAF         3.1280    2.0820   -4.3610 ca        1 H34     -0.095000
      9 CAE         3.7800    3.1040   -5.0050 ca        1 H34     -0.139000
     10 CAU         4.2500    4.2160   -4.2630 ca        1 H34      0.029400
     11 Cl1         5.0470    5.4710   -5.0900 cl        1 H34     -0.091400
     12 CAG         4.0740    4.2870   -2.9020 ca        1 H34     -0.171300
     13 CAZ         3.3980    3.2260   -2.2110 ca        1 H34      0.439600
     14 NAS         3.2520    3.3280   -0.8490 nb        1 H34     -0.708000
     15 CAX         2.6390    2.3430   -0.1920 ca        1 H34      0.486600
     16 CAO         2.5480    2.5100    1.3060 c3        1 H34     -0.126700
     17 CBB         1.6260    1.5070    1.9840 c3        1 H34     -0.031500
     18 CAD         0.1950    1.8850    1.8040 c2        1 H34     -0.160200
     19 CAT        -0.5920    1.3330    0.8680 c2        1 H34     -0.113400
     20 CAL        -2.0240    1.7180    0.7120 c3        1 H34     -0.041200
     21 CAJ        -2.2010    2.7870   -0.3500 c3        1 H34     -0.076400
     22 CAK        -3.6640    3.1370   -0.5210 c3        1 H34     -0.101400
     23 CAM        -3.8080    4.2250   -1.5840 c3        1 H34      0.055300
     24 NBD        -5.1770    4.6240   -1.8440 na        1 H34      0.042400
     25 CAH        -5.7560    5.8380   -1.4490 cc        1 H34     -0.189600
     26 NAR        -6.1140    3.8500   -2.4500 nc        1 H34     -0.170800
     27 NAQ        -7.2250    4.4620   -2.4920 nd        1 H34     -0.354000
     28 CAW        -7.0920    5.7340   -1.8780 cd        1 H34      0.239600
     29 CAI        -8.1940    6.7120   -1.7570 c3        1 H34      0.120100
     30 OAB        -7.6860    7.8550   -1.0760 oh        1 H34     -0.606800
     31 HAN1       -0.5790   -0.6950    0.2110 hc        1 H34      0.046200
     32 HAN2       -0.4370    0.5360   -1.1100 hc        1 H34      0.046200
     33 HBC         1.6770   -0.9000   -0.4590 hc        1 H34      0.054700
     34 HAP1        1.3420   -0.6530    1.9920 hc        1 H34      0.051200
     35 HAP2        2.9870   -0.1070    1.4600 hc        1 H34      0.051200
     36 HBB         1.8590    1.5050    3.0860 hc        1 H34      0.059700
     37 HAA1        1.0300   -0.5670   -2.4480 hn        1 H34      0.406800
     38 HAA2        1.5710    0.0750   -3.8900 hn        1 H34      0.406800
     39 HAF         2.7920    1.2240   -4.9620 ha        1 H34      0.130000
     40 HAE         3.9460    3.0680   -6.0920 ha        1 H34      0.148000
     41 HAG         4.4460    5.1470   -2.3220 ha        1 H34      0.165000
     42 HAO1        3.5840    2.3890    1.7270 hc        1 H34      0.068700
     43 HAO2        2.2050    3.5520    1.5500 hc        1 H34      0.068700
     44 HAD        -0.1820    2.6630    2.4860 ha        1 H34      0.125000
     45 HAL1       -2.6260    0.8120    0.4340 hc        1 H34      0.048200
     46 HAL2       -2.4280    2.0980    1.6890 hc        1 H34      0.048200
     47 HAJ1       -1.7820    2.4220   -1.3250 hc        1 H34      0.046700
     48 HAJ2       -1.6200    3.7020   -0.0600 hc        1 H34      0.046700
     49 HAK1       -4.0860    3.4920    0.4550 hc        1 H34      0.059700
     50 HAK2       -4.2410    2.2240   -0.8240 hc        1 H34      0.059700
     51 HAM1       -3.3570    3.8570   -2.5510 h1        1 H34      0.066200
     52 HAM2       -3.2480    5.1460   -1.2580 h1        1 H34      0.066200
     53 HAH        -5.2230    6.6370   -0.9390 h4        1 H34      0.201000
     54 HAI1       -8.5650    7.0100   -2.7770 h1        1 H34      0.043200
     55 HAI2       -9.0460    6.2680   -1.1710 h1        1 H34      0.043200
     56 HAB        -8.4200    8.4780   -1.0190 ho        1 H34      0.407000
@<TRIPOS>BOND
     1    1    2 1   
     2    1   19 1   
     3    1   31 1   
     4    1   32 1   
     5    2    3 1   
     6    2    4 1   
     7    2   33 1   
     8    3   17 1   
     9    3   34 1   
    10    3   35 1   
    11    4    5 ar  
    12    4   15 ar  
    13    5    6 1   
    14    5    7 ar  
    15    6   37 1   
    16    6   38 1   
    17    7    8 ar  
    18    7   13 ar  
    19    8    9 ar  
    20    8   39 1   
    21    9   10 ar  
    22    9   40 1   
    23   10   11 1   
    24   10   12 ar  
    25   12   13 ar  
    26   12   41 1   
    27   13   14 ar  
    28   14   15 ar  
    29   15   16 1   
    30   16   17 1   
    31   16   42 1   
    32   16   43 1   
    33   17   18 1   
    34   17   36 1   
    35   18   19 2   
    36   18   44 1   
    37   19   20 1   
    38   20   21 1   
    39   20   45 1   
    40   20   46 1   
    41   21   22 1   
    42   21   47 1   
    43   21   48 1   
    44   22   23 1   
    45   22   49 1   
    46   22   50 1   
    47   23   24 1   
    48   23   51 1   
    49   23   52 1   
    50   24   25 1   
    51   24   26 1   
    52   25   28 2   
    53   25   53 1   
    54   26   27 2   
    55   27   28 1   
    56   28   29 1   
    57   29   30 1   
    58   29   54 1   
    59   29   55 1   
    60   30   56 1   
@<TRIPOS>SUBSTRUCTURE
     1 H34         1 TEMP              0 ****  ****    0 ROOT
