@<TRIPOS>MOLECULE
H34
   56    60     1     0     0
SMALL
bcc


@<TRIPOS>ATOM
      1 CAN        -1.1690    2.9500   -0.9820 c3        1 H34     -0.037200
      2 CBC        -2.6680    2.7920   -0.7170 c3        1 H34     -0.005400
      3 CAP        -3.0820    3.7500    0.3920 c3        1 H34     -0.070400
      4 CAY        -3.0130    1.3790   -0.3660 ca        1 H34     -0.269600
      5 CAV        -3.1860    0.4090   -1.3690 ca        1 H34      0.204600
      6 NAA        -3.0780    0.7330   -2.7160 nh        1 H34     -0.833200
      7 CBA        -3.5470   -0.9360   -0.9780 ca        1 H34     -0.190300
      8 CAF        -3.7990   -1.9800   -1.9070 ca        1 H34     -0.095000
      9 CAE        -4.1250   -3.2450   -1.4870 ca        1 H34     -0.139000
     10 CAU        -4.2180   -3.5240   -0.1000 ca        1 H34      0.029400
     11 CL1        -4.6160   -5.1030    0.3900 cl        1 H34     -0.091400
     12 CAG        -3.9960   -2.5440    0.8370 ca        1 H34     -0.171300
     13 CAZ        -3.6590   -1.2130    0.4160 ca        1 H34      0.439600
     14 NAS        -3.4560   -0.2590    1.3830 nb        1 H34     -0.708000
     15 CAX        -3.1560    0.9850    1.0050 ca        1 H34      0.486600
     16 CAO        -2.9830    1.9860    2.1230 c3        1 H34     -0.126700
     17 CBB        -2.3940    3.3150    1.6750 c3        1 H34     -0.031500
     18 CAD        -0.9200    3.2090    1.4740 c2        1 H34     -0.160200
     19 CAT        -0.3600    3.0390    0.2670 c2        1 H34     -0.113400
     20 CAL         1.1160    2.9460    0.0870 c3        1 H34     -0.041200
     21 CAJ         1.5850    1.5030    0.0590 c3        1 H34     -0.076400
     22 CAK         3.0800    1.4290   -0.1630 c3        1 H34     -0.101400
     23 CAM         3.5230   -0.0340   -0.1710 c3        1 H34      0.055300
     24 NBD         4.9420   -0.2240   -0.3980 na        1 H34      0.042400
     25 CAH         5.8720   -0.6200    0.5740 cc        1 H34     -0.189600
     26 NAR         5.5850    0.0200   -1.5670 nc        1 H34     -0.170800
     27 NAQ         6.8280   -0.2000   -1.4370 nd        1 H34     -0.354000
     28 CAW         7.1020   -0.6110   -0.1070 cd        1 H34      0.239600
     29 CAI         8.4520   -0.9530    0.3900 c3        1 H34      0.120100
     30 OAB         8.3320   -1.3010    1.7650 oh        1 H34     -0.606800
     31 HAN1       -0.7970    2.0890   -1.5980 hc        1 H34      0.046200
     32 HAN2       -1.0040    3.8880   -1.5800 hc        1 H34      0.046200
     33 HBC        -3.2300    3.1020   -1.6440 hc        1 H34      0.054700
     34 HAP1       -2.7790    4.7930    0.1220 hc        1 H34      0.051200
     35 HAP2       -4.1940    3.7320    0.5250 hc        1 H34      0.051200
     36 HBB        -2.5910    4.0770    2.4820 hc        1 H34      0.059700
     37 HAA1       -2.5610    1.5560   -2.9270 hn        1 H34      0.406800
     38 HAA2       -2.9140   -0.0220   -3.3400 hn        1 H34      0.406800
     39 HAF        -3.7540   -1.7920   -2.9900 ha        1 H34      0.130000
     40 HAE        -4.3200   -4.0470   -2.2150 ha        1 H34      0.148000
     41 HAG        -4.0760   -2.7560    1.9150 ha        1 H34      0.165000
     42 HAO1       -3.9970    2.1750    2.5730 hc        1 H34      0.068700
     43 HAO2       -2.3350    1.5460    2.9280 hc        1 H34      0.068700
     44 HAD        -0.3090    3.2680    2.3880 ha        1 H34      0.125000
     45 HAL1        1.4090    3.4530   -0.8720 hc        1 H34      0.048200
     46 HAL2        1.6400    3.4880    0.9210 hc        1 H34      0.048200
     47 HAJ1        1.3160    1.0040    1.0270 hc        1 H34      0.046700
     48 HAJ2        1.0520    0.9510   -0.7590 hc        1 H34      0.046700
     49 HAK1        3.3450    1.9160   -1.1380 hc        1 H34      0.059700
     50 HAK2        3.6140    1.9900    0.6480 hc        1 H34      0.059700
     51 HAM1        3.2770   -0.5070    0.8220 h1        1 H34      0.066200
     52 HAM2        2.9590   -0.5850   -0.9780 h1        1 H34      0.066200
     53 HAH         5.6190   -0.8730    1.6020 h4        1 H34      0.201000
     54 HAI1        8.8720   -1.8220   -0.1880 h1        1 H34      0.043200
     55 HAI2        9.1430   -0.0710    0.2800 h1        1 H34      0.043200
     56 HAB         9.2210   -1.5280    2.0610 ho        1 H34      0.407000
@<TRIPOS>BOND
     1    1    2 1   
     2    1   19 1   
     3    1   31 1   
     4    1   32 1   
     5    2    3 1   
     6    2    4 1   
     7    2   33 1   
     8    3   17 1   
     9    3   34 1   
    10    3   35 1   
    11    4    5 ar  
    12    4   15 ar  
    13    5    6 1   
    14    5    7 ar  
    15    6   37 1   
    16    6   38 1   
    17    7    8 ar  
    18    7   13 ar  
    19    8    9 ar  
    20    8   39 1   
    21    9   10 ar  
    22    9   40 1   
    23   10   11 1   
    24   10   12 ar  
    25   12   13 ar  
    26   12   41 1   
    27   13   14 ar  
    28   14   15 ar  
    29   15   16 1   
    30   16   17 1   
    31   16   42 1   
    32   16   43 1   
    33   17   18 1   
    34   17   36 1   
    35   18   19 2   
    36   18   44 1   
    37   19   20 1   
    38   20   21 1   
    39   20   45 1   
    40   20   46 1   
    41   21   22 1   
    42   21   47 1   
    43   21   48 1   
    44   22   23 1   
    45   22   49 1   
    46   22   50 1   
    47   23   24 1   
    48   23   51 1   
    49   23   52 1   
    50   24   25 1   
    51   24   26 1   
    52   25   28 2   
    53   25   53 1   
    54   26   27 2   
    55   27   28 1   
    56   28   29 1   
    57   29   30 1   
    58   29   54 1   
    59   29   55 1   
    60   30   56 1   
@<TRIPOS>SUBSTRUCTURE
     1 H34         1 TEMP              0 ****  ****    0 ROOT
