@<TRIPOS>MOLECULE
H34
   56    60     1     0     0
SMALL
bcc


@<TRIPOS>ATOM
      1 CAN        -0.0990    0.2760   -0.0810 c3        1 H34     -0.037200
      2 CBC         1.4220    0.1110   -0.0490 c3        1 H34     -0.005400
      3 CAP         1.8930    0.1160    1.3990 c3        1 H34     -0.070400
      4 CAY         2.1030    1.1830   -0.8410 ca        1 H34     -0.269600
      5 CAV         2.2190    1.0830   -2.2380 ca        1 H34      0.204600
      6 NAA         1.7380   -0.0230   -2.9280 nh        1 H34     -0.833200
      7 CBA         2.9110    2.1330   -2.9540 ca        1 H34     -0.190300
      8 CAF         3.1330    2.1100   -4.3560 ca        1 H34     -0.095000
      9 CAE         3.7840    3.1370   -4.9920 ca        1 H34     -0.139000
     10 CAU         4.2500    4.2460   -4.2420 ca        1 H34      0.029400
     11 CL1         5.0450    5.5080   -5.0600 cl        1 H34     -0.091400
     12 CAG         4.0710    4.3080   -2.8820 ca        1 H34     -0.171300
     13 CAZ         3.3970    3.2410   -2.1980 ca        1 H34      0.439600
     14 NAS         3.2480    3.3340   -0.8360 nb        1 H34     -0.708000
     15 CAX         2.6360    2.3430   -0.1870 ca        1 H34      0.486600
     16 CAO         2.5420    2.5010    1.3130 c3        1 H34     -0.126700
     17 CBB         1.6210    1.4920    1.9830 c3        1 H34     -0.031500
     18 CAD         0.1890    1.8680    1.8020 c2        1 H34     -0.160200
     19 CAT        -0.5950    1.3200    0.8610 c2        1 H34     -0.113400
     20 CAL        -2.0260    1.7030    0.7050 c3        1 H34     -0.041200
     21 CAJ        -2.2030    2.7760   -0.3530 c3        1 H34     -0.076400
     22 CAK        -3.6670    3.1260   -0.5240 c3        1 H34     -0.101400
     23 CAM        -3.8110    4.2170   -1.5840 c3        1 H34      0.055300
     24 NBD        -5.1800    4.6170   -1.8420 na        1 H34      0.042400
     25 CAH        -5.7560    5.8340   -1.4500 cc        1 H34     -0.189600
     26 NAR        -6.1180    3.8450   -2.4440 nc        1 H34     -0.170800
     27 NAQ        -7.2280    4.4590   -2.4870 nd        1 H34     -0.354000
     28 CAW        -7.0920    5.7320   -1.8770 cd        1 H34      0.239600
     29 CAI        -8.1920    6.7130   -1.7570 c3        1 H34      0.120100
     30 OAB        -7.6810    7.8560   -1.0810 oh        1 H34     -0.606800
     31 HAN1       -0.4330    0.5340   -1.1210 hc        1 H34      0.046200
     32 HAN2       -0.5750   -0.7050    0.1920 hc        1 H34      0.046200
     33 HBC         1.6820   -0.9000   -0.4750 hc        1 H34      0.054700
     34 HAP1        1.3420   -0.6690    1.9770 hc        1 H34      0.051200
     35 HAP2        2.9870   -0.1160    1.4520 hc        1 H34      0.051200
     36 HBB         1.8520    1.4830    3.0850 hc        1 H34      0.059700
     37 HAA1        1.0390   -0.5570   -2.4630 hn        1 H34      0.406800
     38 HAA2        1.5800    0.0960   -3.9010 hn        1 H34      0.406800
     39 HAF         2.8010    1.2540   -4.9630 ha        1 H34      0.130000
     40 HAE         3.9530    3.1090   -6.0790 ha        1 H34      0.148000
     41 HAG         4.4400    5.1650   -2.2960 ha        1 H34      0.165000
     42 HAO1        2.1960    3.5400    1.5630 hc        1 H34      0.068700
     43 HAO2        3.5780    2.3790    1.7350 hc        1 H34      0.068700
     44 HAD        -0.1910    2.6400    2.4870 ha        1 H34      0.125000
     45 HAL1       -2.6270    0.7970    0.4210 hc        1 H34      0.048200
     46 HAL2       -2.4330    2.0780    1.6820 hc        1 H34      0.048200
     47 HAJ1       -1.6230    3.6900   -0.0590 hc        1 H34      0.046700
     48 HAJ2       -1.7840    2.4160   -1.3290 hc        1 H34      0.046700
     49 HAK1       -4.2430    2.2140   -0.8300 hc        1 H34      0.059700
     50 HAK2       -4.0890    3.4780    0.4540 hc        1 H34      0.059700
     51 HAM1       -3.3600    3.8510   -2.5510 h1        1 H34      0.066200
     52 HAM2       -3.2500    5.1380   -1.2560 h1        1 H34      0.066200
     53 HAH        -5.2200    6.6330   -0.9420 h4        1 H34      0.201000
     54 HAI1       -8.5640    7.0080   -2.7770 h1        1 H34      0.043700
     55 HAI2       -9.0440    6.2720   -1.1680 h1        1 H34      0.043700
     56 HAB        -8.4120    8.4810   -1.0240 ho        1 H34      0.407000
@<TRIPOS>BOND
     1    1    2 1   
     2    1   19 1   
     3    1   31 1   
     4    1   32 1   
     5    2    3 1   
     6    2    4 1   
     7    2   33 1   
     8    3   17 1   
     9    3   34 1   
    10    3   35 1   
    11    4    5 ar  
    12    4   15 ar  
    13    5    6 1   
    14    5    7 ar  
    15    6   37 1   
    16    6   38 1   
    17    7    8 ar  
    18    7   13 ar  
    19    8    9 ar  
    20    8   39 1   
    21    9   10 ar  
    22    9   40 1   
    23   10   11 1   
    24   10   12 ar  
    25   12   13 ar  
    26   12   41 1   
    27   13   14 ar  
    28   14   15 ar  
    29   15   16 1   
    30   16   17 1   
    31   16   42 1   
    32   16   43 1   
    33   17   18 1   
    34   17   36 1   
    35   18   19 2   
    36   18   44 1   
    37   19   20 1   
    38   20   21 1   
    39   20   45 1   
    40   20   46 1   
    41   21   22 1   
    42   21   47 1   
    43   21   48 1   
    44   22   23 1   
    45   22   49 1   
    46   22   50 1   
    47   23   24 1   
    48   23   51 1   
    49   23   52 1   
    50   24   25 1   
    51   24   26 1   
    52   25   28 2   
    53   25   53 1   
    54   26   27 2   
    55   27   28 1   
    56   28   29 1   
    57   29   30 1   
    58   29   54 1   
    59   29   55 1   
    60   30   56 1   
@<TRIPOS>SUBSTRUCTURE
     1 H34         1 TEMP              0 ****  ****    0 ROOT
