@<TRIPOS>MOLECULE
H35
   25    27     1     0     0
SMALL
bcc


@<TRIPOS>ATOM
      1 CAM         5.6700    5.3330    2.2270 cc        1 H35     -0.233300
      2 CAO         6.9440    5.3760    1.5430 cc        1 H35     -0.261300
      3 CAN         6.8050    4.6200    0.3980 cd        1 H35      0.244600
      4 OAL         5.5120    4.1020    0.3140 os        1 H35     -0.376800
      5 CAK         4.8300    4.5580    1.4530 cd        1 H35      0.222000
      6 CAP         3.4030    4.1760    1.5710 c3        1 H35      0.163500
      7 N6          3.2030    2.7400    1.5150 nh        1 H35     -0.827900
      8 C6          1.8870    2.2490    1.4850 ca        1 H35      0.678200
      9 N1          0.8000    3.0470    1.6800 nb        1 H35     -0.751000
     10 C2         -0.4280    2.4470    1.7200 ca        1 H35      0.645900
     11 N3         -0.7640    1.1500    1.5780 nb        1 H35     -0.653000
     12 C4          0.3060    0.3230    1.3800 ca        1 H35      0.571300
     13 C5          1.6740    0.8440    1.3280 ca        1 H35     -0.361800
     14 N7          2.5060   -0.2530    1.1050 na        1 H35     -0.261300
     15 C8          1.6610   -1.3730    1.0600 cc        1 H35      0.435700
     16 N9          0.3550   -1.0830    1.1980 nd        1 H35     -0.625700
     17 HAM         5.4380    5.8220    3.1690 ha        1 H35      0.167000
     18 HAO         7.8270    5.9080    1.8850 ha        1 H35      0.165000
     19 HAN         7.4520    4.3430   -0.4300 h4        1 H35      0.054100
     20 HAP1        3.0140    4.5450    2.5640 h1        1 H35      0.076200
     21 HAP2        2.8280    4.7080    0.7530 h1        1 H35      0.076200
     22 H6          3.8090    2.2810    0.8650 hn        1 H35      0.410800
     23 H2         -1.2740    3.1480    1.8880 h5        1 H35      0.056100
     24 H7          3.4890   -0.2540    1.1650 hn        1 H35      0.311700
     25 H8          2.0570   -2.3860    0.9010 h5        1 H35      0.074800
@<TRIPOS>BOND
     1    1    2 1   
     2    1    5 2   
     3    1   17 1   
     4    2    3 2   
     5    2   18 1   
     6    3    4 1   
     7    3   19 1   
     8    4    5 1   
     9    5    6 1   
    10    6    7 1   
    11    6   20 1   
    12    6   21 1   
    13    7    8 1   
    14    7   22 1   
    15    8    9 ar  
    16    8   13 ar  
    17    9   10 ar  
    18   10   11 ar  
    19   10   23 1   
    20   11   12 ar  
    21   12   13 ar  
    22   12   16 1   
    23   13   14 1   
    24   14   15 1   
    25   14   24 1   
    26   15   16 2   
    27   15   25 1   
@<TRIPOS>SUBSTRUCTURE
     1 H35         1 TEMP              0 ****  ****    0 ROOT
