@<TRIPOS>MOLECULE
H35
   26    28     1     0     0
SMALL
bcc


@<TRIPOS>ATOM
      1 CAM         0.0930   -0.8420    0.5290 cc        1 H35     -0.129300
      2 CAO         1.4440   -0.4660    0.1850 cc        1 H35     -0.262300
      3 CAN         1.7880    0.5880    1.0120 cd        1 H35      0.312600
      4 OAL         0.7350    0.8980    1.8680 os        1 H35     -0.392800
      5 CAK        -0.3050   -0.0000    1.5520 cd        1 H35      0.089000
      6 CAP        -1.4990    0.0930    2.3970 c3        1 H35      0.118500
      7 N6         -2.1680    1.4350    2.2200 n4        1 H35     -0.749700
      8 C6         -3.2620    1.6260    3.1910 ca        1 H35      0.481200
      9 N1         -4.4610    1.0420    2.9090 nb        1 H35     -0.674000
     10 C2         -5.4660    1.2260    3.8010 ca        1 H35      0.654900
     11 N3         -5.4490    1.9290    4.9680 nb        1 H35     -0.567000
     12 C4         -4.2690    2.5080    5.2640 ca        1 H35      0.600300
     13 C5         -3.0790    2.3750    4.3620 ca        1 H35     -0.286800
     14 N7         -2.0580    3.0890    4.9710 na        1 H35     -0.290300
     15 C8         -2.6000    3.6150    6.1690 cc        1 H35      0.496700
     16 N9         -3.8840    3.3030    6.3770 nd        1 H35     -0.581700
     17 HAM        -0.4800   -1.6450    0.0650 ha        1 H35      0.187000
     18 HAO         2.0580   -0.9360   -0.5820 ha        1 H35      0.196000
     19 HAN         2.6730    1.2110    1.1410 h4        1 H35      0.080100
     20 HAP1       -2.2440   -0.7110    2.1230 hx        1 H35      0.126700
     21 HAP2       -1.2290   -0.0070    3.4890 hx        1 H35      0.126700
     22 H6         -1.4710    2.1790    2.3400 hn        1 H35      0.464800
     23 H2         -6.4360    0.7390    3.5400 h5        1 H35      0.101100
     24 H7         -1.1270    3.1890    4.6600 hn        1 H35      0.323700
     25 H8         -1.9870    4.2310    6.8490 h5        1 H35      0.109800
     26 H62        -2.5410    1.4980    1.2600 hn        1 H35      0.464800
@<TRIPOS>BOND
     1    1    2 1   
     2    1    5 2   
     3    1   17 1   
     4    2    3 2   
     5    2   18 1   
     6    3    4 1   
     7    3   19 1   
     8    4    5 1   
     9    5    6 1   
    10    6    7 1   
    11    6   20 1   
    12    6   21 1   
    13    7    8 1   
    14    7   22 1   
    15    7   26 1   
    16    8    9 ar  
    17    8   13 ar  
    18    9   10 ar  
    19   10   11 ar  
    20   10   23 1   
    21   11   12 ar  
    22   12   13 ar  
    23   12   16 1   
    24   13   14 1   
    25   14   15 1   
    26   14   24 1   
    27   15   16 2   
    28   15   25 1   
@<TRIPOS>SUBSTRUCTURE
     1 H35         1 TEMP              0 ****  ****    0 ROOT
