@<TRIPOS>MOLECULE
H35
   25    27     1     0     0
SMALL
bcc


@<TRIPOS>ATOM
      1 CAM        -0.0300   -0.1680   -0.0440 cc        1 H35     -0.233300
      2 CAO         1.4160   -0.1970   -0.0680 cc        1 H35     -0.261300
      3 CAN         1.8380   -0.0300    1.2340 cd        1 H35      0.244600
      4 OAL         0.7400    0.1000    2.0860 os        1 H35     -0.376800
      5 CAK        -0.4010    0.0090    1.2740 cd        1 H35      0.222000
      6 CAP        -1.7130    0.0690    1.9620 c3        1 H35      0.163500
      7 N6         -1.8680    1.2700    2.7600 nh        1 H35     -0.827900
      8 C6         -3.0110    1.3930    3.5670 ca        1 H35      0.678200
      9 N1         -4.0560    0.5200    3.5000 nb        1 H35     -0.751000
     10 C2         -5.1560    0.7880    4.2660 ca        1 H35      0.645900
     11 N3         -5.3890    1.8000    5.1250 nb        1 H35     -0.653000
     12 C4         -4.3590    2.6940    5.2150 ca        1 H35      0.571300
     13 C5         -3.1310    2.5230    4.4350 ca        1 H35     -0.361800
     14 N7         -2.2990    3.5900    4.7720 na        1 H35     -0.261300
     15 C8         -3.0240    4.3700    5.6870 cc        1 H35      0.435700
     16 N9         -4.2360    3.8730    5.9940 nd        1 H35     -0.625700
     17 HAM        -0.6820   -0.2680   -0.9070 ha        1 H35      0.167000
     18 HAO         2.0310   -0.3270   -0.9540 ha        1 H35      0.165000
     19 HAN         2.8000    0.0230    1.7350 h4        1 H35      0.054100
     20 HAP1       -2.5280    0.0610    1.1800 h1        1 H35      0.076200
     21 HAP2       -1.8240   -0.8660    2.5900 h1        1 H35      0.076200
     22 H6         -1.0280    1.5490    3.2260 hn        1 H35      0.410800
     23 H2         -5.9770    0.0450    4.1640 h5        1 H35      0.056100
     24 H7         -1.4640    3.8390    4.3120 hn        1 H35      0.311700
     25 H8         -2.6050    5.2900    6.1170 h5        1 H35      0.074800
@<TRIPOS>BOND
     1    1    2 1   
     2    1    5 2   
     3    1   17 1   
     4    2    3 2   
     5    2   18 1   
     6    3    4 1   
     7    3   19 1   
     8    4    5 1   
     9    5    6 1   
    10    6    7 1   
    11    6   20 1   
    12    6   21 1   
    13    7    8 1   
    14    7   22 1   
    15    8    9 ar  
    16    8   13 ar  
    17    9   10 ar  
    18   10   11 ar  
    19   10   23 1   
    20   11   12 ar  
    21   12   13 ar  
    22   12   16 1   
    23   13   14 1   
    24   14   15 1   
    25   14   24 1   
    26   15   16 2   
    27   15   25 1   
@<TRIPOS>SUBSTRUCTURE
     1 H35         1 TEMP              0 ****  ****    0 ROOT
