@<TRIPOS>MOLECULE
H35
   25    23     1     0     0
SMALL
bcc


@<TRIPOS>ATOM
      1 CAM         2.6160    0.2020   -2.4760 c1        1 H35     -0.153000
      2 CAO         3.9820    0.1990   -2.4410 c1        1 H35     -0.136500
      3 CAN         4.4370    0.2230   -1.0480 c1        1 H35     -0.136500
      4 OAL         3.2390    0.2420   -0.1060 o         1 H35     -0.108000
      5 CAK         2.0900    0.2270   -1.1070 c2        1 H35     -0.087000
      6 CAP         0.7940   -0.5110   -0.7720 c3        1 H35      0.018000
      7 N6         -0.0780    0.3620   -0.0310 n3        1 H35     -0.284000
      8 C6         -1.3080   -0.1490    0.5240 c2        1 H35      0.261000
      9 N1         -2.7650   -0.0810    0.3870 n2        1 H35     -0.087000
     10 C2         -3.6400   -0.2390    1.6160 c1        1 H35     -0.186000
     11 N3         -3.0160   -0.3170    2.9500 n1        1 H35     -0.025000
     12 C4         -1.6100   -0.1910    3.0680 c1        1 H35      0.051000
     13 C5         -0.7330   -0.3480    1.8220 c1        1 H35     -0.365000
     14 N7         -1.7330   -0.1490    0.6310 n3        1 H35     -0.161000
     15 C8         -2.9250    0.1330    1.2460 c2        1 H35     -0.087000
     16 N9         -2.8700    0.1200    2.5500 n2        1 H35     -0.062000
     17 HAM         2.1450    0.6790   -3.1910 ha        1 H35      0.167000
     18 HAO         4.4910    0.6750   -3.1310 ha        1 H35      0.183000
     19 HAN         5.2550   -0.2540   -0.7910 ha        1 H35      0.183000
     20 HAP1        1.0000   -1.3050   -0.2310 h1        1 H35      0.101500
     21 HAP2        0.3510   -0.7880   -1.6040 h1        1 H35      0.101500
     22 H6          0.1340    1.2510    0.0630 hn        1 H35      0.242000
     23 H2         -4.6220   -0.1940    1.5320 ha        1 H35      0.154000
     24 H7         -1.6280   -0.4820   -0.2400 hn        1 H35      0.263000
     25 H8         -3.6030    0.6930    0.7830 h5        1 H35      0.153000
@<TRIPOS>BOND
     1    1    5 1   
     2    1   17 1   
     3    2    3 1   
     4    2   18 1   
     5    3   19 1   
     6    4    5 1   
     7    5    6 1   
     8    6    7 1   
     9    6   20 1   
    10    6   21 1   
    11    7    8 1   
    12    7   22 1   
    13    8    9 1   
    14    8   13 1   
    15    9   10 1   
    16   10   23 1   
    17   11   12 1   
    18   12   16 1   
    19   13   14 1   
    20   14   15 1   
    21   14   24 1   
    22   15   16 1   
    23   15   25 1   
@<TRIPOS>SUBSTRUCTURE
     1 H35         1 TEMP              0 ****  ****    0 ROOT
