@<TRIPOS>MOLECULE
H35
   25    27     1     0     0
SMALL
bcc


@<TRIPOS>ATOM
      1 CAM        -0.0100   -0.1820   -0.0250 cc        1 H35     -0.233300
      2 CAO         1.4360   -0.1670   -0.0620 cc        1 H35     -0.261300
      3 CAN         1.8630    0.0450    1.2320 cd        1 H35      0.244600
      4 OAL         0.7690    0.1600    2.0900 os        1 H35     -0.376800
      5 CAK        -0.3750    0.0140    1.2910 cd        1 H35      0.222000
      6 CAP        -1.6830    0.0500    1.9890 c3        1 H35      0.163500
      7 N6         -1.8690    1.2640    2.7600 nu        1 H35     -0.827900
      8 C6         -3.0090    1.3700    3.5750 ca        1 H35      0.678200
      9 N1         -4.0260    0.4640    3.5370 nb        1 H35     -0.751000
     10 C2         -5.1280    0.7150    4.3070 ca        1 H35      0.645900
     11 N3         -5.3860    1.7400    5.1440 nb        1 H35     -0.653000
     12 C4         -4.3830    2.6670    5.2040 ca        1 H35      0.571300
     13 C5         -3.1560    2.5160    4.4180 ca        1 H35     -0.361800
     14 N7         -2.3560    3.6160    4.7210 na        1 H35     -0.261300
     15 C8         -3.0980    4.3940    5.6240 cc        1 H35      0.435700
     16 N9         -4.2910    3.8680    5.9540 nd        1 H35     -0.625700
     17 HAM        -0.6660   -0.3220   -0.8800 ha        1 H35      0.167000
     18 HAO         2.0470   -0.2970   -0.9510 ha        1 H35      0.165000
     19 HAN         2.8280    0.1390    1.7230 h4        1 H35      0.054100
     20 HAP1       -1.7590   -0.8730    2.6400 h1        1 H35      0.076200
     21 HAP2       -2.5040   -0.0020    1.2160 h1        1 H35      0.076200
     22 H6         -1.0340    1.5790    3.2120 hn        1 H35      0.410800
     23 H2         -5.9260   -0.0560    4.2300 h5        1 H35      0.056100
     24 H7         -1.5330    3.8800    4.2490 hn        1 H35      0.311700
     25 H8         -2.7050    5.3370    6.0290 h5        1 H35      0.074800
@<TRIPOS>BOND
     1    1    2 1   
     2    1    5 2   
     3    1   17 1   
     4    2    3 2   
     5    2   18 1   
     6    3    4 1   
     7    3   19 1   
     8    4    5 1   
     9    5    6 1   
    10    6    7 1   
    11    6   20 1   
    12    6   21 1   
    13    7    8 1   
    14    7   22 1   
    15    8    9 ar  
    16    8   13 ar  
    17    9   10 ar  
    18   10   11 ar  
    19   10   23 1   
    20   11   12 ar  
    21   12   13 ar  
    22   12   16 1   
    23   13   14 1   
    24   14   15 1   
    25   14   24 1   
    26   15   16 2   
    27   15   25 1   
@<TRIPOS>SUBSTRUCTURE
     1 H35         1 TEMP              0 ****  ****    0 ROOT
