@<TRIPOS>MOLECULE
H36
   56    59     1     0     0
SMALL
bcc


@<TRIPOS>ATOM
      1 N28         0.8890    2.3290   -0.3250 n2        1 H36     -0.716100
      2 C26         1.0460    1.2820    0.3920 ce        1 H36      0.661800
      3 C25         0.3830    0.8310    1.6040 cc        1 H36     -0.357500
      4 S21         0.2820    1.7280    3.0140 ss        1 H36      0.241700
      5 C22        -0.6230    0.6000    3.8040 cc        1 H36     -0.151100
      6 C23        -0.8870   -0.5120    3.0160 cd        1 H36     -0.144500
      7 C24        -0.3020   -0.3810    1.7320 cd        1 H36     -0.112000
      8 N27         2.1230    0.3050   -0.0540 n4        1 H36     -0.644400
      9 C31         1.8950   -0.2340   -1.3990 ca        1 H36     -0.016400
     10 C36         2.2600    0.5260   -2.5170 ca        1 H36     -0.138500
     11 C32         1.3220   -1.5120   -1.5390 ca        1 H36     -0.137000
     12 C33         1.1250   -2.0270   -2.8180 ca        1 H36     -0.063000
     13 C34         1.4840   -1.2980   -3.9500 ca        1 H36     -0.156000
     14 C35         2.0500   -0.0250   -3.7970 ca        1 H36      0.153100
     15 O37         2.4600    0.7850   -4.8340 os        1 H36     -0.323400
     16 C38         2.1010    0.3460   -6.1550 c3        1 H36      0.120900
     17 C18         2.5180    1.4840   -7.0850 c3        1 H36      0.120900
     18 O17         3.6220    0.9660   -7.8480 os        1 H36     -0.323400
     19 C15         4.1210    1.7900   -8.8300 ca        1 H36      0.153100
     20 C14         3.7020    3.1090   -9.0620 ca        1 H36     -0.156000
     21 C13         4.2900    3.8420  -10.0880 ca        1 H36     -0.063000
     22 C12         5.2890    3.2880  -10.8890 ca        1 H36     -0.137000
     23 C16         5.1260    1.2030   -9.6210 ca        1 H36     -0.138500
     24 C11         5.7050    1.9680  -10.6460 ca        1 H36     -0.016400
     25 N07         6.7590    1.3800  -11.4690 n4        1 H36     -0.644400
     26 C06         6.2410    0.4760  -12.6030 ce        1 H36      0.661800
     27 N08         5.0540    0.0300  -12.6870 n2        1 H36     -0.716100
     28 C05         7.2930    0.2090  -13.5690 cc        1 H36     -0.357500
     29 S01         6.9670   -0.1910  -15.1590 ss        1 H36      0.241700
     30 C02         8.5430   -0.3670  -15.5630 cc        1 H36     -0.151100
     31 C03         9.3980   -0.1390  -14.4870 cd        1 H36     -0.144500
     32 C04         8.6730    0.1930  -13.3210 cd        1 H36     -0.112000
     33 H1          0.1750    2.9750   -0.0550 hn        1 H36      0.468400
     34 H2         -0.9730    0.7240    4.8340 h4        1 H36      0.209500
     35 H3         -1.4740   -1.3800    3.3320 ha        1 H36      0.187500
     36 H4         -0.4080   -1.1310    0.9430 ha        1 H36      0.152500
     37 H5          2.1320   -0.4690    0.6260 hn        1 H36      0.466550
     38 H6          2.6920    1.5360   -2.4330 ha        1 H36      0.177500
     39 H7          1.0290   -2.1120   -0.6630 ha        1 H36      0.162000
     40 H8          0.6790   -3.0300   -2.9340 ha        1 H36      0.175500
     41 H9          1.3200   -1.7310   -4.9490 ha        1 H36      0.167500
     42 H10         2.6540   -0.6000   -6.3980 h1        1 H36      0.074950
     43 H11         0.9940    0.1830   -6.2100 h1        1 H36      0.074950
     44 H12         2.8520    2.3820   -6.5020 h1        1 H36      0.074950
     45 H13         1.6780    1.7500   -7.7780 h1        1 H36      0.074950
     46 H14         2.9180    3.5730   -8.4420 ha        1 H36      0.167500
     47 H15         3.9660    4.8810  -10.2730 ha        1 H36      0.175500
     48 H16         5.7360    3.8960  -11.6930 ha        1 H36      0.162000
     49 H17         5.4390    0.1690   -9.4030 ha        1 H36      0.177500
     50 H18         7.3180    2.1280  -11.8990 hn        1 H36      0.466550
     51 H19         4.3480    0.2620  -12.0230 hn        1 H36      0.468400
     52 H20         8.8880   -0.6380  -16.5660 h4        1 H36      0.209500
     53 H21        10.4890   -0.2100  -14.5290 ha        1 H36      0.187500
     54 H22         9.1610    0.3820  -12.3630 ha        1 H36      0.152500
     55 H272        3.0340    0.7810   -0.0380 hn        1 H36      0.466550
     56 H072        7.3770    0.8120  -10.8770 hn        1 H36      0.466550
@<TRIPOS>BOND
     1    1    2 2   
     2    1   33 1   
     3    2    3 1   
     4    2    8 1   
     5    3    4 1   
     6    3    7 2   
     7    4    5 1   
     8    5    6 2   
     9    5   34 1   
    10    6    7 1   
    11    6   35 1   
    12    7   36 1   
    13    8    9 1   
    14    8   37 1   
    15    8   55 1   
    16    9   10 ar  
    17    9   11 ar  
    18   10   14 ar  
    19   10   38 1   
    20   11   12 ar  
    21   11   39 1   
    22   12   13 ar  
    23   12   40 1   
    24   13   14 ar  
    25   13   41 1   
    26   14   15 1   
    27   15   16 1   
    28   16   17 1   
    29   16   42 1   
    30   16   43 1   
    31   17   18 1   
    32   17   44 1   
    33   17   45 1   
    34   18   19 1   
    35   19   20 ar  
    36   19   23 ar  
    37   20   21 ar  
    38   20   46 1   
    39   21   22 ar  
    40   21   47 1   
    41   22   24 ar  
    42   22   48 1   
    43   23   24 ar  
    44   23   49 1   
    45   24   25 1   
    46   25   26 1   
    47   25   50 1   
    48   25   56 1   
    49   26   27 2   
    50   26   28 1   
    51   27   51 1   
    52   28   29 1   
    53   28   32 2   
    54   29   30 1   
    55   30   31 2   
    56   30   52 1   
    57   31   32 1   
    58   31   53 1   
    59   32   54 1   
@<TRIPOS>SUBSTRUCTURE
     1 H36         1 TEMP              0 ****  ****    0 ROOT
