@<TRIPOS>MOLECULE
H36
   54    57     1     0     0
SMALL
bcc


@<TRIPOS>ATOM
      1 N28        -0.5050   -0.3560    0.2520 n2        1 H36     -0.801600
      2 C26         0.7580   -0.0610    0.2800 ce        1 H36      0.687300
      3 C25         1.5060    0.2660    1.5140 cc        1 H36     -0.226000
      4 S21         3.0480   -0.2840    1.8630 ss        1 H36      0.084700
      5 C22         3.1020    0.4650    3.3440 cc        1 H36     -0.175600
      6 C23         1.9380    1.1580    3.6160 cd        1 H36     -0.163000
      7 C24         1.0020    1.0420    2.5470 cd        1 H36     -0.117500
      8 N27         1.5900   -0.0600   -0.8770 nu        1 H36     -0.715600
      9 C31         1.0770   -0.3790   -2.1560 ca        1 H36      0.161600
     10 C36         1.3790    0.4570   -3.2510 ca        1 H36     -0.199500
     11 C32         0.3560   -1.5730   -2.3820 ca        1 H36     -0.179000
     12 C33        -0.0450   -1.9110   -3.6680 ca        1 H36     -0.075500
     13 C34         0.2520   -1.0970   -4.7610 ca        1 H36     -0.223000
     14 C35         0.9670    0.0840   -4.5400 ca        1 H36      0.149600
     15 O37         1.3170    0.9870   -5.5290 os        1 H36     -0.332900
     16 C38         0.9860    0.6020   -6.8670 c3        1 H36      0.123900
     17 C18         1.5520    1.7020   -7.7610 c3        1 H36      0.123900
     18 O17         2.6980    1.1260   -8.4000 os        1 H36     -0.332900
     19 C15         3.4430    1.9810   -9.1890 ca        1 H36      0.149600
     20 C14         3.0910    3.3050   -9.4730 ca        1 H36     -0.223000
     21 C13         3.9320    4.0580  -10.2920 ca        1 H36     -0.075500
     22 C12         5.0870    3.5120  -10.8330 ca        1 H36     -0.179000
     23 C16         4.6140    1.4050   -9.7110 ca        1 H36     -0.199500
     24 C11         5.4450    2.1700  -10.5510 ca        1 H36      0.161600
     25 N07         6.6550    1.6450  -11.0410 nu        1 H36     -0.715600
     26 C06         6.7030    0.3810  -11.7120 ce        1 H36      0.687300
     27 N08         5.7360   -0.4480  -11.9420 n2        1 H36     -0.801600
     28 C05         8.0720    0.0270  -12.1400 cc        1 H36     -0.226000
     29 S01         9.4540    0.3800  -11.2480 ss        1 H36      0.084700
     30 C02        10.4750   -0.3380  -12.3500 cc        1 H36     -0.175600
     31 C03         9.7890   -0.8740  -13.4190 cd        1 H36     -0.163000
     32 C04         8.3810   -0.6660  -13.2970 cd        1 H36     -0.117500
     33 H1         -0.9380   -0.3860    1.1500 hn        1 H36      0.400900
     34 H2          3.9620    0.4020    4.0100 h4        1 H36      0.174000
     35 H3          1.7410    1.7280    4.5260 ha        1 H36      0.157500
     36 H4          0.0180    1.5160    2.5540 ha        1 H36      0.163500
     37 H5          2.2010    0.7360   -0.8880 hn        1 H36      0.417800
     38 H6          1.9350    1.3970   -3.1260 ha        1 H36      0.154500
     39 H7          0.1050   -2.2390   -1.5430 ha        1 H36      0.142500
     40 H8         -0.6090   -2.8420   -3.8290 ha        1 H36      0.134000
     41 H9         -0.0750   -1.3900   -5.7660 ha        1 H36      0.138500
     42 H10        -0.1280    0.5490   -6.9740 h1        1 H36      0.059200
     43 H11         1.4490   -0.3910   -7.1090 h1        1 H36      0.059200
     44 H12         0.8040    1.9950   -8.5420 h1        1 H36      0.059200
     45 H13         1.8560    2.5960   -7.1550 h1        1 H36      0.059200
     46 H14         2.1780    3.7560   -9.0650 ha        1 H36      0.138500
     47 H15         3.6700    5.1040  -10.5170 ha        1 H36      0.134000
     48 H16         5.7270    4.1320  -11.4780 ha        1 H36      0.142500
     49 H17         4.8680    0.3740   -9.4240 ha        1 H36      0.154500
     50 H18         7.2690    2.3310  -11.4300 hn        1 H36      0.417800
     51 H19         4.8200   -0.1710  -11.6560 hn        1 H36      0.400900
     52 H20        11.5550   -0.3720  -12.2150 h4        1 H36      0.174000
     53 H21        10.2430   -1.3980  -14.2620 ha        1 H36      0.157500
     54 H22         7.6490   -1.0210  -14.0270 ha        1 H36      0.163500
@<TRIPOS>BOND
     1    1    2 2   
     2    1   33 1   
     3    2    3 1   
     4    2    8 1   
     5    3    4 1   
     6    3    7 2   
     7    4    5 1   
     8    5    6 2   
     9    5   34 1   
    10    6    7 1   
    11    6   35 1   
    12    7   36 1   
    13    8    9 1   
    14    8   37 1   
    15    9   10 ar  
    16    9   11 ar  
    17   10   14 ar  
    18   10   38 1   
    19   11   12 ar  
    20   11   39 1   
    21   12   13 ar  
    22   12   40 1   
    23   13   14 ar  
    24   13   41 1   
    25   14   15 1   
    26   15   16 1   
    27   16   17 1   
    28   16   42 1   
    29   16   43 1   
    30   17   18 1   
    31   17   44 1   
    32   17   45 1   
    33   18   19 1   
    34   19   20 ar  
    35   19   23 ar  
    36   20   21 ar  
    37   20   46 1   
    38   21   22 ar  
    39   21   47 1   
    40   22   24 ar  
    41   22   48 1   
    42   23   24 ar  
    43   23   49 1   
    44   24   25 1   
    45   25   26 1   
    46   25   50 1   
    47   26   27 2   
    48   26   28 1   
    49   27   51 1   
    50   28   29 1   
    51   28   32 2   
    52   29   30 1   
    53   30   31 2   
    54   30   52 1   
    55   31   32 1   
    56   31   53 1   
    57   32   54 1   
@<TRIPOS>SUBSTRUCTURE
     1 H36         1 TEMP              0 ****  ****    0 ROOT
