@<TRIPOS>MOLECULE
H36
   54    57     1     0     0
SMALL
bcc


@<TRIPOS>ATOM
      1 N28        -0.4830   -0.3510    0.2510 n2        1 H36     -0.801600
      2 C26         0.7820   -0.0640    0.2670 ce        1 H36      0.687300
      3 C25         1.5450    0.2550    1.4940 cc        1 H36     -0.226000
      4 S21         3.0870   -0.3060    1.8250 ss        1 H36      0.084700
      5 C22         3.1600    0.4390    3.3070 cc        1 H36     -0.175600
      6 C23         2.0050    1.1390    3.5930 cd        1 H36     -0.163000
      7 C24         1.0560    1.0320    2.5340 cd        1 H36     -0.117500
      8 N27         1.6020   -0.0630   -0.9000 nh        1 H36     -0.715600
      9 C31         1.0730   -0.3750   -2.1740 ca        1 H36      0.161600
     10 C36         1.3690    0.4620   -3.2690 ca        1 H36     -0.199500
     11 C32         0.3430   -1.5640   -2.3960 ca        1 H36     -0.179000
     12 C33        -0.0730   -1.8960   -3.6790 ca        1 H36     -0.075500
     13 C34         0.2180   -1.0810   -4.7720 ca        1 H36     -0.223000
     14 C35         0.9430    0.0950   -4.5550 ca        1 H36      0.149600
     15 O37         1.2870    0.9990   -5.5450 os        1 H36     -0.332900
     16 C38         0.9500    0.6150   -6.8820 c3        1 H36      0.123900
     17 C18         1.5200    1.7110   -7.7790 c3        1 H36      0.123900
     18 O17         2.6680    1.1320   -8.4110 os        1 H36     -0.332900
     19 C15         3.4190    1.9850   -9.1970 ca        1 H36      0.149600
     20 C14         3.0680    3.3070   -9.4900 ca        1 H36     -0.223000
     21 C13         3.9150    4.0580  -10.3040 ca        1 H36     -0.075500
     22 C12         5.0750    3.5110  -10.8340 ca        1 H36     -0.179000
     23 C16         4.5950    1.4080   -9.7070 ca        1 H36     -0.199500
     24 C11         5.4320    2.1700  -10.5420 ca        1 H36      0.161600
     25 N07         6.6480    1.6450  -11.0200 nh        1 H36     -0.715600
     26 C06         6.7030    0.3780  -11.6840 ce        1 H36      0.687300
     27 N08         5.7400   -0.4540  -11.9190 n2        1 H36     -0.801600
     28 C05         8.0760    0.0230  -12.0970 cc        1 H36     -0.226000
     29 S01         9.4500    0.3840  -11.1950 ss        1 H36      0.084700
     30 C02        10.4820   -0.3390  -12.2820 cc        1 H36     -0.175600
     31 C03         9.8070   -0.8820  -13.3550 cd        1 H36     -0.163000
     32 C04         8.3980   -0.6750  -13.2480 cd        1 H36     -0.117500
     33 H1         -0.9070   -0.3810    1.1540 hn        1 H36      0.400900
     34 H2          4.0270    0.3690    3.9640 h4        1 H36      0.174000
     35 H3          1.8210    1.7080    4.5060 ha        1 H36      0.157500
     36 H4          0.0760    1.5130    2.5520 ha        1 H36      0.163500
     37 H5          2.2170    0.7290   -0.9140 hn        1 H36      0.417800
     38 H6          1.9330    1.3980   -3.1470 ha        1 H36      0.154500
     39 H7          0.0970   -2.2310   -1.5560 ha        1 H36      0.142500
     40 H8         -0.6450   -2.8240   -3.8370 ha        1 H36      0.134000
     41 H9         -0.1210   -1.3680   -5.7750 ha        1 H36      0.138500
     42 H10         1.4060   -0.3810   -7.1250 h1        1 H36      0.059200
     43 H11        -0.1650    0.5700   -6.9850 h1        1 H36      0.059200
     44 H12         0.7740    2.0010   -8.5630 h1        1 H36      0.059200
     45 H13         1.8220    2.6070   -7.1750 h1        1 H36      0.059200
     46 H14         2.1500    3.7580   -9.0910 ha        1 H36      0.138500
     47 H15         3.6530    5.1020  -10.5360 ha        1 H36      0.134000
     48 H16         5.7200    4.1290  -11.4760 ha        1 H36      0.142500
     49 H17         4.8480    0.3790   -9.4120 ha        1 H36      0.154500
     50 H18         7.2640    2.3300  -11.4060 hn        1 H36      0.417800
     51 H19         4.8210   -0.1760  -11.6420 hn        1 H36      0.400900
     52 H20        11.5610   -0.3710  -12.1370 h4        1 H36      0.174000
     53 H21        10.2700   -1.4100  -14.1910 ha        1 H36      0.157500
     54 H22         7.6730   -1.0360  -13.9820 ha        1 H36      0.163500
@<TRIPOS>BOND
     1    1    2 2   
     2    1   33 1   
     3    2    3 1   
     4    2    8 1   
     5    3    4 1   
     6    3    7 2   
     7    4    5 1   
     8    5    6 2   
     9    5   34 1   
    10    6    7 1   
    11    6   35 1   
    12    7   36 1   
    13    8    9 1   
    14    8   37 1   
    15    9   10 ar  
    16    9   11 ar  
    17   10   14 ar  
    18   10   38 1   
    19   11   12 ar  
    20   11   39 1   
    21   12   13 ar  
    22   12   40 1   
    23   13   14 ar  
    24   13   41 1   
    25   14   15 1   
    26   15   16 1   
    27   16   17 1   
    28   16   42 1   
    29   16   43 1   
    30   17   18 1   
    31   17   44 1   
    32   17   45 1   
    33   18   19 1   
    34   19   20 ar  
    35   19   23 ar  
    36   20   21 ar  
    37   20   46 1   
    38   21   22 ar  
    39   21   47 1   
    40   22   24 ar  
    41   22   48 1   
    42   23   24 ar  
    43   23   49 1   
    44   24   25 1   
    45   25   26 1   
    46   25   50 1   
    47   26   27 2   
    48   26   28 1   
    49   27   51 1   
    50   28   29 1   
    51   28   32 2   
    52   29   30 1   
    53   30   31 2   
    54   30   52 1   
    55   31   32 1   
    56   31   53 1   
    57   32   54 1   
@<TRIPOS>SUBSTRUCTURE
     1 H36         1 TEMP              0 ****  ****    0 ROOT
