@<TRIPOS>MOLECULE
H37
   68    69     1     0     0
SMALL
bcc


@<TRIPOS>ATOM
      1 N           1.0640    2.4300    1.7190 n3        1 H37     -0.884800
      2 CA          1.6460    1.3930    0.9010 c3        1 H37      0.120500
      3 C           0.7480    0.9890   -0.2980 c         1 H37      0.610100
      4 O          -0.1080    1.7760   -0.7580 o         1 H37     -0.637100
      5 CB          3.0200    1.7870    0.3240 c3        1 H37     -0.031100
      6 CG          4.0640    1.8520    1.3820 ca        1 H37     -0.083300
      7 CD1         4.9410    0.7780    1.5710 ca        1 H37     -0.115500
      8 CD2         4.1910    2.9920    2.1850 ca        1 H37     -0.115500
      9 CE1         5.9310    0.8420    2.5500 ca        1 H37     -0.131000
     10 CE2         5.1810    3.0530    3.1640 ca        1 H37     -0.131000
     11 CZ          6.0530    1.9790    3.3490 ca        1 H37     -0.126000
     12 N1          0.8950   -0.2800   -0.8150 n         1 H37     -0.554900
     13 CA1         0.2200   -0.7060   -2.0150 c3        1 H37      0.045700
     14 C1         -1.2020   -1.2430   -1.7020 c         1 H37      0.645100
     15 O1         -1.4810   -2.4540   -1.8160 o         1 H37     -0.625100
     16 CB1         0.9780   -1.8090   -2.7740 c3        1 H37     -0.045100
     17 CG1         2.3530   -1.3870   -3.1470 ca        1 H37     -0.093300
     18 CD11        2.5540   -0.4700   -4.1860 ca        1 H37     -0.128000
     19 CD21        3.4620   -1.9180   -2.4770 ca        1 H37     -0.128000
     20 CE11        3.8450   -0.0880   -4.5460 ca        1 H37     -0.126000
     21 CE21        4.7520   -1.5350   -2.8400 ca        1 H37     -0.126000
     22 CZ1         4.9460   -0.6190   -3.8730 ca        1 H37     -0.125000
     23 N2         -2.1370   -0.3150   -1.3100 n         1 H37     -0.556900
     24 CA2        -3.4880   -0.6860   -0.9730 c3        1 H37      0.011700
     25 C2         -4.3840   -0.7080   -2.2290 c         1 H37      0.541100
     26 O2         -4.8660    0.3230   -2.6930 o         1 H37     -0.490100
     27 CB2        -4.1370    0.2530    0.0540 c3        1 H37     -0.087400
     28 CG2        -3.4230    0.2180    1.3850 c3        1 H37     -0.090400
     29 CD         -4.1910    1.0630    2.4030 c3        1 H37      0.168800
     30 NE         -3.5220    1.1430    3.6900 nh        1 H37     -0.791200
     31 CZ2        -4.3790    1.4880    4.8040 c2        1 H37      0.742100
     32 NH2        -5.1800    2.6610    4.6330 nh        1 H37     -0.929800
     33 NH1        -4.3770    0.7190    5.8640 n2        1 H37     -0.873100
     34 C3         -4.5770   -2.0890   -2.7780 c3        1 H37     -0.085000
     35 CL1        -5.3400   -2.1580   -4.3460 cl        1 H37     -0.152400
     36 HN          0.9340    3.2710    1.1890 hn        1 H37      0.364300
     37 HNA         0.1790    2.1340    2.0830 hn        1 H37      0.364300
     38 HA          1.7840    0.4890    1.5670 h1        1 H37      0.081700
     39 HB          3.3130    1.0260   -0.4480 hc        1 H37      0.059700
     40 HBA         2.9420    2.7790   -0.1970 hc        1 H37      0.059700
     41 HD1         4.8530   -0.1200    0.9410 ha        1 H37      0.131500
     42 HD2         3.4990    3.8360    2.0480 ha        1 H37      0.131500
     43 HE1         6.6170   -0.0060    2.6920 ha        1 H37      0.131500
     44 HE2         5.2730    3.9500    3.7940 ha        1 H37      0.131500
     45 HZ          6.8330    2.0290    4.1220 ha        1 H37      0.132000
     46 HN1         1.6290   -0.8610   -0.4830 hn        1 H37      0.323500
     47 HA1         0.1060    0.1900   -2.7020 h1        1 H37      0.087700
     48 HB1         1.0010   -2.7440   -2.1520 hc        1 H37      0.079200
     49 HB1A        0.3830   -2.0470   -3.6970 hc        1 H37      0.079200
     50 HD11        1.6870   -0.0540   -4.7210 ha        1 H37      0.132500
     51 HD21        3.3140   -2.6490   -1.6680 ha        1 H37      0.132500
     52 HE11        3.9950    0.6320   -5.3640 ha        1 H37      0.135000
     53 HE21        5.6190   -1.9610   -2.3120 ha        1 H37      0.135000
     54 HZ1         5.9640   -0.3180   -4.1600 ha        1 H37      0.136000
     55 HN2        -1.8900    0.6500   -1.2540 hn        1 H37      0.351500
     56 HA2        -3.4640   -1.7350   -0.5430 h1        1 H37      0.084700
     57 HB2        -4.1590    1.3000   -0.3510 hc        1 H37      0.065200
     58 HB2A       -5.2030   -0.0750    0.1830 hc        1 H37      0.065200
     59 HG2        -3.3430   -0.8410    1.7460 hc        1 H37      0.053200
     60 HG2A       -2.3800    0.6160    1.2720 hc        1 H37      0.053200
     61 HD         -4.2790    2.1140    2.0030 h1        1 H37      0.045200
     62 HDA        -5.2370    0.6490    2.4940 h1        1 H37      0.045200
     63 HNE        -2.9990    0.3070    3.8870 hn        1 H37      0.401800
     64 HNH2       -4.8980    3.2650    3.8920 hn        1 H37      0.393300
     65 HNHA       -5.3480    3.1560    5.4810 hn        1 H37      0.393300
     66 HNH1       -4.9000    1.0510    6.6450 hn        1 H37      0.392400
     67 H3         -3.5750   -2.5890   -2.8710 h1        1 H37      0.103700
     68 H3A        -5.2210   -2.6750   -2.0750 h1        1 H37      0.103700
@<TRIPOS>BOND
     1    1    2 1   
     2    1   36 1   
     3    1   37 1   
     4    2    3 1   
     5    2    5 1   
     6    2   38 1   
     7    3    4 2   
     8    3   12 1   
     9    5    6 1   
    10    5   39 1   
    11    5   40 1   
    12    6    7 ar  
    13    6    8 ar  
    14    7    9 ar  
    15    7   41 1   
    16    8   10 ar  
    17    8   42 1   
    18    9   11 ar  
    19    9   43 1   
    20   10   11 ar  
    21   10   44 1   
    22   11   45 1   
    23   12   13 1   
    24   12   46 1   
    25   13   14 1   
    26   13   16 1   
    27   13   47 1   
    28   14   15 2   
    29   14   23 1   
    30   16   17 1   
    31   16   48 1   
    32   16   49 1   
    33   17   18 ar  
    34   17   19 ar  
    35   18   20 ar  
    36   18   50 1   
    37   19   21 ar  
    38   19   51 1   
    39   20   22 ar  
    40   20   52 1   
    41   21   22 ar  
    42   21   53 1   
    43   22   54 1   
    44   23   24 1   
    45   23   55 1   
    46   24   25 1   
    47   24   27 1   
    48   24   56 1   
    49   25   26 2   
    50   25   34 1   
    51   27   28 1   
    52   27   57 1   
    53   27   58 1   
    54   28   29 1   
    55   28   59 1   
    56   28   60 1   
    57   29   30 1   
    58   29   61 1   
    59   29   62 1   
    60   30   31 1   
    61   30   63 1   
    62   31   32 1   
    63   31   33 2   
    64   32   64 1   
    65   32   65 1   
    66   33   66 1   
    67   34   35 1   
    68   34   67 1   
    69   34   68 1   
@<TRIPOS>SUBSTRUCTURE
     1 H37         1 TEMP              0 ****  ****    0 ROOT
