@<TRIPOS>MOLECULE
H37
   68    60     1     0     0
SMALL
bcc


@<TRIPOS>ATOM
      1 N          -0.7040   -0.2280   -3.8190 n3        1 H37     -0.337000
      2 CA         -1.9560   -0.6380   -3.3150 c3        1 H37     -0.024000
      3 C          -1.8540   -0.8510   -1.8270 c1        1 H37      0.250000
      4 O          -2.4260   -0.1070   -1.0730 o         1 H37     -0.379000
      5 CB         -3.0160    0.4530   -3.6090 c3        1 H37     -0.112000
      6 CG         -2.9300    0.8710   -5.1020 c2        1 H37     -0.073000
      7 CD1        -2.2940    2.0590   -5.4570 c1        1 H37     -0.106000
      8 CD2        -3.4400    0.0350   -6.0890 c2        1 H37     -0.127000
      9 CE1        -2.1710    2.4110   -6.8040 c1        1 H37     -0.130000
     10 CE2        -3.3160    0.3870   -7.4380 c1        1 H37     -0.131000
     11 CZ         -2.6820    1.5740   -7.7920 c1        1 H37     -0.127000
     12 N1         -1.1330   -1.9740   -1.3130 n2        1 H37     -0.368000
     13 CA1        -0.6710   -1.9700    0.0450 c3        1 H37      0.015000
     14 C1          0.4060   -0.9260    0.2080 c1        1 H37      0.290000
     15 O1          1.0340   -0.5440   -0.7600 o         1 H37     -0.384000
     16 CB1        -0.1090   -3.3340    0.3920 c3        1 H37     -0.131000
     17 CG1        -1.1760   -4.1530    1.1750 c1        1 H37     -0.087000
     18 CD11       -1.5020   -5.4380    0.7580 c1        1 H37     -0.130500
     19 CD21       -1.6500   -3.6800    2.4000 c1        1 H37     -0.121000
     20 CE11       -2.3000   -6.2530    1.5630 c1        1 H37     -0.130500
     21 CE21       -2.4460   -4.4950    3.2010 c2        1 H37     -0.124000
     22 CZ1        -2.7700   -5.7810    2.7810 c1        1 H37     -0.126000
     23 N2          0.6880   -0.3840    1.5070 n2        1 H37     -0.365000
     24 CA2         1.7700    0.5310    1.6770 c3        1 H37     -0.017000
     25 C2          3.0710   -0.2080    1.5760 c2        1 H37      0.203000
     26 O2          3.1960   -1.2970    2.1110 o         1 H37     -0.253000
     27 CB2         1.6650    1.1940    3.0500 c3        1 H37     -0.166000
     28 CG2         1.8870    2.7170    2.9050 c3        1 H37     -0.199000
     29 CD          2.3730    3.2930    4.2390 c3        1 H37     -0.046000
     30 NE          2.6310    4.7070    4.0870 n3        1 H37     -0.323000
     31 CZ2         3.4780    5.3820    5.0170 c2        1 H37      0.153000
     32 NH2         4.8310    4.9800    5.1660 n3        1 H37     -0.320000
     33 NH1         3.0030    6.3770    5.7380 n1        1 H37     -0.347000
     34 C3          4.2490    0.4280    0.8720 c3        1 H37     -0.186000
     35 CL1         5.3300   -0.8230    0.3000 cl        1 H37     -0.078000
     36 HN         -0.5350   -0.6640   -4.6060 hn        1 H37      0.157500
     37 HNA        -0.0430   -0.4310   -3.2050 hn        1 H37      0.157500
     38 HA         -2.2220   -1.4740   -3.7450 h1        1 H37      0.119000
     39 HB         -2.8470    1.2350   -3.0400 hc        1 H37      0.106500
     40 HBA        -3.9180    0.0950   -3.4180 hc        1 H37      0.106500
     41 HD1        -1.9390    2.6440   -4.7690 ha        1 H37      0.132000
     42 HD2        -3.8830   -0.7940   -5.8420 ha        1 H37      0.129000
     43 HE1        -1.7250    3.2440   -7.0530 ha        1 H37      0.131000
     44 HE2        -3.6740   -0.1980   -8.1280 ha        1 H37      0.131000
     45 HZ         -2.5950    1.8200   -8.7320 DU        1 H37      0.137667
     46 HN1        -0.9960   -2.7100   -1.8420 hn        1 H37      0.234000
     47 HA1        -1.4160   -1.7640    0.6410 h1        1 H37      0.126000
     48 HB1         0.6910   -3.2260    0.9460 hc        1 H37      0.118500
     49 HB1A        0.1260   -3.8070   -0.4280 hc        1 H37      0.118500
     50 HD11       -1.1720   -5.7710   -0.0980 ha        1 H37      0.132500
     51 HD21       -1.4220   -2.7750    2.6960 DU        1 H37      0.137667
     52 HE11       -2.5300   -7.1610    1.2670 ha        1 H37      0.132500
     53 HE21       -2.7790   -4.1620    4.0610 ha        1 H37      0.136000
     54 HZ1        -3.3320   -6.3540    3.3450 ha        1 H37      0.135000
     55 HN2         0.1850   -0.6350    2.2250 hn        1 H37      0.263000
     56 HA2         1.7290    1.2160    0.9810 h1        1 H37      0.125000
     57 HB2         0.7750    1.0270    3.4270 hc        1 H37      0.102000
     58 HB2A        2.3480    0.8190    3.6470 hc        1 H37      0.102000
     59 HG2         1.0470    3.1440    2.6530 hc        1 H37      0.094000
     60 HG2A        2.5580    2.8840    2.2130 hc        1 H37      0.094000
     61 HD          1.6830    3.1580    4.9240 h1        1 H37      0.094000
     62 HDA         3.1970    2.8380    4.5100 h1        1 H37      0.094000
     63 HNE         2.2930    5.1580    3.3670 hn        1 H37      0.187000
     64 HNH2        5.4380    5.5490    5.5580 hn        1 H37      0.192000
     65 HNHA        5.1090    4.1740    4.8300 hn        1 H37      0.192000
     66 HNH1        2.1280    6.6380    5.6420 DU        1 H37      0.137667
     67 H3          4.7250    1.0080    1.4930 h1        1 H37      0.142500
     68 H3A         3.9280    0.9580    0.1090 h1        1 H37      0.142500
@<TRIPOS>BOND
     1    1    2 1   
     2    1   36 1   
     3    1   37 1   
     4    2    3 1   
     5    2    5 1   
     6    2   38 1   
     7    3    4 1   
     8    5    6 1   
     9    5   39 1   
    10    5   40 1   
    11    6    7 1   
    12    6    8 1   
    13    7   41 1   
    14    8   10 1   
    15    8   42 1   
    16    9   11 1   
    17    9   43 1   
    18   10   44 1   
    19   12   13 1   
    20   12   46 1   
    21   13   14 1   
    22   13   16 1   
    23   13   47 1   
    24   14   15 1   
    25   16   17 1   
    26   16   48 1   
    27   16   49 1   
    28   17   19 1   
    29   18   20 1   
    30   18   50 1   
    31   19   21 1   
    32   20   52 1   
    33   21   22 1   
    34   21   53 1   
    35   22   54 1   
    36   23   24 1   
    37   23   55 1   
    38   24   25 1   
    39   24   27 1   
    40   24   56 1   
    41   25   26 1   
    42   25   34 1   
    43   27   28 1   
    44   27   57 1   
    45   27   58 1   
    46   28   29 1   
    47   28   59 1   
    48   28   60 1   
    49   29   30 1   
    50   29   61 1   
    51   29   62 1   
    52   30   31 1   
    53   30   63 1   
    54   31   32 1   
    55   31   33 1   
    56   32   64 1   
    57   32   65 1   
    58   34   35 1   
    59   34   67 1   
    60   34   68 1   
@<TRIPOS>SUBSTRUCTURE
     1 H37         1 TEMP              0 ****  ****    0 ROOT
