@<TRIPOS>MOLECULE
H38
   48    51     1     0     0
SMALL
bcc


@<TRIPOS>ATOM
      1 N26         3.0270    1.6280   -0.9300 n2        1 H38     -0.724600
      2 C26         2.7860    0.5080   -0.3610 ce        1 H38      0.668300
      3 C25         2.7520    0.1170    1.0360 cc        1 H38     -0.367500
      4 S21         4.0090    0.3500    2.1160 ss        1 H38      0.256200
      5 C22         3.1790   -0.2660    3.3970 cc        1 H38     -0.149600
      6 C23         1.8970   -0.6750    3.0500 cd        1 H38     -0.142500
      7 C24         1.6440   -0.4530    1.6740 cd        1 H38     -0.113000
      8 N27         2.4910   -0.6730   -1.2760 n4        1 H38     -0.646900
      9 C31         1.4040   -0.4220   -2.2260 ca        1 H38     -0.046400
     10 C36         1.6570    0.3010   -3.4040 ca        1 H38     -0.083000
     11 C32         0.1150   -0.9120   -1.9440 ca        1 H38     -0.089000
     12 C33        -0.9100   -0.6810   -2.8570 ca        1 H38     -0.096000
     13 C34        -0.6690    0.0300   -4.0320 ca        1 H38     -0.069000
     14 C35         0.6130    0.5260   -4.3110 cp        1 H38     -0.034500
     15 C15         0.8620    1.2940   -5.5340 cp        1 H38     -0.034500
     16 C14         1.6290    2.4670   -5.4870 ca        1 H38     -0.069000
     17 C13         1.8610    3.2060   -6.6460 ca        1 H38     -0.096000
     18 C12         1.3370    2.7910   -7.8690 ca        1 H38     -0.089000
     19 C16         0.3250    0.8650   -6.7550 ca        1 H38     -0.083000
     20 C11         0.5650    1.6150   -7.9210 ca        1 H38     -0.046400
     21 N07         0.0250    1.1640   -9.2000 n4        1 H38     -0.646900
     22 C06        -1.3530    1.7590   -9.5570 ce        1 H38      0.668300
     23 N06        -2.0390    2.5020   -8.7890 n2        1 H38     -0.724600
     24 C05        -1.7500    1.3650  -10.8960 cc        1 H38     -0.367500
     25 S01        -2.8650    2.2410  -11.7850 ss        1 H38      0.256200
     26 C02        -2.8180    1.2300  -13.0670 cc        1 H38     -0.149600
     27 C03        -1.9490    0.1570  -12.8710 cd        1 H38     -0.142500
     28 C04        -1.3270    0.2310  -11.6060 cd        1 H38     -0.113000
     29 H1          3.2090    2.4180   -0.3440 hn        1 H38      0.469400
     30 H2          3.5960   -0.3390    4.4070 h4        1 H38      0.212500
     31 H3          1.1680   -1.1070    3.7430 ha        1 H38      0.190000
     32 H4          0.6860   -0.6760    1.1960 ha        1 H38      0.150000
     33 H5          2.2390   -1.4690   -0.6700 hn        1 H38      0.467550
     34 H6          2.6630    0.7000   -3.6220 ha        1 H38      0.164000
     35 H7         -0.1000   -1.4730   -1.0190 ha        1 H38      0.168000
     36 H8         -1.9240   -1.0620   -2.6430 ha        1 H38      0.182000
     37 H9         -1.4980    0.2140   -4.7360 ha        1 H38      0.165500
     38 H10         2.0450    2.8150   -4.5250 ha        1 H38      0.165500
     39 H11         2.4640    4.1300   -6.6010 ha        1 H38      0.182000
     40 H12         1.5380    3.3890   -8.7750 ha        1 H38      0.168000
     41 H13        -0.2710   -0.0620   -6.7860 ha        1 H38      0.164000
     42 H14         0.6740    1.4190   -9.9560 hn        1 H38      0.467550
     43 H15        -1.7210    2.7880   -7.8890 hn        1 H38      0.469400
     44 H16        -3.4070    1.3730  -13.9800 h4        1 H38      0.212500
     45 H17        -1.7690   -0.6420  -13.5960 ha        1 H38      0.190000
     46 H18        -0.6280   -0.5320  -11.2560 ha        1 H38      0.150000
     47 H272        3.3450   -0.9070   -1.7990 hn        1 H38      0.467550
     48 H072       -0.0730    0.1410   -9.1910 hn        1 H38      0.467550
@<TRIPOS>BOND
     1    1    2 2   
     2    1   29 1   
     3    2    3 1   
     4    2    8 1   
     5    3    4 1   
     6    3    7 2   
     7    4    5 1   
     8    5    6 2   
     9    5   30 1   
    10    6    7 1   
    11    6   31 1   
    12    7   32 1   
    13    8    9 1   
    14    8   33 1   
    15    8   47 1   
    16    9   10 ar  
    17    9   11 ar  
    18   10   14 ar  
    19   10   34 1   
    20   11   12 ar  
    21   11   35 1   
    22   12   13 ar  
    23   12   36 1   
    24   13   14 ar  
    25   13   37 1   
    26   14   15 1   
    27   15   16 ar  
    28   15   19 ar  
    29   16   17 ar  
    30   16   38 1   
    31   17   18 ar  
    32   17   39 1   
    33   18   20 ar  
    34   18   40 1   
    35   19   20 ar  
    36   19   41 1   
    37   20   21 1   
    38   21   22 1   
    39   21   42 1   
    40   21   48 1   
    41   22   23 2   
    42   22   24 1   
    43   23   43 1   
    44   24   25 1   
    45   24   28 2   
    46   25   26 1   
    47   26   27 2   
    48   26   44 1   
    49   27   28 1   
    50   27   45 1   
    51   28   46 1   
@<TRIPOS>SUBSTRUCTURE
     1 H38         1 TEMP              0 ****  ****    0 ROOT
