@<TRIPOS>MOLECULE
H38
   46    49     1     0     0
SMALL
bcc


@<TRIPOS>ATOM
      1 N26        -0.0580   -0.9320   -0.1510 n2        1 H38     -0.801600
      2 C26         1.0890   -0.3330   -0.0580 ce        1 H38      0.683300
      3 C25         1.6300    0.2290    1.2000 cc        1 H38     -0.224500
      4 S21         3.2190    0.0720    1.7030 ss        1 H38      0.080200
      5 C22         2.9690    0.8960    3.1230 cc        1 H38     -0.174600
      6 C23         1.6590    1.3150    3.2540 cd        1 H38     -0.162500
      7 C24         0.8730    0.9240    2.1300 cd        1 H38     -0.117500
      8 N27         1.9900   -0.1860   -1.1540 nu        1 H38     -0.711600
      9 C31         1.6480   -0.6430   -2.4500 ca        1 H38      0.124100
     10 C36         1.8170    0.2110   -3.5610 ca        1 H38     -0.154000
     11 C32         1.2340   -1.9740   -2.6720 ca        1 H38     -0.141000
     12 C33         0.9980   -2.4200   -3.9680 ca        1 H38     -0.111000
     13 C34         1.1690   -1.5740   -5.0610 ca        1 H38     -0.136000
     14 C35         1.5850   -0.2520   -4.8590 cp        1 H38     -0.018500
     15 C15         1.7740    0.6470   -6.0000 cp        1 H38     -0.018500
     16 C14         2.8880    1.4950   -6.0530 ca        1 H38     -0.136000
     17 C13         3.0670    2.3370   -7.1470 ca        1 H38     -0.111000
     18 C12         2.1440    2.3600   -8.1860 ca        1 H38     -0.141000
     19 C16         0.8440    0.6510   -7.0450 ca        1 H38     -0.154000
     20 C11         1.0120    1.5140   -8.1490 ca        1 H38      0.124100
     21 N07         0.1140    1.4770   -9.2370 nu        1 H38     -0.711600
     22 C06        -1.2920    1.6550   -9.0320 ce        1 H38      0.683300
     23 N06        -1.9350    1.7910   -7.9170 n2        1 H38     -0.801600
     24 C05        -2.0500    1.6280  -10.3000 cc        1 H38     -0.224500
     25 S01        -1.6590    0.6420  -11.6060 ss        1 H38      0.080200
     26 C02        -2.9380    1.1780  -12.5280 cc        1 H38     -0.174600
     27 C03        -3.7010    2.1140  -11.8610 cd        1 H38     -0.162500
     28 C04        -3.1870    2.3760  -10.5550 cd        1 H38     -0.117500
     29 H1         -0.5450   -1.0220    0.7150 hn        1 H38      0.401400
     30 H2          3.7580    1.0730    3.8530 h4        1 H38      0.173500
     31 H3          1.2570    1.8750    4.1010 ha        1 H38      0.157000
     32 H4         -0.1900    1.1560    2.0290 ha        1 H38      0.164000
     33 H5          2.4040    0.7270   -1.1620 hn        1 H38      0.413300
     34 H6          2.1320    1.2570   -3.4170 ha        1 H38      0.141500
     35 H7          1.0910   -2.6640   -1.8270 ha        1 H38      0.141500
     36 H8          0.6710   -3.4590   -4.1300 ha        1 H38      0.134500
     37 H9          0.9840   -1.9420   -6.0810 ha        1 H38      0.138000
     38 H10         3.6240    1.4850   -5.2360 ha        1 H38      0.138000
     39 H11         3.9480    2.9960   -7.1910 ha        1 H38      0.134500
     40 H12         2.3060    3.0360   -9.0390 ha        1 H38      0.141500
     41 H13        -0.0120   -0.0410   -7.0020 ha        1 H38      0.141500
     42 H14         0.4580    1.9320  -10.0580 hn        1 H38      0.413300
     43 H15        -1.3910    1.8230   -7.0800 hn        1 H38      0.401400
     44 H16        -3.1310    0.8120  -13.5360 h4        1 H38      0.173500
     45 H17        -4.5920    2.6020  -12.2610 ha        1 H38      0.157000
     46 H18        -3.6460    3.0750   -9.8510 ha        1 H38      0.164000
@<TRIPOS>BOND
     1    1    2 2   
     2    1   29 1   
     3    2    3 1   
     4    2    8 1   
     5    3    4 1   
     6    3    7 2   
     7    4    5 1   
     8    5    6 2   
     9    5   30 1   
    10    6    7 1   
    11    6   31 1   
    12    7   32 1   
    13    8    9 1   
    14    8   33 1   
    15    9   10 ar  
    16    9   11 ar  
    17   10   14 ar  
    18   10   34 1   
    19   11   12 ar  
    20   11   35 1   
    21   12   13 ar  
    22   12   36 1   
    23   13   14 ar  
    24   13   37 1   
    25   14   15 1   
    26   15   16 ar  
    27   15   19 ar  
    28   16   17 ar  
    29   16   38 1   
    30   17   18 ar  
    31   17   39 1   
    32   18   20 ar  
    33   18   40 1   
    34   19   20 ar  
    35   19   41 1   
    36   20   21 1   
    37   21   22 1   
    38   21   42 1   
    39   22   23 2   
    40   22   24 1   
    41   23   43 1   
    42   24   25 1   
    43   24   28 2   
    44   25   26 1   
    45   26   27 2   
    46   26   44 1   
    47   27   28 1   
    48   27   45 1   
    49   28   46 1   
@<TRIPOS>SUBSTRUCTURE
     1 H38         1 TEMP              0 ****  ****    0 ROOT
