@<TRIPOS>MOLECULE
H39
   54    56     1     0     0
SMALL
bcc


@<TRIPOS>ATOM
      1 C1         -0.3150   -0.8130    0.4170 ca        1 H39     -0.142000
      2 C2          1.0460   -1.1580    0.5100 ca        1 H39     -0.090000
      3 C3         -3.4850    6.3140   -0.7710 cc        1 H39     -0.197000
      4 C4         -4.3660    6.9410   -1.6590 cd        1 H39     -0.160300
      5 C5         -2.3210    6.9670   -2.6280 cd        1 H39     -0.148300
      6 C6         -0.1560    0.7850    2.2610 ca        1 H39     -0.145600
      7 C7         -0.9140    0.1290    1.2580 ca        1 H39     -0.030300
      8 C8         -2.1820    6.3290   -1.3830 cc        1 H39     -0.176300
      9 C9          1.7750   -0.5080    1.4810 ca        1 H39      0.049100
     10 C10         1.1840    0.4530    2.3420 ca        1 H39      0.097100
     11 C11        -0.7690    1.7580    3.1870 c         1 H39      0.662700
     12 C12        -0.9060    4.3390   -0.4870 c         1 H39      0.663100
     13 C13         3.3880    0.2700    2.8890 c3        1 H39      0.322200
     14 C14        -6.1840    3.3180    1.2140 c3        1 H39     -0.096100
     15 C15        -4.7120    2.2980    2.9370 c3        1 H39     -0.096100
     16 C16        -0.9330    5.8250   -0.8060 c3        1 H39     -0.073100
     17 C17        -2.3690    0.4210    1.1020 c3        1 H39     -0.044100
     18 C18        -4.1740    2.0440    0.4950 c3        1 H39     -0.072400
     19 C19        -1.9470    2.1230   -0.7020 c3        1 H39      0.083000
     20 C20        -4.7570    2.9510    1.5720 c3        1 H39     -0.067700
     21 C21        -2.6690    1.8410    0.6290 c3        1 H39     -0.094700
     22 N22        -3.6510    7.3340   -2.7880 na        1 H39     -0.177100
     23 N23        -1.8500    3.5110   -1.0620 n         1 H39     -0.544900
     24 O24        -0.4690    3.0790    3.0560 oh        1 H39     -0.580100
     25 O25        -1.5600    1.5100    4.0990 o         1 H39     -0.499000
     26 O26         0.0060    3.8800    0.2380 o         1 H39     -0.653100
     27 O27         3.1240   -0.6400    1.7970 os        1 H39     -0.331900
     28 O28         2.1480    0.9460    3.2110 os        1 H39     -0.325900
     29 H1         -0.9250   -1.3120   -0.3520 ha        1 H39      0.142000
     30 H2          1.4960   -1.9030   -0.1580 ha        1 H39      0.158000
     31 H13         4.1300    1.0340    2.5480 h2        1 H39      0.077700
     32 H13A        3.7110   -0.3230    3.7800 h2        1 H39      0.077700
     33 H14        -6.2180    3.8520    0.2340 hc        1 H39      0.037367
     34 H14A       -6.8170    2.4010    1.1400 hc        1 H39      0.037367
     35 H14B       -6.6180    3.9850    1.9970 hc        1 H39      0.037367
     36 H15        -5.1800    2.9670    3.6990 hc        1 H39      0.037367
     37 H15A       -3.6550    2.0990    3.2460 hc        1 H39      0.037367
     38 H15B       -5.2680    1.3300    2.9280 hc        1 H39      0.037367
     39 H16        -0.0720    6.0200   -1.5040 hc        1 H39      0.082200
     40 H16A       -0.7150    6.3650    0.1580 hc        1 H39      0.082200
     41 H17        -2.8730    0.2740    2.0990 hc        1 H39      0.065700
     42 H17A       -2.8240   -0.3100    0.3810 hc        1 H39      0.065700
     43 H18        -4.4080    2.4930   -0.5070 hc        1 H39      0.038700
     44 H18A       -4.7020    1.0540    0.5320 hc        1 H39      0.038700
     45 H19        -0.8980    1.7100   -0.6320 h1        1 H39      0.061200
     46 H19A       -2.4860    1.5880   -1.5340 h1        1 H39      0.061200
     47 H20        -4.1470    3.8990    1.6090 hc        1 H39      0.046700
     48 H21        -2.2630    2.5550    1.4050 hc        1 H39      0.072700
     49 HN23       -2.6670    3.9370   -1.4380 hn        1 H39      0.317500
     50 HN22       -4.0240    7.8090   -3.5660 hn        1 H39      0.296700
     51 H3         -3.7310    5.9010    0.2030 ha        1 H39      0.160000
     52 H4         -5.4350    7.1330   -1.5670 h4        1 H39      0.168000
     53 H232        0.1210    3.2200    2.2950 ho        1 H39      0.463000
     54 H5         -1.5710    7.1790   -3.3900 h4        1 H39      0.169000
@<TRIPOS>BOND
     1    1    2 ar  
     2    1    7 ar  
     3    1   29 1   
     4    2    9 ar  
     5    2   30 1   
     6    3    4 2   
     7    3    8 1   
     8    3   51 1   
     9    4   22 1   
    10    4   52 1   
    11    5    8 2   
    12    5   22 1   
    13    5   54 1   
    14    6    7 ar  
    15    6   10 ar  
    16    6   11 1   
    17    7   17 1   
    18    8   16 1   
    19    9   10 ar  
    20    9   27 1   
    21   10   28 1   
    22   11   24 1   
    23   11   25 2   
    24   12   16 1   
    25   12   23 1   
    26   12   26 2   
    27   13   27 1   
    28   13   28 1   
    29   13   31 1   
    30   13   32 1   
    31   14   20 1   
    32   14   33 1   
    33   14   34 1   
    34   14   35 1   
    35   15   20 1   
    36   15   36 1   
    37   15   37 1   
    38   15   38 1   
    39   16   39 1   
    40   16   40 1   
    41   17   21 1   
    42   17   41 1   
    43   17   42 1   
    44   18   20 1   
    45   18   21 1   
    46   18   43 1   
    47   18   44 1   
    48   19   21 1   
    49   19   23 1   
    50   19   45 1   
    51   19   46 1   
    52   20   47 1   
    53   21   48 1   
    54   22   50 1   
    55   23   49 1   
    56   24   53 1   
@<TRIPOS>SUBSTRUCTURE
     1 H39         1 TEMP              0 ****  ****    0 ROOT
