@<TRIPOS>MOLECULE
H39
   54    56     1     0     0
SMALL
bcc


@<TRIPOS>ATOM
      1 C1          0.0480   -0.2790    0.1350 ca        1 H39     -0.132000
      2 C2          1.4500   -0.3160    0.2230 ca        1 H39     -0.071000
      3 C3         -2.7590    6.6070   -0.2860 cc        1 H39     -0.201000
      4 C4         -3.7820    7.4360   -0.7630 cd        1 H39     -0.159300
      5 C5         -2.5330    6.8290   -2.5500 cd        1 H39     -0.144300
      6 C6         -0.2030    0.5670    2.4190 ca        1 H39     -0.154600
      7 C7         -0.7700    0.1450    1.1880 ca        1 H39     -0.015300
      8 C8         -1.9620    6.2190   -1.4200 cc        1 H39     -0.170300
      9 C9          1.9940    0.0970    1.4220 ca        1 H39      0.046100
     10 C10         1.1810    0.5370    2.4950 ca        1 H39      0.077100
     11 C11        -1.0220    0.9940    3.5670 c         1 H39      0.658700
     12 C12        -1.0440    3.8790   -1.4190 c         1 H39      0.660100
     13 C13         3.3630    0.6660    3.1520 c3        1 H39      0.326200
     14 C14        -6.5350    2.6070    1.0300 c3        1 H39     -0.091600
     15 C15        -4.5750    3.7610    2.0230 c3        1 H39     -0.091600
     16 C16        -0.7640    5.3750   -1.4010 c3        1 H39     -0.073100
     17 C17        -2.2490    0.1340    0.9960 c3        1 H39     -0.053100
     18 C18        -4.3300    1.4750    1.0030 c3        1 H39     -0.077400
     19 C19        -2.4760    2.0230   -0.6430 c3        1 H39      0.090000
     20 C20        -5.0370    2.8200    0.9300 c3        1 H39     -0.068700
     21 C21        -2.8260    1.5340    0.7750 c3        1 H39     -0.073700
     22 N22        -3.6380    7.5650   -2.1420 na        1 H39     -0.176100
     23 N23        -2.1350    3.4150   -0.7210 n         1 H39     -0.568900
     24 O24        -0.5590    1.9750    4.3980 oh        1 H39     -0.578100
     25 O25        -2.1290    0.5670    3.9030 o         1 H39     -0.496000
     26 O26        -0.2770    3.1030   -2.0290 o         1 H39     -0.631100
     27 O27         3.3330    0.1660    1.7970 os        1 H39     -0.327900
     28 O28         1.9940    0.9020    3.5630 os        1 H39     -0.350900
     29 H1         -0.4190   -0.5930   -0.8130 ha        1 H39      0.152000
     30 H2          2.0720   -0.6470   -0.6180 ha        1 H39      0.165000
     31 H13         3.8020   -0.1190    3.8160 h2        1 H39      0.078700
     32 H13A        3.9080    1.6420    3.1630 h2        1 H39      0.078700
     33 H14        -7.0710    3.5830    0.9450 hc        1 H39      0.035033
     34 H14A       -6.8900    1.9350    0.2120 hc        1 H39      0.035033
     35 H14B       -6.8000    2.1430    2.0100 hc        1 H39      0.035033
     36 H15        -5.2020    4.6850    2.0270 hc        1 H39      0.035033
     37 H15A       -4.6580    3.2720    3.0230 hc        1 H39      0.035033
     38 H15B       -3.5110    4.0620    1.8650 hc        1 H39      0.035033
     39 H16        -0.1600    5.5870   -0.4760 hc        1 H39      0.077200
     40 H16A       -0.1150    5.5980   -2.2910 hc        1 H39      0.077200
     41 H17        -2.7280   -0.3210    1.9070 hc        1 H39      0.071700
     42 H17A       -2.5150   -0.5150    0.1190 hc        1 H39      0.071700
     43 H18        -4.7870    0.7850    0.2440 hc        1 H39      0.048700
     44 H18A       -4.5180    1.0300    2.0180 hc        1 H39      0.048700
     45 H19        -1.6000    1.4270   -1.0370 h1        1 H39      0.055200
     46 H19A       -3.3560    1.8220   -1.3220 h1        1 H39      0.055200
     47 H20        -4.8210    3.2910   -0.0710 hc        1 H39      0.043700
     48 H21        -2.3770    2.2150    1.5510 hc        1 H39      0.063700
     49 HN23       -2.7470    4.0680   -0.2880 hn        1 H39      0.322500
     50 HN22       -4.2230    8.0940   -2.7320 hn        1 H39      0.296700
     51 H3         -2.5910    6.3190    0.7470 ha        1 H39      0.154000
     52 H4         -4.5890    7.9340   -0.2260 h4        1 H39      0.167000
     53 H232        0.3330    2.2500    4.1410 ho        1 H39      0.440000
     54 H5         -2.2260    6.7840   -3.5950 h4        1 H39      0.171000
@<TRIPOS>BOND
     1    1    2 ar  
     2    1    7 ar  
     3    1   29 1   
     4    2    9 ar  
     5    2   30 1   
     6    3    4 2   
     7    3    8 1   
     8    3   51 1   
     9    4   22 1   
    10    4   52 1   
    11    5    8 2   
    12    5   22 1   
    13    5   54 1   
    14    6    7 ar  
    15    6   10 ar  
    16    6   11 1   
    17    7   17 1   
    18    8   16 1   
    19    9   10 ar  
    20    9   27 1   
    21   10   28 1   
    22   11   24 1   
    23   11   25 2   
    24   12   16 1   
    25   12   23 1   
    26   12   26 2   
    27   13   27 1   
    28   13   28 1   
    29   13   31 1   
    30   13   32 1   
    31   14   20 1   
    32   14   33 1   
    33   14   34 1   
    34   14   35 1   
    35   15   20 1   
    36   15   36 1   
    37   15   37 1   
    38   15   38 1   
    39   16   39 1   
    40   16   40 1   
    41   17   21 1   
    42   17   41 1   
    43   17   42 1   
    44   18   20 1   
    45   18   21 1   
    46   18   43 1   
    47   18   44 1   
    48   19   21 1   
    49   19   23 1   
    50   19   45 1   
    51   19   46 1   
    52   20   47 1   
    53   21   48 1   
    54   22   50 1   
    55   23   49 1   
    56   24   53 1   
@<TRIPOS>SUBSTRUCTURE
     1 H39         1 TEMP              0 ****  ****    0 ROOT
