@<TRIPOS>MOLECULE
H39
   53    55     1     0     0
SMALL
bcc


@<TRIPOS>ATOM
      1 C1         -2.1610    0.7000    2.0710 ca        1 H39     -0.152000
      2 C2         -2.6060    2.0320    2.0330 ca        1 H39     -0.140000
      3 C3          4.3040    1.9860   -0.8100 cc        1 H39     -0.199000
      4 C4          3.4640    2.3450   -1.8770 cd        1 H39     -0.195300
      5 C5          2.8190    0.2940   -1.1960 cd        1 H39     -0.116300
      6 C6         -1.6690    0.6590   -0.3350 ca        1 H39     -0.077600
      7 C7         -1.7060    0.0260    0.9340 ca        1 H39     -0.063300
      8 C8          3.8880    0.6850   -0.3640 cc        1 H39     -0.226300
      9 C9         -2.5660    2.6460    0.8000 ca        1 H39      0.033100
     10 C10        -2.1040    1.9720   -0.3600 ca        1 H39      0.064100
     11 C11        -1.1990   -0.0690   -1.5840 c         1 H39      0.932200
     12 C12         3.3680   -0.7610    1.6170 c         1 H39      0.644100
     13 C13        -2.7070    4.0890   -0.9520 c3        1 H39      0.319200
     14 C14         1.5110   -4.9460   -0.4260 c3        1 H39     -0.099100
     15 C15        -0.4300   -3.6700   -1.3130 c3        1 H39     -0.099100
     16 C16         4.4310   -0.0680    0.7710 c3        1 H39     -0.063100
     17 C17        -1.2760   -1.3980    1.0640 c3        1 H39     -0.032100
     18 C18         0.6130   -3.0500    0.9010 c3        1 H39     -0.073400
     19 C19         0.9540   -0.8780    2.1220 c3        1 H39      0.076000
     20 C20         0.8470   -3.5840   -0.5070 c3        1 H39     -0.063700
     21 C21         0.2340   -1.5750    0.9460 c3        1 H39     -0.106700
     22 N22         2.5760    1.3000   -2.1130 na        1 H39     -0.134100
     23 N23         2.1360   -0.1400    1.7550 n         1 H39     -0.531900
     24 O24        -0.0060    0.1200   -1.9670 o         1 H39     -0.830800
     25 O25        -2.0090   -0.8420   -2.1580 o         1 H39     -0.830800
     26 O26         3.6470   -1.8180    2.2260 o         1 H39     -0.640100
     27 O27        -2.9420    3.9470    0.4660 os        1 H39     -0.354900
     28 O28        -2.1830    2.8450   -1.4490 os        1 H39     -0.318900
     29 H1         -2.1780    0.1740    3.0380 ha        1 H39      0.120000
     30 H2         -2.9610    2.5470    2.9320 ha        1 H39      0.132000
     31 H5          2.1960   -0.6070   -1.1960 h4        1 H39      0.198000
     32 H13        -3.6840    4.2960   -1.4550 h2        1 H39      0.051700
     33 H13A       -1.9440    4.8910   -1.1080 h2        1 H39      0.051700
     34 H14         1.7160   -5.3370   -1.4520 hc        1 H39      0.034700
     35 H14A        2.4770   -4.8800    0.1290 hc        1 H39      0.034700
     36 H14B        0.8470   -5.6720    0.1020 hc        1 H39      0.034700
     37 H15        -0.2470   -4.2210   -2.2670 hc        1 H39      0.034700
     38 H15A       -1.2230   -4.2100   -0.7420 hc        1 H39      0.034700
     39 H15B       -0.8040   -2.6430   -1.5720 hc        1 H39      0.034700
     40 H16         5.1360   -0.8670    0.4120 hc        1 H39      0.062700
     41 H16A        5.0110    0.6170    1.4470 hc        1 H39      0.062700
     42 H17        -1.6270   -1.8190    2.0430 hc        1 H39      0.055200
     43 H17A       -1.7640   -1.9890    0.2370 hc        1 H39      0.055200
     44 H18        -0.1820   -3.6630    1.4000 hc        1 H39      0.038700
     45 H18A        1.5650   -3.2020    1.4830 hc        1 H39      0.038700
     46 H19         0.2470   -0.1350    2.5940 h1        1 H39      0.055200
     47 H19A        1.2350   -1.6370    2.9060 h1        1 H39      0.055200
     48 H20         1.5500   -2.8810   -1.0390 hc        1 H39      0.052700
     49 H21         0.5340   -1.0880   -0.0310 hc        1 H39      0.103700
     50 HN23        1.9610    0.6140    1.1210 hn        1 H39      0.314500
     51 HN22        1.7480    1.3290   -2.6660 hn        1 H39      0.339700
     52 H3          5.1120    2.5770   -0.3970 ha        1 H39      0.133000
     53 H4          3.4470    3.2530   -2.4760 h4        1 H39      0.151000
@<TRIPOS>BOND
     1    1    2 ar  
     2    1    7 ar  
     3    1   29 1   
     4    2    9 ar  
     5    2   30 1   
     6    3    4 2   
     7    3    8 1   
     8    3   52 1   
     9    4   22 1   
    10    4   53 1   
    11    5    8 2   
    12    5   22 1   
    13    5   31 1   
    14    6    7 ar  
    15    6   10 ar  
    16    6   11 1   
    17    7   17 1   
    18    8   16 1   
    19    9   10 ar  
    20    9   27 1   
    21   10   28 1   
    22   11   24 1   
    23   11   25 1   
    24   12   16 1   
    25   12   23 1   
    26   12   26 2   
    27   13   27 1   
    28   13   28 1   
    29   13   32 1   
    30   13   33 1   
    31   14   20 1   
    32   14   34 1   
    33   14   35 1   
    34   14   36 1   
    35   15   20 1   
    36   15   37 1   
    37   15   38 1   
    38   15   39 1   
    39   16   40 1   
    40   16   41 1   
    41   17   21 1   
    42   17   42 1   
    43   17   43 1   
    44   18   20 1   
    45   18   21 1   
    46   18   44 1   
    47   18   45 1   
    48   19   21 1   
    49   19   23 1   
    50   19   46 1   
    51   19   47 1   
    52   20   48 1   
    53   21   49 1   
    54   22   51 1   
    55   23   50 1   
@<TRIPOS>SUBSTRUCTURE
     1 H39         1 TEMP              0 ****  ****    0 ROOT
