@<TRIPOS>MOLECULE
H39
   54    56     1     0     0
SMALL
bcc


@<TRIPOS>ATOM
      1 C1         -0.2700   -0.6330    0.1780 ca        1 H39     -0.142000
      2 C2          1.1090   -0.9090    0.2060 ca        1 H39     -0.091000
      3 C3         -3.5430    6.6370   -1.3710 cc        1 H39     -0.201000
      4 C4         -3.9240    7.1460   -2.6190 cd        1 H39     -0.160300
      5 C5         -1.6670    6.9710   -2.6360 cd        1 H39     -0.142300
      6 C6         -0.1540    0.7570    2.1850 ca        1 H39     -0.145600
      7 C7         -0.8990    0.1750    1.1290 ca        1 H39     -0.030300
      8 C8         -2.1080    6.5240   -1.3780 cc        1 H39     -0.173300
      9 C9          1.8260   -0.3300    1.2310 ca        1 H39      0.049100
     10 C10         1.2030    0.4950    2.2050 ca        1 H39      0.097100
     11 C11        -0.7950    1.5860    3.2260 c         1 H39      0.662700
     12 C12        -1.1390    4.5530   -0.1340 c         1 H39      0.666100
     13 C13         3.4270    0.3770    2.6890 c3        1 H39      0.322200
     14 C14        -6.3540    2.9620    1.5940 c3        1 H39     -0.095600
     15 C15        -4.7980    1.7460    3.1020 c3        1 H39     -0.095600
     16 C16        -1.2630    6.0620   -0.2740 c3        1 H39     -0.073100
     17 C17        -2.3710    0.3980    1.0310 c3        1 H39     -0.045100
     18 C18        -4.2790    1.9730    0.6510 c3        1 H39     -0.071400
     19 C19        -2.0870    2.3220   -0.5610 c3        1 H39      0.088000
     20 C20        -4.9020    2.6290    1.8770 c3        1 H39     -0.068700
     21 C21        -2.7620    1.8440    0.7390 c3        1 H39     -0.092700
     22 N22        -2.7770    7.3450   -3.3830 na        1 H39     -0.176100
     23 N23        -2.0690    3.7450   -0.7500 ns        1 H39     -0.551900
     24 O24        -0.5680    2.9280    3.2390 oh        1 H39     -0.580100
     25 O25        -1.5480    1.1940    4.1200 o         1 H39     -0.500000
     26 O26        -0.1900    4.0670    0.5240 o         1 H39     -0.656100
     27 O27         3.1860   -0.4200    1.5060 os        1 H39     -0.331900
     28 O28         2.1610    0.9420    3.1070 os        1 H39     -0.325900
     29 H1         -0.8710   -1.0770   -0.6310 ha        1 H39      0.142000
     30 H2          1.5830   -1.5490   -0.5490 ha        1 H39      0.158000
     31 H13         3.8020   -0.2930    3.5020 h2        1 H39      0.077700
     32 H13A        4.1180    1.2140    2.4230 h2        1 H39      0.077700
     33 H14        -6.8160    3.4570    2.4820 hc        1 H39      0.037033
     34 H14A       -6.9310    2.0330    1.3670 hc        1 H39      0.037033
     35 H14B       -6.4370    3.6520    0.7210 hc        1 H39      0.037033
     36 H15        -5.2550    0.7460    2.9070 hc        1 H39      0.037033
     37 H15A       -5.3320    2.2160    3.9620 hc        1 H39      0.037033
     38 H15B       -3.7270    1.5990    3.3920 hc        1 H39      0.037033
     39 H16        -0.2200    6.4660   -0.3850 hc        1 H39      0.081700
     40 H16A       -1.6710    6.4410    0.7050 hc        1 H39      0.081700
     41 H17        -2.7990   -0.2660    0.2330 hc        1 H39      0.065200
     42 H17A       -2.8440    0.1010    2.0100 hc        1 H39      0.065200
     43 H18        -4.7430    0.9620    0.5050 hc        1 H39      0.037700
     44 H18A       -4.5530    2.5840   -0.2500 hc        1 H39      0.037700
     45 H19        -2.6190    1.8610   -1.4410 h1        1 H39      0.059700
     46 H19A       -1.0180    1.9590   -0.5590 h1        1 H39      0.059700
     47 H20        -4.3530    3.5910    2.0860 hc        1 H39      0.049700
     48 H21        -2.3820    2.4840    1.5880 hc        1 H39      0.072700
     49 HN23       -0.0070    3.1850    2.4870 ho        1 H39      0.463000
     50 HN22       -2.7540    7.7020   -4.3010 hn        1 H39      0.296700
     51 H3         -4.2020    6.3890   -0.5450 ha        1 H39      0.155000
     52 H4         -4.9150    7.3790   -3.0080 h4        1 H39      0.168000
     53 H232       -2.8790    4.1710   -1.1380 hn        1 H39      0.320500
     54 H5         -0.6550    7.0440   -3.0340 h4        1 H39      0.171000
@<TRIPOS>BOND
     1    1    2 ar  
     2    1    7 ar  
     3    1   29 1   
     4    2    9 ar  
     5    2   30 1   
     6    3    4 2   
     7    3    8 1   
     8    3   51 1   
     9    4   22 1   
    10    4   52 1   
    11    5    8 2   
    12    5   22 1   
    13    5   54 1   
    14    6    7 ar  
    15    6   10 ar  
    16    6   11 1   
    17    7   17 1   
    18    8   16 1   
    19    9   10 ar  
    20    9   27 1   
    21   10   28 1   
    22   11   24 1   
    23   11   25 2   
    24   12   16 1   
    25   12   23 1   
    26   12   26 2   
    27   13   27 1   
    28   13   28 1   
    29   13   31 1   
    30   13   32 1   
    31   14   20 1   
    32   14   33 1   
    33   14   34 1   
    34   14   35 1   
    35   15   20 1   
    36   15   36 1   
    37   15   37 1   
    38   15   38 1   
    39   16   39 1   
    40   16   40 1   
    41   17   21 1   
    42   17   41 1   
    43   17   42 1   
    44   18   20 1   
    45   18   21 1   
    46   18   43 1   
    47   18   44 1   
    48   19   21 1   
    49   19   23 1   
    50   19   45 1   
    51   19   46 1   
    52   20   47 1   
    53   21   48 1   
    54   22   50 1   
    55   23   53 1   
    56   24   49 1   
@<TRIPOS>SUBSTRUCTURE
     1 H39         1 TEMP              0 ****  ****    0 ROOT
