@<TRIPOS>MOLECULE
H3K
   45    47     1     0     0
SMALL
bcc


@<TRIPOS>ATOM
      1 N6          3.8260   -1.8390   -0.3110 n1        1 H3K     -0.160800
      2 C17         3.4200   -1.1830    0.5590 cg        1 H3K      0.056800
      3 C15         2.9220   -0.3810    1.6250 ca        1 H3K      0.517000
      4 N4          3.1630    0.9480    1.6530 nb        1 H3K     -0.548000
      5 C14         2.6620    1.6550    2.6900 ca        1 H3K      0.388900
      6 C16         2.1510   -1.0260    2.6690 ca        1 H3K      0.372900
      7 N5          1.6560   -0.3370    3.6950 nb        1 H3K     -0.684000
      8 C13         1.9200    1.0110    3.7160 ca        1 H3K      0.287900
      9 N3          1.4030    1.7820    4.8630 n4        1 H3K     -0.651500
     10 C12         0.0500    1.3060    5.2620 c         1 H3K      0.519100
     11 O2         -0.9730    1.8400    4.8700 o         1 H3K     -0.309100
     12 N2          0.0000    0.1330    6.1980 n4        1 H3K     -0.488200
     13 C11         0.0440    0.5780    7.5990 ca        1 H3K     -0.091400
     14 C10        -1.1410    0.4670    8.3500 ca        1 H3K     -0.061000
     15 C9         -1.1500    0.8210    9.7010 ca        1 H3K     -0.013900
     16 BR         -2.7170    0.6680   10.6930 br        1 H3K      0.061900
     17 C8          0.0310    1.2840   10.2940 ca        1 H3K     -0.014000
     18 C7          1.2020    1.4050    9.5470 ca        1 H3K     -0.118000
     19 C6          1.2480    1.0710    8.1830 ca        1 H3K      0.104600
     20 N1          2.4280    1.2410    7.3780 nh        1 H3K     -0.670000
     21 C4          3.2580    2.3920    7.7890 c3        1 H3K      0.127800
     22 C3          4.4390    2.6110    6.8450 c3        1 H3K     -0.082400
     23 C2          5.2820    1.3610    6.7110 c3        1 H3K     -0.132400
     24 C5          3.2410    0.0170    7.3040 c3        1 H3K      0.094800
     25 C1          4.4100    0.1840    6.3010 c3        1 H3K      0.153100
     26 O1          5.0950   -1.0380    6.1990 oh        1 H3K     -0.568800
     27 H16         2.8770    2.7430    2.6710 h4        1 H3K      0.083100
     28 H17         1.9490   -2.1180    2.6390 h4        1 H3K      0.098100
     29 H15         2.0740    1.6770    5.7300 hn        1 H3K      0.520300
     30 H14         0.7730   -0.5330    6.0190 hn        1 H3K      0.505300
     31 H13        -2.0750    0.0930    7.8880 ha        1 H3K      0.184000
     32 H12         0.0460    1.5580   11.3680 ha        1 H3K      0.207000
     33 H11         2.1100    1.7720   10.0620 ha        1 H3K      0.188000
     34 H7          3.6740    2.2400    8.8280 h1        1 H3K      0.078700
     35 H8          2.6030    3.3060    7.8070 h1        1 H3K      0.078700
     36 H6          4.0750    2.9390    5.8360 hc        1 H3K      0.067200
     37 H5          5.0630    3.4480    7.2620 hc        1 H3K      0.067200
     38 H4          5.7930    1.1350    7.6860 hc        1 H3K      0.091200
     39 H3          6.0880    1.5160    5.9450 hc        1 H3K      0.091200
     40 H10         3.6700   -0.2510    8.3120 h1        1 H3K      0.072200
     41 H9          2.5990   -0.8460    6.9780 h1        1 H3K      0.072200
     42 H1          3.9960    0.3530    5.2640 h1        1 H3K      0.040700
     43 H2          5.7330   -1.1000    6.9250 ho        1 H3K      0.435000
     44 H32         1.3300    2.7740    4.5880 hn        1 H3K      0.520300
     45 H22        -0.9000   -0.3560    6.0240 hn        1 H3K      0.505300
@<TRIPOS>BOND
     1    1    2 3   
     2    2    3 1   
     3    3    4 ar  
     4    3    6 ar  
     5    4    5 ar  
     6    5    8 ar  
     7    5   27 1   
     8    6    7 ar  
     9    6   28 1   
    10    7    8 ar  
    11    8    9 1   
    12    9   10 1   
    13    9   29 1   
    14    9   44 1   
    15   10   11 2   
    16   10   12 1   
    17   12   13 1   
    18   12   30 1   
    19   12   45 1   
    20   13   14 ar  
    21   13   19 ar  
    22   14   15 ar  
    23   14   31 1   
    24   15   16 1   
    25   15   17 ar  
    26   17   18 ar  
    27   17   32 1   
    28   18   19 ar  
    29   18   33 1   
    30   19   20 1   
    31   20   21 1   
    32   20   24 1   
    33   21   22 1   
    34   21   34 1   
    35   21   35 1   
    36   22   23 1   
    37   22   36 1   
    38   22   37 1   
    39   23   25 1   
    40   23   38 1   
    41   23   39 1   
    42   24   25 1   
    43   24   40 1   
    44   24   41 1   
    45   25   26 1   
    46   25   42 1   
    47   26   43 1   
@<TRIPOS>SUBSTRUCTURE
     1 H3K         1 TEMP              0 ****  ****    0 ROOT
