@<TRIPOS>MOLECULE
H3K
   43    45     1     0     0
SMALL
bcc


@<TRIPOS>ATOM
      1 N6         -8.6650   -1.1430    0.5220 n1        1 H3K     -0.339800
      2 C17        -7.5130   -1.2200    0.3950 cg        1 H3K      0.140800
      3 C15        -6.0970   -1.2970    0.2440 ca        1 H3K      0.325000
      4 N4         -5.5270   -2.4540   -0.1970 nb        1 H3K     -0.567000
      5 C14        -4.1990   -2.4600   -0.3260 ca        1 H3K      0.238900
      6 C16        -5.3010   -0.1610    0.5620 ca        1 H3K      0.366900
      7 N5         -3.9640   -0.1530    0.4440 nb        1 H3K     -0.651000
      8 C13        -3.3810   -1.3030   -0.0210 ca        1 H3K      0.464900
      9 N3         -2.0020   -1.4000   -0.2090 n         1 H3K     -0.562400
     10 C12        -1.1310   -0.2730   -0.2520 c         1 H3K      0.780100
     11 O2         -1.5100    0.8030   -0.7480 o         1 H3K     -0.553100
     12 N2          0.1570   -0.4530    0.2920 n         1 H3K     -0.452100
     13 C11         1.2180    0.4310    0.0070 ca        1 H3K      0.075600
     14 C10         1.0080    1.8260   -0.0000 ca        1 H3K     -0.106000
     15 C9          2.0700    2.7040   -0.2060 ca        1 H3K     -0.008900
     16 BR          1.7610    4.5510   -0.2100 br        1 H3K     -0.074100
     17 C8          3.3620    2.2160   -0.4030 ca        1 H3K     -0.114000
     18 C7          3.5870    0.8450   -0.4030 ca        1 H3K     -0.134000
     19 C6          2.5390   -0.0720   -0.2120 ca        1 H3K      0.054600
     20 N1          2.7570   -1.4940   -0.2270 nh        1 H3K     -0.637000
     21 C4          3.1790   -1.9710   -1.5420 c3        1 H3K      0.167800
     22 C3          3.3660   -3.4860   -1.5860 c3        1 H3K     -0.075400
     23 C2          4.3080   -3.9540   -0.5010 c3        1 H3K     -0.118400
     24 C5          3.6410   -1.9250    0.8520 c3        1 H3K      0.167800
     25 C1          3.8370   -3.4540    0.8600 c3        1 H3K      0.141100
     26 O1          4.8110   -3.6970    1.8670 oh        1 H3K     -0.597800
     27 H16        -3.7520   -3.4020   -0.6870 h4        1 H3K      0.039100
     28 H17        -5.7570    0.7760    0.9310 h4        1 H3K      0.051100
     29 H15        -1.6200   -2.3150   -0.1280 hn        1 H3K      0.327500
     30 H14         0.4350   -1.3770    0.5460 hn        1 H3K      0.327500
     31 H13        -0.0140    2.2220    0.1480 ha        1 H3K      0.185000
     32 H12         4.2060    2.9050   -0.5600 ha        1 H3K      0.151000
     33 H11         4.6130    0.4720   -0.5610 ha        1 H3K      0.142000
     34 H7          2.3810   -1.6760   -2.2790 h1        1 H3K      0.042700
     35 H8          4.1440   -1.4810   -1.8680 h1        1 H3K      0.042700
     36 H6          2.3740   -3.9950   -1.4710 hc        1 H3K      0.050700
     37 H5          3.7750   -3.7600   -2.5920 hc        1 H3K      0.050700
     38 H4          4.3620   -5.0730   -0.4940 hc        1 H3K      0.051200
     39 H3          5.3430   -3.5670   -0.6940 hc        1 H3K      0.051200
     40 H10         4.6600   -1.4440    0.7900 h1        1 H3K      0.055700
     41 H9          3.1740   -1.6170    1.8280 h1        1 H3K      0.055700
     42 H1          2.8750   -3.9660    1.1440 h1        1 H3K      0.039700
     43 H2          5.0010   -4.6420    1.8450 ho        1 H3K      0.405000
@<TRIPOS>BOND
     1    1    2 3   
     2    2    3 1   
     3    3    4 ar  
     4    3    6 ar  
     5    4    5 ar  
     6    5    8 ar  
     7    5   27 1   
     8    6    7 ar  
     9    6   28 1   
    10    7    8 ar  
    11    8    9 1   
    12    9   10 1   
    13    9   29 1   
    14   10   11 2   
    15   10   12 1   
    16   12   13 1   
    17   12   30 1   
    18   13   14 ar  
    19   13   19 ar  
    20   14   15 ar  
    21   14   31 1   
    22   15   16 1   
    23   15   17 ar  
    24   17   18 ar  
    25   17   32 1   
    26   18   19 ar  
    27   18   33 1   
    28   19   20 1   
    29   20   21 1   
    30   20   24 1   
    31   21   22 1   
    32   21   34 1   
    33   21   35 1   
    34   22   23 1   
    35   22   36 1   
    36   22   37 1   
    37   23   25 1   
    38   23   38 1   
    39   23   39 1   
    40   24   25 1   
    41   24   40 1   
    42   24   41 1   
    43   25   26 1   
    44   25   42 1   
    45   26   43 1   
@<TRIPOS>SUBSTRUCTURE
     1 H3K         1 TEMP              0 ****  ****    0 ROOT
