@<TRIPOS>MOLECULE
H3K
   43    45     1     0     0
SMALL
bcc


@<TRIPOS>ATOM
      1 N6         -0.3700   -0.7840   -2.5760 n1        1 H3K     -0.338800
      2 C17        -0.0110   -0.5030   -1.5070 cg        1 H3K      0.140800
      3 C15         0.4190   -0.1690   -0.1890 ca        1 H3K      0.325000
      4 N4          1.4010    0.7610   -0.0150 nb        1 H3K     -0.566000
      5 C14         1.7520    1.0360    1.2430 ca        1 H3K      0.238900
      6 C16        -0.1840   -0.8180    0.9240 ca        1 H3K      0.366900
      7 N5          0.1620   -0.5570    2.1940 nb        1 H3K     -0.651000
      8 C13         1.1320    0.3930    2.3840 ca        1 H3K      0.464900
      9 N3          1.5540    0.7610    3.6620 ns        1 H3K     -0.564400
     10 C12         0.8260    0.4590    4.8490 c         1 H3K      0.780100
     11 O2         -0.4170    0.4440    4.8450 o         1 H3K     -0.553100
     12 N2          1.5920    0.1820    6.0010 ns        1 H3K     -0.452100
     13 C11         1.0380    0.2330    7.2970 ca        1 H3K      0.075600
     14 C10        -0.2420   -0.3040    7.5540 ca        1 H3K     -0.107000
     15 C9         -0.7610   -0.3190    8.8460 ca        1 H3K     -0.008900
     16 Br         -2.4620   -1.0390    9.1560 br        1 H3K     -0.073100
     17 C8         -0.0190    0.1950    9.9110 ca        1 H3K     -0.114000
     18 C7          1.2420    0.7290    9.6770 ca        1 H3K     -0.135000
     19 C6          1.7950    0.7700    8.3850 ca        1 H3K      0.052600
     20 N1          3.0960    1.3270    8.1310 nh        1 H3K     -0.633000
     21 C4          3.1320    2.7700    8.3660 c3        1 H3K      0.167800
     22 C3          4.4970    3.3820    8.0600 c3        1 H3K     -0.079400
     23 C2          5.6010    2.6770    8.8160 c3        1 H3K     -0.079400
     24 C5          4.1520    0.6080    8.8330 c3        1 H3K      0.130800
     25 C1          5.5530    1.1810    8.5340 c3        1 H3K      0.142100
     26 O1          6.5050    0.5700    9.3920 oh        1 H3K     -0.593800
     27 H16         2.5450    1.7930    1.3700 h4        1 H3K      0.040100
     28 H17        -0.9730   -1.5810    0.7870 h4        1 H3K      0.051100
     29 H15         2.4840    1.1060    3.7270 hn        1 H3K      0.328500
     30 H14         2.5760    0.3400    5.9570 hn        1 H3K      0.326500
     31 H13        -0.8400   -0.7060    6.7150 ha        1 H3K      0.186000
     32 H12        -0.4240    0.1840   10.9350 ha        1 H3K      0.151000
     33 H11         1.8160    1.1340   10.5270 ha        1 H3K      0.142000
     34 H7          2.8580    3.0190    9.4330 h1        1 H3K      0.042700
     35 H8          2.3580    3.2380    7.6960 h1        1 H3K      0.042700
     36 H6          4.4690    4.4640    8.3500 hc        1 H3K      0.050700
     37 H5          4.7000    3.3300    6.9580 hc        1 H3K      0.050700
     38 H4          5.4900    2.8460    9.9190 hc        1 H3K      0.059700
     39 H3          6.6010    3.0800    8.5140 hc        1 H3K      0.059700
     40 H10         4.1170   -0.4650    8.4930 h1        1 H3K      0.045200
     41 H9          4.0070    0.6180    9.9520 h1        1 H3K      0.045200
     42 H1          5.8270    0.9790    7.4610 h1        1 H3K      0.039700
     43 H2          6.4840   -0.3770    9.2050 ho        1 H3K      0.402000
@<TRIPOS>BOND
     1    1    2 3   
     2    2    3 1   
     3    3    4 ar  
     4    3    6 ar  
     5    4    5 ar  
     6    5    8 ar  
     7    5   27 1   
     8    6    7 ar  
     9    6   28 1   
    10    7    8 ar  
    11    8    9 1   
    12    9   10 1   
    13    9   29 1   
    14   10   11 2   
    15   10   12 1   
    16   12   13 1   
    17   12   30 1   
    18   13   14 ar  
    19   13   19 ar  
    20   14   15 ar  
    21   14   31 1   
    22   15   16 1   
    23   15   17 ar  
    24   17   18 ar  
    25   17   32 1   
    26   18   19 ar  
    27   18   33 1   
    28   19   20 1   
    29   20   21 1   
    30   20   24 1   
    31   21   22 1   
    32   21   34 1   
    33   21   35 1   
    34   22   23 1   
    35   22   36 1   
    36   22   37 1   
    37   23   25 1   
    38   23   38 1   
    39   23   39 1   
    40   24   25 1   
    41   24   40 1   
    42   24   41 1   
    43   25   26 1   
    44   25   42 1   
    45   26   43 1   
@<TRIPOS>SUBSTRUCTURE
     1 H3K         1 TEMP              0 ****  ****    0 ROOT
