@<TRIPOS>MOLECULE
H3K
   43    37     1     0     0
SMALL
bcc


@<TRIPOS>ATOM
      1 N6         -7.0610   -4.6530   -4.3980 n1        1 H3K     -0.070000
      2 C17        -6.3090   -4.0010   -3.8410 c1        1 H3K      0.022500
      3 C15        -5.3130   -3.1400   -3.1030 c1        1 H3K     -0.046000
      4 N4         -5.6330   -1.8810   -2.7670 n1        1 H3K     -0.040000
      5 C14        -4.7830   -1.1480   -2.0300 c1        1 H3K     -0.161000
      6 C16        -4.1100   -3.6810   -2.6890 c1        1 H3K     -0.033000
      7 N5         -3.2530   -2.9390   -1.9440 n1        1 H3K     -0.070000
      8 C13        -3.5660   -1.6970   -1.6120 c1        1 H3K      0.022500
      9 N3         -2.6530   -0.9110   -0.7960 n2        1 H3K     -0.330000
     10 C12        -1.2790   -1.2720   -0.7230 c2        1 H3K      0.407000
     11 O2         -0.8710   -2.2350   -1.3430 o         1 H3K     -0.315000
     12 N2         -0.3800   -0.5180    0.1050 n         1 H3K     -0.303000
     13 C11         1.0200   -0.9060    0.2020 c1        1 H3K      0.082000
     14 C10         1.3890   -2.2290   -0.0350 c1        1 H3K     -0.107000
     15 C9          2.7020   -2.6490    0.2250 c1        1 H3K     -0.149000
     16 BR          3.2390   -4.4300   -0.2230 br        1 H3K      0.066000
     17 C8          3.6350   -1.7480    0.7200 c2        1 H3K     -0.115000
     18 C7          3.2650   -0.4190    0.9590 c1        1 H3K     -0.136000
     19 C6          1.9570   -0.0000    0.7000 c1        1 H3K     -0.028000
     20 N1          1.5720    1.3880    0.9410 n3        1 H3K     -0.236000
     21 C4          2.1610    2.1850    0.0250 c3        1 H3K     -0.064000
     22 C3          1.9500    3.5580    0.2240 c3        1 H3K     -0.156000
     23 C2          2.2750    4.0180    1.5960 c3        1 H3K     -0.153000
     24 C5          1.8730    1.7390    2.3210 c3        1 H3K     -0.099000
     25 C1          1.5540    3.2500    2.6950 c3        1 H3K      0.033000
     26 O1          0.2490    3.4830    2.6560 oh        1 H3K     -0.321000
     27 H16        -5.0170   -0.2220   -1.7820 ha        1 H3K      0.178000
     28 H17        -3.8730   -4.6120   -2.9380 ha        1 H3K      0.187000
     29 H15        -2.9730   -0.2120   -0.2890 hn        1 H3K      0.245000
     30 H14        -0.7060    0.2130    0.6190 hn        1 H3K      0.242000
     31 H13         0.7110   -2.8850   -0.3640 ha        1 H3K      0.187000
     32 H12         4.5540   -2.0430    0.9020 ha        1 H3K      0.150000
     33 H11         3.9190    0.2130    1.3070 ha        1 H3K      0.139000
     34 H7          3.1210    2.0150    0.0410 h1        1 H3K      0.078500
     35 H8          1.8190    1.9460   -0.8560 h1        1 H3K      0.078500
     36 H6          2.4990    4.0480   -0.4040 hc        1 H3K      0.095500
     37 H5          1.0030    3.7600    0.0390 hc        1 H3K      0.095500
     38 H4          2.0340    4.9680    1.6700 hc        1 H3K      0.094000
     39 H3          3.2640    3.9250    1.7390 hc        1 H3K      0.094000
     40 H10         2.8130    1.5740    2.4810 h1        1 H3K      0.081500
     41 H9          1.3450    1.1520    2.9140 h1        1 H3K      0.081500
     42 H1          1.9250    3.4760    3.5780 h1        1 H3K      0.078000
     43 H2         -0.0680    3.5190    3.4770 ho        1 H3K      0.199000
@<TRIPOS>BOND
     1    1    2 1   
     2    3    6 1   
     3    4    5 1   
     4    5   27 1   
     5    6   28 1   
     6    7    8 1   
     7    9   10 1   
     8    9   29 1   
     9   10   11 1   
    10   10   12 1   
    11   12   13 1   
    12   12   30 1   
    13   13   19 1   
    14   14   15 1   
    15   14   31 1   
    16   15   17 1   
    17   17   18 1   
    18   17   32 1   
    19   18   33 1   
    20   19   20 1   
    21   20   21 1   
    22   20   24 1   
    23   21   22 1   
    24   21   34 1   
    25   21   35 1   
    26   22   23 1   
    27   22   36 1   
    28   22   37 1   
    29   23   25 1   
    30   23   38 1   
    31   23   39 1   
    32   24   25 1   
    33   24   40 1   
    34   24   41 1   
    35   25   26 1   
    36   25   42 1   
    37   26   43 1   
@<TRIPOS>SUBSTRUCTURE
     1 H3K         1 TEMP              0 ****  ****    0 ROOT
