@<TRIPOS>MOLECULE
H3K
   43    45     1     0     0
SMALL
bcc


@<TRIPOS>ATOM
      1 N6         -0.3780   -0.7780   -2.5750 n1        1 H3K     -0.338800
      2 C17        -0.0170   -0.4980   -1.5060 cg        1 H3K      0.140800
      3 C15         0.4150   -0.1670   -0.1880 ca        1 H3K      0.325000
      4 N4          1.4020    0.7570   -0.0130 nb        1 H3K     -0.566000
      5 C14         1.7540    1.0310    1.2440 ca        1 H3K      0.238900
      6 C16        -0.1930   -0.8120    0.9250 ca        1 H3K      0.366900
      7 N5          0.1550   -0.5520    2.1960 nb        1 H3K     -0.651000
      8 C13         1.1300    0.3910    2.3850 ca        1 H3K      0.464900
      9 N3          1.5540    0.7580    3.6630 n         1 H3K     -0.564400
     10 C12         0.8240    0.4610    4.8510 c         1 H3K      0.780100
     11 O2         -0.4190    0.4520    4.8460 o         1 H3K     -0.553100
     12 N2          1.5880    0.1810    6.0030 n         1 H3K     -0.452100
     13 C11         1.0340    0.2380    7.2990 ca        1 H3K      0.075600
     14 C10        -0.2480   -0.2920    7.5560 ca        1 H3K     -0.107000
     15 C9         -0.7680   -0.3010    8.8480 ca        1 H3K     -0.008900
     16 BR         -2.4720   -1.0120    9.1600 br        1 H3K     -0.073100
     17 C8         -0.0240    0.2120    9.9130 ca        1 H3K     -0.114000
     18 C7          1.2400    0.7390    9.6780 ca        1 H3K     -0.135000
     19 C6          1.7930    0.7740    8.3860 ca        1 H3K      0.052600
     20 N1          3.0970    1.3250    8.1300 nh        1 H3K     -0.633000
     21 C4          3.1400    2.7680    8.3620 c3        1 H3K      0.167800
     22 C3          4.5080    3.3720    8.0540 c3        1 H3K     -0.079400
     23 C2          5.6080    2.6650    8.8130 c3        1 H3K     -0.079400
     24 C5          4.1500    0.6020    8.8350 c3        1 H3K      0.130800
     25 C1          5.5530    1.1680    8.5350 c3        1 H3K      0.142100
     26 O1          6.5020    0.5550    9.3950 oh        1 H3K     -0.593800
     27 H16         2.5510    1.7830    1.3710 h4        1 H3K      0.040100
     28 H17        -0.9860   -1.5700    0.7880 h4        1 H3K      0.051100
     29 H15         2.4860    1.0980    3.7280 hn        1 H3K      0.328500
     30 H14         2.5730    0.3340    5.9590 hn        1 H3K      0.326500
     31 H13        -0.8480   -0.6930    6.7180 ha        1 H3K      0.186000
     32 H12        -0.4290    0.2060   10.9370 ha        1 H3K      0.151000
     33 H11         1.8150    1.1440   10.5270 ha        1 H3K      0.142000
     34 H7          2.3680    3.2380    7.6900 h1        1 H3K      0.042700
     35 H8          2.8670    3.0210    9.4280 h1        1 H3K      0.042700
     36 H6          4.4850    4.4550    8.3410 hc        1 H3K      0.050700
     37 H5          4.7100    3.3170    6.9530 hc        1 H3K      0.050700
     38 H4          6.6100    3.0620    8.5090 hc        1 H3K      0.059700
     39 H3          5.4970    2.8380    9.9150 hc        1 H3K      0.059700
     40 H10         4.0030    0.6170    9.9550 h1        1 H3K      0.045200
     41 H9          4.1090   -0.4710    8.4990 h1        1 H3K      0.045200
     42 H1          5.8270    0.9620    7.4630 h1        1 H3K      0.039700
     43 H2          6.4770   -0.3920    9.2120 ho        1 H3K      0.402000
@<TRIPOS>BOND
     1    1    2 3   
     2    2    3 1   
     3    3    4 ar  
     4    3    6 ar  
     5    4    5 ar  
     6    5    8 ar  
     7    5   27 1   
     8    6    7 ar  
     9    6   28 1   
    10    7    8 ar  
    11    8    9 1   
    12    9   10 1   
    13    9   29 1   
    14   10   11 2   
    15   10   12 1   
    16   12   13 1   
    17   12   30 1   
    18   13   14 ar  
    19   13   19 ar  
    20   14   15 ar  
    21   14   31 1   
    22   15   16 1   
    23   15   17 ar  
    24   17   18 ar  
    25   17   32 1   
    26   18   19 ar  
    27   18   33 1   
    28   19   20 1   
    29   20   21 1   
    30   20   24 1   
    31   21   22 1   
    32   21   34 1   
    33   21   35 1   
    34   22   23 1   
    35   22   36 1   
    36   22   37 1   
    37   23   25 1   
    38   23   38 1   
    39   23   39 1   
    40   24   25 1   
    41   24   40 1   
    42   24   41 1   
    43   25   26 1   
    44   25   42 1   
    45   26   43 1   
@<TRIPOS>SUBSTRUCTURE
     1 H3K         1 TEMP              0 ****  ****    0 ROOT
