@<TRIPOS>MOLECULE
H3M
   14    14     1     0     0
SMALL
bcc


@<TRIPOS>ATOM
      1 O1          0.0880    0.0850   -0.2030 o         1 H3M     -0.543500
      2 C1          1.2850    0.0120    0.0230 c         1 H3M      0.714800
      3 C4          2.1170   -0.0530    1.2640 ce        1 H3M     -0.153400
      4 C5          1.5130   -0.0350    2.5960 c3        1 H3M     -0.047900
      5 C3          3.4150   -0.1200    0.8960 c2        1 H3M     -0.145200
      6 C2          3.4990   -0.1250   -0.6230 c3        1 H3M      0.350100
      7 O2          2.1300   -0.0400   -1.0880 os        1 H3M     -0.460900
      8 O3          4.1170    1.0420   -1.0860 oh        1 H3M     -0.593800
      9 H2          0.9220    0.9060    2.7380 hc        1 H3M      0.061033
     10 H3          2.2950   -0.0920    3.3930 hc        1 H3M      0.061033
     11 H4          0.8130   -0.9020    2.7150 hc        1 H3M      0.061033
     12 H5          4.3120   -0.1530    1.5110 ha        1 H3M      0.175000
     13 H7          3.9540   -1.0530   -1.0580 h2        1 H3M      0.085700
     14 H8          3.8210    1.1830   -1.9980 ho        1 H3M      0.436000
@<TRIPOS>BOND
     1    1    2 2   
     2    2    3 1   
     3    2    7 1   
     4    3    4 1   
     5    3    5 2   
     6    4    9 1   
     7    4   10 1   
     8    4   11 1   
     9    5    6 1   
    10    5   12 1   
    11    6    7 1   
    12    6    8 1   
    13    6   13 1   
    14    8   14 1   
@<TRIPOS>SUBSTRUCTURE
     1 H3M         1 TEMP              0 ****  ****    0 ROOT
