@<TRIPOS>MOLECULE
H3M
   14    11     1     0     0
SMALL
bcc


@<TRIPOS>ATOM
      1 O1         -2.5610   -0.0900   -0.6620 o         1 H3M     -0.268000
      2 C1         -1.3450   -0.0900   -0.6620 c1        1 H3M      0.330000
      3 C4         -0.5110   -0.0900    0.4850 c1        1 H3M     -0.130000
      4 C5         -0.8440   -0.9820    1.6610 c2        1 H3M     -0.170000
      5 C3          0.7580    0.2630    0.2510 c1        1 H3M     -0.141000
      6 C2          1.0620    0.4980   -1.1050 c2        1 H3M      0.163000
      7 O2         -0.4520    0.4320   -1.7750 os        1 H3M     -0.299000
      8 O3          1.6660    1.6510   -1.2320 oh        1 H3M     -0.321000
      9 H2         -1.7770   -0.8510    1.9150 ha        1 H3M      0.100333
     10 H3         -0.7020   -1.9150    1.4120 ha        1 H3M      0.100333
     11 H4         -0.2660   -0.7550    2.4150 ha        1 H3M      0.100333
     12 H5          1.4460    0.2310    0.9430 ha        1 H3M      0.175000
     13 H7          1.6860   -0.1030   -1.5560 h5        1 H3M      0.125000
     14 H8          1.8400    1.8000   -2.0900 ho        1 H3M      0.235000
@<TRIPOS>BOND
     1    1    2 1   
     2    2    7 1   
     3    3    5 1   
     4    4    9 1   
     5    4   10 1   
     6    4   11 1   
     7    5   12 1   
     8    6    7 1   
     9    6    8 1   
    10    6   13 1   
    11    8   14 1   
@<TRIPOS>SUBSTRUCTURE
     1 H3M         1 TEMP              0 ****  ****    0 ROOT
