@<TRIPOS>MOLECULE
H3M
   14    14     1     0     0
SMALL
bcc


@<TRIPOS>ATOM
      1 O1         -1.3090    1.6370    0.5940 o         1 H3M     -0.543500
      2 C1         -0.6030    0.7170    0.2110 c         1 H3M      0.714800
      3 C4         -0.8230   -0.7400   -0.0420 ce        1 H3M     -0.153400
      4 C5         -2.1280   -1.3690    0.1700 c3        1 H3M     -0.047900
      5 C3          0.3440   -1.2740   -0.4600 c2        1 H3M     -0.145200
      6 C2          1.3960   -0.1770   -0.5270 c3        1 H3M      0.350100
      7 O2          0.7240    1.0300   -0.0920 os        1 H3M     -0.460900
      8 O3          2.4000   -0.3990    0.4220 oh        1 H3M     -0.593800
      9 H2         -2.9040   -0.8750   -0.4700 hc        1 H3M      0.061033
     10 H3         -2.0950   -2.4580   -0.0800 hc        1 H3M      0.061033
     11 H4         -2.4400   -1.2540    1.2400 hc        1 H3M      0.061033
     12 H5          0.5860   -2.3040   -0.7160 ha        1 H3M      0.175000
     13 H7          1.8080    0.0080   -1.5530 h2        1 H3M      0.085700
     14 H8          2.8100    0.4570    0.6130 ho        1 H3M      0.436000
@<TRIPOS>BOND
     1    1    2 2   
     2    2    3 1   
     3    2    7 1   
     4    3    4 1   
     5    3    5 2   
     6    4    9 1   
     7    4   10 1   
     8    4   11 1   
     9    5    6 1   
    10    5   12 1   
    11    6    7 1   
    12    6    8 1   
    13    6   13 1   
    14    8   14 1   
@<TRIPOS>SUBSTRUCTURE
     1 H3M         1 TEMP              0 ****  ****    0 ROOT
