@<TRIPOS>MOLECULE
H3M
   14    14     1     0     0
SMALL
bcc


@<TRIPOS>ATOM
      1 O1          0.0930    0.1090   -0.2150 o         1 H3M     -0.543500
      2 C1          1.2900    0.0280    0.0120 c         1 H3M      0.714800
      3 C4          2.1210   -0.0430    1.2530 ce        1 H3M     -0.153400
      4 C5          1.5160   -0.0240    2.5860 c3        1 H3M     -0.047900
      5 C3          3.4180   -0.1180    0.8860 c2        1 H3M     -0.145200
      6 C2          3.5040   -0.1220   -0.6330 c3        1 H3M      0.350100
      7 O2          2.1350   -0.0280   -1.0980 os        1 H3M     -0.460900
      8 O3          4.1280    1.0420   -1.0940 oh        1 H3M     -0.593800
      9 H2          0.8060   -0.8830    2.7010 hc        1 H3M      0.061033
     10 H3          2.2960   -0.0910    3.3830 hc        1 H3M      0.061033
     11 H4          0.9350    0.9230    2.7290 hc        1 H3M      0.061033
     12 H5          4.3150   -0.1580    1.5020 ha        1 H3M      0.175000
     13 H7          3.9530   -1.0530   -1.0690 h2        1 H3M      0.085700
     14 H8          3.8340    1.1850   -2.0060 ho        1 H3M      0.436000
@<TRIPOS>BOND
     1    1    2 2   
     2    2    3 1   
     3    2    7 1   
     4    3    4 1   
     5    3    5 2   
     6    4    9 1   
     7    4   10 1   
     8    4   11 1   
     9    5    6 1   
    10    5   12 1   
    11    6    7 1   
    12    6    8 1   
    13    6   13 1   
    14    8   14 1   
@<TRIPOS>SUBSTRUCTURE
     1 H3M         1 TEMP              0 ****  ****    0 ROOT
