@<TRIPOS>MOLECULE
H3P
   27    28     1     0     0
SMALL
bcc


@<TRIPOS>ATOM
      1 OAA         0.2460   -0.5950   -0.0240 oh        1 H3P     -0.479100
      2 CAP         1.5770   -0.2680   -0.0250 ca        1 H3P      0.150100
      3 CAL         2.3540   -0.2240    1.1470 ca        1 H3P     -0.069600
      4 CLAC        1.6830   -0.6280    2.6570 cl        1 H3P     -0.079400
      5 CAI         3.6940    0.1560    1.0830 ca        1 H3P     -0.074000
      6 CAN         4.2550    0.5060   -0.1440 ca        1 H3P     -0.016600
      7 CLAE        5.8830    0.9840   -0.1790 cl        1 H3P     -0.064400
      8 CAR         3.4840    0.4620   -1.3210 ca        1 H3P      0.066400
      9 CLAG        4.2050    0.9340   -2.7840 cl        1 H3P     -0.052400
     10 CAT         2.1440    0.0490   -1.2820 ca        1 H3P     -0.075300
     11 CAK         1.2940   -0.0040   -2.5090 c3        1 H3P      0.020200
     12 CAU         0.7700   -1.3620   -2.8440 ca        1 H3P     -0.075300
     13 CAS        -0.6040   -1.6390   -2.8970 ca        1 H3P      0.066400
     14 CLAH       -1.7480   -0.4220   -2.5890 cl        1 H3P     -0.052400
     15 CAO        -1.0630   -2.9280   -3.2220 ca        1 H3P     -0.016600
     16 CLAF       -2.7230   -3.2830   -3.2720 cl        1 H3P     -0.064400
     17 CAJ        -0.1600   -3.9490   -3.5130 ca        1 H3P     -0.074000
     18 CAM         1.2090   -3.6850   -3.4970 ca        1 H3P     -0.069600
     19 CLAD        2.2950   -4.9390   -3.8740 cl        1 H3P     -0.079400
     20 CAQ         1.6750   -2.3980   -3.1760 ca        1 H3P      0.150100
     21 OAB         3.0050   -2.0630   -3.1820 oh        1 H3P     -0.479100
     22 HOAA       -0.0180   -0.8150    0.8850 ho        1 H3P      0.435000
     23 HAI         4.3050    0.1870    2.0010 ha        1 H3P      0.167000
     24 HAK         0.4380    0.7130   -2.3530 hc        1 H3P      0.082700
     25 HAKA        1.8800    0.3570   -3.4000 hc        1 H3P      0.082700
     26 HAJ        -0.5250   -4.9600   -3.7610 ha        1 H3P      0.167000
     27 HOAB        3.5220   -2.8570   -3.3980 ho        1 H3P      0.435000
@<TRIPOS>BOND
     1    1    2 1   
     2    1   22 1   
     3    2    3 ar  
     4    2   10 ar  
     5    3    4 1   
     6    3    5 ar  
     7    5    6 ar  
     8    5   23 1   
     9    6    7 1   
    10    6    8 ar  
    11    8    9 1   
    12    8   10 ar  
    13   10   11 1   
    14   11   12 1   
    15   11   24 1   
    16   11   25 1   
    17   12   13 ar  
    18   12   20 ar  
    19   13   14 1   
    20   13   15 ar  
    21   15   16 1   
    22   15   17 ar  
    23   17   18 ar  
    24   17   26 1   
    25   18   19 1   
    26   18   20 ar  
    27   20   21 1   
    28   21   27 1   
@<TRIPOS>SUBSTRUCTURE
     1 H3P         1 TEMP              0 ****  ****    0 ROOT
