@<TRIPOS>MOLECULE
H3P
   27    28     1     0     0
SMALL
bcc


@<TRIPOS>ATOM
      1 OAA         0.2430   -0.5930   -0.0270 oh        1 H3P     -0.479100
      2 CAP         1.5750   -0.2670   -0.0250 ca        1 H3P      0.150100
      3 CAL         2.3490   -0.2230    1.1480 ca        1 H3P     -0.069600
      4 ClAC        1.6750   -0.6260    2.6570 cl        1 H3P     -0.079400
      5 CAI         3.6900    0.1570    1.0870 ca        1 H3P     -0.074000
      6 CAN         4.2530    0.5050   -0.1400 ca        1 H3P     -0.016600
      7 ClAE        5.8810    0.9830   -0.1720 cl        1 H3P     -0.064400
      8 CAR         3.4840    0.4610   -1.3180 ca        1 H3P      0.066400
      9 ClAG        4.2090    0.9320   -2.7800 cl        1 H3P     -0.052400
     10 CAT         2.1440    0.0490   -1.2810 ca        1 H3P     -0.075300
     11 CAK         1.2960   -0.0040   -2.5100 c3        1 H3P      0.020200
     12 CAU         0.7720   -1.3620   -2.8450 ca        1 H3P     -0.075300
     13 CAS        -0.6020   -1.6380   -2.9010 ca        1 H3P      0.066400
     14 ClAH       -1.7460   -0.4200   -2.5960 cl        1 H3P     -0.052400
     15 CAO        -1.0610   -2.9270   -3.2260 ca        1 H3P     -0.016600
     16 ClAF       -2.7210   -3.2810   -3.2800 cl        1 H3P     -0.064400
     17 CAJ        -0.1580   -3.9490   -3.5150 ca        1 H3P     -0.074000
     18 CAM         1.2110   -3.6860   -3.4970 ca        1 H3P     -0.069600
     19 ClAD        2.2970   -4.9410   -3.8710 cl        1 H3P     -0.079400
     20 CAQ         1.6770   -2.3980   -3.1750 ca        1 H3P      0.150100
     21 OAB         3.0070   -2.0650   -3.1780 oh        1 H3P     -0.479100
     22 HOAA       -0.0230   -0.8120    0.8820 ho        1 H3P      0.435000
     23 HAI         4.2980    0.1870    2.0050 ha        1 H3P      0.167000
     24 HAK         0.4410    0.7130   -2.3570 hc        1 H3P      0.082700
     25 HAKA        1.8840    0.3560   -3.4010 hc        1 H3P      0.082700
     26 HAJ        -0.5230   -4.9590   -3.7630 ha        1 H3P      0.167000
     27 HOAB        3.5250   -2.8590   -3.3930 ho        1 H3P      0.435000
@<TRIPOS>BOND
     1    1    2 1   
     2    1   22 1   
     3    2    3 ar  
     4    2   10 ar  
     5    3    4 1   
     6    3    5 ar  
     7    5    6 ar  
     8    5   23 1   
     9    6    7 1   
    10    6    8 ar  
    11    8    9 1   
    12    8   10 ar  
    13   10   11 1   
    14   11   12 1   
    15   11   24 1   
    16   11   25 1   
    17   12   13 ar  
    18   12   20 ar  
    19   13   14 1   
    20   13   15 ar  
    21   15   16 1   
    22   15   17 ar  
    23   17   18 ar  
    24   17   26 1   
    25   18   19 1   
    26   18   20 ar  
    27   20   21 1   
    28   21   27 1   
@<TRIPOS>SUBSTRUCTURE
     1 H3P         1 TEMP              0 ****  ****    0 ROOT
