@<TRIPOS>MOLECULE
H3P
   27    24     1     0     0
SMALL
bcc


@<TRIPOS>ATOM
      1 OAA         2.1770    2.6330   -0.3660 oh        1 H3P     -0.240000
      2 CAP         1.7220    1.8320    0.6970 c2        1 H3P      0.106000
      3 CAL         2.4230    1.8050    1.8930 c1        1 H3P     -0.146000
      4 CLAC        3.8820    2.7430    2.0700 cl        1 H3P     -0.001000
      5 CAI         1.9540    1.0470    2.9540 c2        1 H3P     -0.075000
      6 CAN         0.7830    0.3160    2.8200 c1        1 H3P     -0.091000
      7 CLAE        0.1870   -0.6280    4.1580 cl        1 H3P      0.017000
      8 CAR         0.0820    0.3440    1.6240 c1        1 H3P     -0.022000
      9 CLAG       -1.4190   -0.5310    1.4740 cl        1 H3P      0.028000
     10 CAT         0.5520    1.1020    0.5630 c2        1 H3P     -0.070000
     11 CAK        -0.2270    1.1530   -0.7340 c3        1 H3P     -0.079000
     12 CAU        -0.7220   -0.2350   -1.0800 c2        1 H3P     -0.070000
     13 CAS         0.1070   -1.3310   -0.9000 c2        1 H3P     -0.022000
     14 CLAH        1.7200   -1.1110   -0.2750 cl        1 H3P      0.028000
     15 CAO        -0.3310   -2.5970   -1.2580 c1        1 H3P     -0.091000
     16 CLAF        0.7340   -3.9680   -1.0850 cl        1 H3P      0.017000
     17 CAJ        -1.5970   -2.7660   -1.7950 c1        1 H3P     -0.075000
     18 CAM        -2.4260   -1.6700   -1.9750 c1        1 H3P     -0.146000
     19 CLAD       -4.0060   -1.8790   -2.6820 cl        1 H3P     -0.001000
     20 CAQ        -1.9890   -0.4050   -1.6170 c2        1 H3P      0.106000
     21 OAB        -2.8100    0.7140   -1.8490 oh        1 H3P     -0.240000
     22 HOAA        2.9490    2.3130   -0.6690 ho        1 H3P      0.234000
     23 HAI         2.4470    1.0280    3.7960 ha        1 H3P      0.167000
     24 HAK         0.3530    1.4800   -1.4500 hc        1 H3P      0.132000
     25 HAKA       -0.9910    1.7550   -0.6320 hc        1 H3P      0.132000
     26 HAJ        -1.9050   -3.6580   -2.0470 ha        1 H3P      0.167000
     27 HOAB       -3.6490    0.5150   -1.6350 ho        1 H3P      0.234000
@<TRIPOS>BOND
     1    1    2 1   
     2    1   22 1   
     3    2    3 1   
     4    2   10 1   
     5    3    5 1   
     6    5    6 1   
     7    5   23 1   
     8    6    7 1   
     9    8    9 1   
    10    8   10 1   
    11   10   11 1   
    12   11   12 1   
    13   11   24 1   
    14   11   25 1   
    15   12   13 1   
    16   12   20 1   
    17   13   14 1   
    18   13   15 1   
    19   15   16 1   
    20   17   18 1   
    21   17   26 1   
    22   18   20 1   
    23   20   21 1   
    24   21   27 1   
@<TRIPOS>SUBSTRUCTURE
     1 H3P         1 TEMP              0 ****  ****    0 ROOT
