@<TRIPOS>MOLECULE
H3P
   27    28     1     0     0
SMALL
bcc


@<TRIPOS>ATOM
      1 OAA        -0.3240   -2.1960    0.0210 oh        1 H3P     -0.479100
      2 CAP        -1.3730   -1.3140    0.0290 ca        1 H3P      0.150100
      3 CAL        -2.5320   -1.5110    0.8000 ca        1 H3P     -0.069600
      4 CLAC       -2.6820   -2.8610    1.8250 cl        1 H3P     -0.079400
      5 CAI        -3.5820   -0.5960    0.7320 ca        1 H3P     -0.074000
      6 CAN        -3.4820    0.5070   -0.1150 ca        1 H3P     -0.016600
      7 CLAE       -4.7890    1.5880   -0.1880 cl        1 H3P     -0.064400
      8 CAR        -2.3240    0.7120   -0.8880 ca        1 H3P      0.066400
      9 CLAG       -2.2690    2.0510   -1.9310 cl        1 H3P     -0.052400
     10 CAT        -1.2440   -0.1800   -0.8070 ca        1 H3P     -0.075300
     11 CAK        -0.0020    0.0030   -1.6170 c3        1 H3P      0.020200
     12 CAU         1.2430    0.1840   -0.8130 ca        1 H3P     -0.075300
     13 CAS         2.3220   -0.7080   -0.9000 ca        1 H3P      0.066400
     14 CLAH        2.2630   -2.0440   -1.9460 cl        1 H3P     -0.052400
     15 CAO         3.4840   -0.5040   -0.1320 ca        1 H3P     -0.016600
     16 CLAF        4.7910   -1.5850   -0.2130 cl        1 H3P     -0.064400
     17 CAJ         3.5880    0.5980    0.7160 ca        1 H3P     -0.074000
     18 CAM         2.5390    1.5120    0.7910 ca        1 H3P     -0.069600
     19 CLAD        2.6930    2.8610    1.8180 cl        1 H3P     -0.079400
     20 CAQ         1.3760    1.3160    0.0250 ca        1 H3P      0.150100
     21 OAB         0.3270    2.1990    0.0230 oh        1 H3P     -0.479100
     22 HOAA       -0.5180   -2.9130    0.6470 ho        1 H3P      0.435000
     23 HAI        -4.4890   -0.7480    1.3400 ha        1 H3P      0.167000
     24 HAK         0.0960   -0.8990   -2.2840 hc        1 H3P      0.082700
     25 HAKA       -0.1040    0.9060   -2.2820 hc        1 H3P      0.082700
     26 HAJ         4.4980    0.7490    1.3200 ha        1 H3P      0.167000
     27 HOAB        0.5240    2.9150    0.6500 ho        1 H3P      0.435000
@<TRIPOS>BOND
     1    1    2 1   
     2    1   22 1   
     3    2    3 ar  
     4    2   10 ar  
     5    3    4 1   
     6    3    5 ar  
     7    5    6 ar  
     8    5   23 1   
     9    6    7 1   
    10    6    8 ar  
    11    8    9 1   
    12    8   10 ar  
    13   10   11 1   
    14   11   12 1   
    15   11   24 1   
    16   11   25 1   
    17   12   13 ar  
    18   12   20 ar  
    19   13   14 1   
    20   13   15 ar  
    21   15   16 1   
    22   15   17 ar  
    23   17   18 ar  
    24   17   26 1   
    25   18   19 1   
    26   18   20 ar  
    27   20   21 1   
    28   21   27 1   
@<TRIPOS>SUBSTRUCTURE
     1 H3P         1 TEMP              0 ****  ****    0 ROOT
