@<TRIPOS>MOLECULE
H3R
   22    23     1     0     0
SMALL
bcc


@<TRIPOS>ATOM
      1 C1         -2.7940    0.2470   -0.0350 cc        1 H3R      0.303600
      2 C2         -4.1150    0.8780    0.1320 c3        1 H3R     -0.119400
      3 C3         -1.5210    0.8960    0.1890 cc        1 H3R     -0.278300
      4 C7          1.6870   -1.1360    0.1970 ca        1 H3R     -0.117500
      5 C8          1.5130    1.2460   -0.2050 ca        1 H3R     -0.117500
      6 C9          3.0740   -1.0210    0.2500 ca        1 H3R     -0.126500
      7 C10         2.9000    1.3530   -0.1490 ca        1 H3R     -0.126500
      8 C11         3.6840    0.2210    0.0760 ca        1 H3R     -0.124000
      9 C12        -0.5510   -0.0870   -0.0880 cd        1 H3R     -0.060300
     10 N13        -1.2720   -1.2390   -0.4490 na        1 H3R     -0.009600
     11 C4          0.8940   -0.0030   -0.0340 ca        1 H3R     -0.017000
     12 N3         -2.5860   -1.0480   -0.4270 nd        1 H3R     -0.509800
     13 H21C       -4.6910    0.8520   -0.8270 hc        1 H3R      0.048700
     14 H22C       -4.7120    0.3450    0.9140 hc        1 H3R      0.048700
     15 H23C       -3.9860    1.9430    0.4440 hc        1 H3R      0.048700
     16 H3         -1.3590    1.9180    0.5120 ha        1 H3R      0.164000
     17 H9          3.6890   -1.9150    0.4320 ha        1 H3R      0.134500
     18 H8          0.8950    2.1380   -0.3870 ha        1 H3R      0.134500
     19 H10         3.3780    2.3350   -0.2850 ha        1 H3R      0.134500
     20 H11         4.7790    0.3080    0.1190 ha        1 H3R      0.135000
     21 H13        -0.8910   -2.1090   -0.7370 hn        1 H3R      0.320700
     22 H7          1.2220   -2.1210    0.3520 ha        1 H3R      0.134500
@<TRIPOS>BOND
     1    1    2 1   
     2    1    3 1   
     3    1   12 2   
     4    2   13 1   
     5    2   14 1   
     6    2   15 1   
     7    3    9 2   
     8    3   16 1   
     9    4    6 ar  
    10    4   11 ar  
    11    4   22 1   
    12    5    7 ar  
    13    5   11 ar  
    14    5   18 1   
    15    6    8 ar  
    16    6   17 1   
    17    7    8 ar  
    18    7   19 1   
    19    8   20 1   
    20    9   10 1   
    21    9   11 1   
    22   10   12 1   
    23   10   21 1   
@<TRIPOS>SUBSTRUCTURE
     1 H3R         1 TEMP              0 ****  ****    0 ROOT
