@<TRIPOS>MOLECULE
H3R
   22    23     1     0     0
SMALL
bcc


@<TRIPOS>ATOM
      1 C1         -0.0100    0.0500   -0.0260 cc        1 H3R      0.303600
      2 C2         -0.9500   -0.1300   -1.1470 c3        1 H3R     -0.119400
      3 C3          1.4130   -0.2050   -0.0760 cc        1 H3R     -0.278300
      4 C7          3.4740   -0.1640    3.1130 ca        1 H3R     -0.117500
      5 C8          4.3220    0.1580    0.8670 ca        1 H3R     -0.117500
      6 C9          4.7820   -0.2300    3.5910 ca        1 H3R     -0.126500
      7 C10         5.6250    0.0890    1.3520 ca        1 H3R     -0.126500
      8 C11         5.8590   -0.1030    2.7140 ca        1 H3R     -0.124000
      9 C12         1.8870    0.1000    1.2150 cd        1 H3R     -0.060300
     10 N13         0.7580    0.5050    1.9480 na        1 H3R     -0.009600
     11 C4          3.2330    0.0330    1.7450 ca        1 H3R     -0.017000
     12 N3         -0.3560    0.4850    1.2260 nd        1 H3R     -0.509800
     13 H21C       -1.4650    0.8330   -1.3920 hc        1 H3R      0.048700
     14 H22C       -0.3930   -0.4790   -2.0520 hc        1 H3R      0.048700
     15 H23C       -1.7300   -0.8900   -0.8910 hc        1 H3R      0.048700
     16 H3          1.9800   -0.5640   -0.9260 ha        1 H3R      0.164000
     17 H9          4.9630   -0.3860    4.6650 ha        1 H3R      0.134500
     18 H8          4.1380    0.3120   -0.2070 ha        1 H3R      0.134500
     19 H10         6.4730    0.1880    0.6570 ha        1 H3R      0.134500
     20 H11         6.8890   -0.1560    3.0950 ha        1 H3R      0.135000
     21 H13         0.7460    0.8210    2.8890 hn        1 H3R      0.320700
     22 H7          2.6370   -0.2820    3.8160 ha        1 H3R      0.134500
@<TRIPOS>BOND
     1    1    2 1   
     2    1    3 1   
     3    1   12 2   
     4    2   13 1   
     5    2   14 1   
     6    2   15 1   
     7    3    9 2   
     8    3   16 1   
     9    4    6 ar  
    10    4   11 ar  
    11    4   22 1   
    12    5    7 ar  
    13    5   11 ar  
    14    5   18 1   
    15    6    8 ar  
    16    6   17 1   
    17    7    8 ar  
    18    7   19 1   
    19    8   20 1   
    20    9   10 1   
    21    9   11 1   
    22   10   12 1   
    23   10   21 1   
@<TRIPOS>SUBSTRUCTURE
     1 H3R         1 TEMP              0 ****  ****    0 ROOT
