@<TRIPOS>MOLECULE
H3R
   22    16     1     0     0
SMALL
bcc


@<TRIPOS>ATOM
      1 C1         -2.3260    0.4620   -1.3670 c1        1 H3R     -0.077500
      2 C2         -3.1610    0.5250   -2.6280 c2        1 H3R     -0.143000
      3 C3         -0.9760    0.2660   -1.3080 c1        1 H3R     -0.213000
      4 C7          1.6810    0.9640    0.8910 c1        1 H3R     -0.125750
      5 C8          1.0740   -1.3570    0.8020 c1        1 H3R     -0.109000
      6 C9          2.8760    0.6280    1.5080 c1        1 H3R     -0.125750
      7 C10         2.2690   -1.6930    1.4200 c1        1 H3R     -0.125750
      8 C11         3.1700   -0.7000    1.7730 c1        1 H3R     -0.125750
      9 C12        -0.6150    0.2200    0.0070 c1        1 H3R     -0.077500
     10 N13        -1.7280    0.3860    0.7510 n2        1 H3R     -0.115500
     11 C4          0.7810   -0.0290    0.5380 c1        1 H3R     -0.017000
     12 N3         -2.7910    0.5360   -0.1030 n2        1 H3R     -0.115500
     13 H21C       -2.8950    1.3050   -3.1570 ha        1 H3R      0.088000
     14 H22C       -3.0200   -0.2900   -3.1540 ha        1 H3R      0.088000
     15 H23C       -4.1080    0.5990   -2.3890 ha        1 H3R      0.088000
     16 H3         -0.3750    0.1750   -2.0720 DU        1 H3R      0.217500
     17 H7          1.4740    1.9000    0.7040 ha        1 H3R      0.133250
     18 H9          3.5100    1.3270    1.7570 ha        1 H3R      0.133250
     19 H8          0.4400   -2.0560    0.5530 ha        1 H3R      0.140000
     20 H10         2.4760   -2.6290    1.6060 ha        1 H3R      0.133250
     21 H11         4.0110   -0.9370    2.2080 ha        1 H3R      0.133250
     22 H13        -1.7670    0.3960    1.6620 DU        1 H3R      0.217500
@<TRIPOS>BOND
     1    1    3 1   
     2    1   12 1   
     3    2   13 1   
     4    2   14 1   
     5    2   15 1   
     6    3    9 1   
     7    4    6 1   
     8    4   17 1   
     9    5   11 1   
    10    5   19 1   
    11    6   18 1   
    12    7    8 1   
    13    7   20 1   
    14    8   21 1   
    15    9   10 1   
    16   10   12 1   
@<TRIPOS>SUBSTRUCTURE
     1 H3R         1 TEMP              0 ****  ****    0 ROOT
