@<TRIPOS>MOLECULE
H44
   58    61     1     0     0
SMALL
bcc


@<TRIPOS>ATOM
      1 N26        -0.0860   -0.7060    0.4020 n2        1 H44     -0.810100
      2 C26         1.1540   -0.3670    0.2390 ce        1 H44      0.693800
      3 C25         2.1350   -0.2180    1.3330 cc        1 H44     -0.275000
      4 S21         3.7110   -0.7840    1.2910 ss        1 H44      0.095200
      5 C22         4.0550   -0.2680    2.8320 cc        1 H44     -0.162100
      6 C23         2.9720    0.3510    3.4250 cd        1 H44     -0.156000
      7 C24         1.8460    0.3800    2.5510 cd        1 H44     -0.119000
      8 N27         1.7240   -0.1140   -1.0460 nu        1 H44     -0.695600
      9 C31         0.9930   -0.2260   -2.2390 ca        1 H44      0.187600
     10 C36         1.1790    0.7350   -3.2640 ca        1 H44     -0.153500
     11 C35         0.5420    0.5960   -4.4900 ca        1 H44     -0.089500
     12 C34        -0.3010   -0.4920   -4.7350 ca        1 H44     -0.168300
     13 C33        -0.4920   -1.4460   -3.7280 ca        1 H44     -0.089500
     14 C32         0.1450   -1.3290   -2.5010 ca        1 H44     -0.153500
     15 C37        -1.0150   -0.6200   -6.0320 c3        1 H44     -0.038100
     16 C38        -0.2720   -1.6320   -6.9060 c3        1 H44      0.097800
     17 N18        -0.9430   -1.8570   -8.2200 ny        1 H44     -0.767000
     18 C17        -0.2010   -2.8430   -9.0730 c3        1 H44      0.170100
     19 C15        -0.9330   -3.1070  -10.3460 ca        1 H44     -0.149300
     20 C14        -0.4130   -2.6600  -11.5600 ca        1 H44     -0.127000
     21 C13        -1.0860   -2.9700  -12.7440 ca        1 H44     -0.084000
     22 C12        -2.2730   -3.6870  -12.7210 ca        1 H44     -0.143000
     23 C11        -2.8240   -4.1340  -11.4910 ca        1 H44      0.175600
     24 C16        -2.1190   -3.8460  -10.3010 ca        1 H44     -0.181000
     25 N07        -3.9890   -4.9020  -11.4730 nu        1 H44     -0.765600
     26 C06        -5.0000   -4.7390  -10.4710 ce        1 H44      0.725800
     27 N06        -5.1180   -3.7610   -9.6280 n2        1 H44     -0.807100
     28 C05        -5.9720   -5.8430  -10.4600 cc        1 H44     -0.229000
     29 S01        -5.6140   -7.4290  -10.8980 ss        1 H44      0.059200
     30 C02        -7.1560   -7.9720  -10.5920 cc        1 H44     -0.143100
     31 C03        -7.9840   -6.9640  -10.1430 cd        1 H44     -0.165000
     32 C04        -7.2940   -5.7170  -10.0600 cd        1 H44     -0.077000
     33 H1         -0.3410   -0.9020    1.3470 hn        1 H44      0.414400
     34 H2          5.0270   -0.4150    3.3030 h4        1 H44      0.183000
     35 H3          2.9590    0.7710    4.4340 ha        1 H44      0.166000
     36 H4          0.8860    0.8270    2.8210 ha        1 H44      0.162000
     37 H5          2.3600    0.6600   -1.0280 hn        1 H44      0.427800
     38 H6          1.8280    1.6090   -3.0980 ha        1 H44      0.156000
     39 H7          0.6930    1.3630   -5.2650 ha        1 H44      0.129000
     40 H8         -1.1640   -2.3000   -3.9030 ha        1 H44      0.129000
     41 H9         -0.0250   -2.1010   -1.7350 ha        1 H44      0.156000
     42 H10        -1.0620    0.3760   -6.5490 hc        1 H44      0.066700
     43 H11        -2.0690   -0.9640   -5.8510 hc        1 H44      0.066700
     44 H12         0.7760   -1.2690   -7.1080 hx        1 H44      0.107700
     45 H13        -0.2110   -2.6230   -6.3700 hx        1 H44      0.107700
     46 H14        -1.0200   -0.9660   -8.7220 hn        1 H44      0.449300
     47 H16        -0.0900   -3.7950   -8.4770 hx        1 H44      0.108700
     48 H17         0.8260   -2.4210   -9.2730 hx        1 H44      0.108700
     49 H18         0.5250   -2.0850  -11.5960 ha        1 H44      0.145000
     50 H19        -0.6690   -2.6360  -13.7090 ha        1 H44      0.160000
     51 H20        -2.7850   -3.9160  -13.6710 ha        1 H44      0.158000
     52 H21        -2.4700   -4.2490   -9.3380 ha        1 H44      0.144000
     53 H22        -4.3030   -5.2520  -12.3530 hn        1 H44      0.448800
     54 H23        -4.4580   -3.0170   -9.7130 hn        1 H44      0.373400
     55 H24        -7.4540   -9.0120  -10.7360 h4        1 H44      0.185000
     56 H25        -9.0370   -7.0840   -9.8760 ha        1 H44      0.169000
     57 H26        -7.7620   -4.7880   -9.7200 ha        1 H44      0.174000
     58 H182       -1.8980   -2.2060   -8.0630 hn        1 H44      0.449300
@<TRIPOS>BOND
     1    1    2 2   
     2    1   33 1   
     3    2    3 1   
     4    2    8 1   
     5    3    4 1   
     6    3    7 2   
     7    4    5 1   
     8    5    6 2   
     9    5   34 1   
    10    6    7 1   
    11    6   35 1   
    12    7   36 1   
    13    8    9 1   
    14    8   37 1   
    15    9   10 ar  
    16    9   14 ar  
    17   10   11 ar  
    18   10   38 1   
    19   11   12 ar  
    20   11   39 1   
    21   12   13 ar  
    22   12   15 1   
    23   13   14 ar  
    24   13   40 1   
    25   14   41 1   
    26   15   16 1   
    27   15   42 1   
    28   15   43 1   
    29   16   17 1   
    30   16   44 1   
    31   16   45 1   
    32   17   18 1   
    33   17   46 1   
    34   17   58 1   
    35   18   19 1   
    36   18   47 1   
    37   18   48 1   
    38   19   20 ar  
    39   19   24 ar  
    40   20   21 ar  
    41   20   49 1   
    42   21   22 ar  
    43   21   50 1   
    44   22   23 ar  
    45   22   51 1   
    46   23   24 ar  
    47   23   25 1   
    48   24   52 1   
    49   25   26 1   
    50   25   53 1   
    51   26   27 2   
    52   26   28 1   
    53   27   54 1   
    54   28   29 1   
    55   28   32 2   
    56   29   30 1   
    57   30   31 2   
    58   30   55 1   
    59   31   32 1   
    60   31   56 1   
    61   32   57 1   
@<TRIPOS>SUBSTRUCTURE
     1 H44         1 TEMP              0 ****  ****    0 ROOT
