@<TRIPOS>MOLECULE
H44
   60    63     1     0     0
SMALL
bcc


@<TRIPOS>ATOM
      1 N26         2.8410    1.8480   -1.0950 n2        1 H44     -0.733100
      2 C26         2.7950    0.9020   -0.2380 ce        1 H44      0.656800
      3 C25         2.8610    0.8840    1.2100 cc        1 H44     -0.400000
      4 S21         4.1240    1.5090    2.1120 ss        1 H44      0.228200
      5 C22         3.4150    1.1740    3.5560 cc        1 H44     -0.128100
      6 C23         2.1720    0.5690    3.4090 cd        1 H44     -0.144000
      7 C24         1.8440    0.3980    2.0440 cd        1 H44     -0.101000
      8 N27         2.6640   -0.5190   -0.7890 n4        1 H44     -0.628400
      9 C31         1.7880   -0.6460   -1.9550 ca        1 H44     -0.006400
     10 C36         2.2480   -0.2630   -3.2270 ca        1 H44     -0.077000
     11 C35         1.3930   -0.3670   -4.3240 ca        1 H44     -0.100000
     12 C34         0.0870   -0.8460   -4.1730 ca        1 H44     -0.076300
     13 C33        -0.3570   -1.2380   -2.9040 ca        1 H44     -0.100000
     14 C32         0.4800   -1.1390   -1.7940 ca        1 H44     -0.077000
     15 C37        -0.8530   -0.8520   -5.3300 c3        1 H44     -0.063100
     16 C38        -0.5300   -1.9980   -6.2910 c3        1 H44      0.104800
     17 N18        -1.4150   -1.9910   -7.5020 n4        1 H44     -0.767000
     18 C17        -1.0970   -3.1220   -8.4340 c3        1 H44      0.163100
     19 C15        -1.8260   -3.0280   -9.7380 ca        1 H44     -0.155300
     20 C14        -1.5630   -1.9650  -10.6120 ca        1 H44     -0.077000
     21 C13        -2.1660   -1.9250  -11.8680 ca        1 H44     -0.081000
     22 C12        -3.0180   -2.9510  -12.2770 ca        1 H44     -0.068000
     23 C11        -3.2750   -4.0280  -11.4060 ca        1 H44     -0.037400
     24 C16        -2.6860   -4.0600  -10.1270 ca        1 H44     -0.069000
     25 N07        -4.1330   -5.1220  -11.8470 n4        1 H44     -0.693400
     26 C06        -5.6520   -4.9190  -11.5560 ce        1 H44      0.700800
     27 N06        -6.1700   -3.8080  -11.2380 n2        1 H44     -0.706100
     28 C05        -6.3580   -6.1670  -11.7430 cc        1 H44     -0.370000
     29 S01        -7.8790   -6.2500  -12.4360 ss        1 H44      0.318200
     30 C02        -8.0080   -7.8650  -12.2520 cc        1 H44     -0.156100
     31 C03        -6.8910   -8.4260  -11.6280 cd        1 H44     -0.136000
     32 C04        -5.9310   -7.4400  -11.3250 cd        1 H44     -0.119000
     33 H1          2.9160    2.7870   -0.7580 hn        1 H44      0.490400
     34 H2          3.8750    1.4080    4.5240 h4        1 H44      0.218000
     35 H3          1.5210    0.2680    4.2380 ha        1 H44      0.194000
     36 H4          0.8980   -0.0280    1.7040 ha        1 H44      0.154000
     37 H5          3.6070   -0.8440   -1.0400 hn        1 H44      0.471800
     38 H6          3.2650    0.1430   -3.3720 ha        1 H44      0.176500
     39 H7          1.7570   -0.0400   -5.3120 ha        1 H44      0.162000
     40 H8         -1.3850   -1.6120   -2.7620 ha        1 H44      0.162000
     41 H9          0.0950   -1.4400   -0.8040 ha        1 H44      0.176500
     42 H10        -1.9100   -0.9510   -4.9570 hc        1 H44      0.086700
     43 H11        -0.7730    0.1370   -5.8620 hc        1 H44      0.086700
     44 H12         0.5400   -1.9140   -6.6420 hx        1 H44      0.114700
     45 H13        -0.6630   -2.9900   -5.7720 hx        1 H44      0.114700
     46 H14        -2.3960   -2.0570   -7.2040 hn        1 H44      0.455800
     47 H16         0.0180   -3.1010   -8.6300 hx        1 H44      0.123200
     48 H17        -1.3440   -4.0850   -7.8980 hx        1 H44      0.123200
     49 H18        -0.8570   -1.1650  -10.3320 ha        1 H44      0.160000
     50 H19        -1.9560   -1.0850  -12.5570 ha        1 H44      0.200000
     51 H20        -3.4630   -2.9080  -13.2890 ha        1 H44      0.188000
     52 H21        -2.8800   -4.9020   -9.4400 ha        1 H44      0.165000
     53 H22        -3.8420   -5.9970  -11.3920 hn        1 H44      0.469300
     54 H23        -5.6600   -2.9560  -11.1850 hn        1 H44      0.453400
     55 H24        -8.8760   -8.4530  -12.5760 h4        1 H44      0.220000
     56 H25        -6.7740   -9.4910  -11.3990 ha        1 H44      0.194000
     57 H26        -5.0000   -7.6680  -10.8010 ha        1 H44      0.144000
     58 H272        2.3050   -1.1040   -0.0180 hn        1 H44      0.471800
     59 H182       -1.3010   -1.0980   -7.9990 hn        1 H44      0.455800
     60 H072       -4.0340   -5.2490  -12.8640 hn        1 H44      0.469300
@<TRIPOS>BOND
     1    1    2 2   
     2    1   33 1   
     3    2    3 1   
     4    2    8 1   
     5    3    4 1   
     6    3    7 2   
     7    4    5 1   
     8    5    6 2   
     9    5   34 1   
    10    6    7 1   
    11    6   35 1   
    12    7   36 1   
    13    8    9 1   
    14    8   37 1   
    15    8   58 1   
    16    9   10 ar  
    17    9   14 ar  
    18   10   11 ar  
    19   10   38 1   
    20   11   12 ar  
    21   11   39 1   
    22   12   13 ar  
    23   12   15 1   
    24   13   14 ar  
    25   13   40 1   
    26   14   41 1   
    27   15   16 1   
    28   15   42 1   
    29   15   43 1   
    30   16   17 1   
    31   16   44 1   
    32   16   45 1   
    33   17   18 1   
    34   17   46 1   
    35   17   59 1   
    36   18   19 1   
    37   18   47 1   
    38   18   48 1   
    39   19   20 ar  
    40   19   24 ar  
    41   20   21 ar  
    42   20   49 1   
    43   21   22 ar  
    44   21   50 1   
    45   22   23 ar  
    46   22   51 1   
    47   23   24 ar  
    48   23   25 1   
    49   24   52 1   
    50   25   26 1   
    51   25   53 1   
    52   25   60 1   
    53   26   27 2   
    54   26   28 1   
    55   27   54 1   
    56   28   29 1   
    57   28   32 2   
    58   29   30 1   
    59   30   31 2   
    60   30   55 1   
    61   31   32 1   
    62   31   56 1   
    63   32   57 1   
@<TRIPOS>SUBSTRUCTURE
     1 H44         1 TEMP              0 ****  ****    0 ROOT
