@<TRIPOS>MOLECULE
H44
   58    61     1     0     0
SMALL
bcc


@<TRIPOS>ATOM
      1 N26        -0.1050   -0.6750    0.3950 n2        1 H44     -0.810100
      2 C26         1.1390   -0.3500    0.2370 ce        1 H44      0.693800
      3 C25         2.1150   -0.2050    1.3360 cc        1 H44     -0.275000
      4 S21         3.6850   -0.7880    1.3070 ss        1 H44      0.095200
      5 C22         4.0250   -0.2670    2.8470 cc        1 H44     -0.162100
      6 C23         2.9450    0.3670    3.4300 cd        1 H44     -0.156000
      7 C24         1.8250    0.4030    2.5490 cd        1 H44     -0.119000
      8 N27         1.7190   -0.1110   -1.0450 nh        1 H44     -0.695600
      9 C31         0.9950   -0.2230   -2.2420 ca        1 H44      0.187600
     10 C36         1.1950    0.7300   -3.2720 ca        1 H44     -0.153500
     11 C35         0.5650    0.5890   -4.5010 ca        1 H44     -0.089500
     12 C34        -0.2870   -0.4920   -4.7450 ca        1 H44     -0.168300
     13 C33        -0.4930   -1.4380   -3.7330 ca        1 H44     -0.089500
     14 C32         0.1380   -1.3190   -2.5030 ca        1 H44     -0.153500
     15 C37        -0.9940   -0.6210   -6.0450 c3        1 H44     -0.038100
     16 C38        -0.2580   -1.6490   -6.9060 c3        1 H44      0.097800
     17 N18        -0.9240   -1.8760   -8.2230 n4        1 H44     -0.767000
     18 C17        -0.1880   -2.8770   -9.0630 c3        1 H44      0.170100
     19 C15        -0.9160   -3.1440  -10.3390 ca        1 H44     -0.149300
     20 C14        -0.3830   -2.7140  -11.5530 ca        1 H44     -0.127000
     21 C13        -1.0530   -3.0260  -12.7390 ca        1 H44     -0.084000
     22 C12        -2.2490   -3.7280  -12.7170 ca        1 H44     -0.143000
     23 C11        -2.8140   -4.1560  -11.4860 ca        1 H44      0.175600
     24 C16        -2.1120   -3.8660  -10.2940 ca        1 H44     -0.181000
     25 N07        -3.9880   -4.9090  -11.4680 nh        1 H44     -0.765600
     26 C06        -5.0040   -4.7230  -10.4740 ce        1 H44      0.725800
     27 N06        -5.1130   -3.7360   -9.6410 n2        1 H44     -0.807100
     28 C05        -5.9900   -5.8130  -10.4590 cc        1 H44     -0.229000
     29 S01        -5.6510   -7.4080  -10.8810 ss        1 H44      0.059200
     30 C02        -7.2020   -7.9280  -10.5800 cc        1 H44     -0.143100
     31 C03        -8.0190   -6.9040  -10.1450 cd        1 H44     -0.165000
     32 C04        -7.3130   -5.6660  -10.0700 cd        1 H44     -0.077000
     33 H1         -0.3670   -0.8640    1.3390 hn        1 H44      0.414400
     34 H2          4.9930   -0.4210    3.3250 h4        1 H44      0.183000
     35 H3          2.9310    0.7930    4.4360 ha        1 H44      0.166000
     36 H4          0.8680    0.8610    2.8110 ha        1 H44      0.162000
     37 H5          2.3620    0.6570   -1.0280 hn        1 H44      0.427800
     38 H6          1.8520    1.5990   -3.1070 ha        1 H44      0.156000
     39 H7          0.7280    1.3510   -5.2800 ha        1 H44      0.129000
     40 H8         -1.1720   -2.2870   -3.9070 ha        1 H44      0.129000
     41 H9         -0.0440   -2.0850   -1.7330 ha        1 H44      0.156000
     42 H10        -2.0540   -0.9510   -5.8690 hc        1 H44      0.066700
     43 H11        -1.0260    0.3710   -6.5700 hc        1 H44      0.066700
     44 H12         0.7950   -1.2990   -7.1050 hx        1 H44      0.107700
     45 H13        -0.2120   -2.6360   -6.3620 hx        1 H44      0.107700
     46 H14        -1.8830   -2.2110   -8.0690 hn        1 H44      0.449300
     47 H16        -0.0920   -3.8260   -8.4590 hx        1 H44      0.108700
     48 H17         0.8450   -2.4690   -9.2610 hx        1 H44      0.108700
     49 H18         0.5620   -2.1520  -11.5890 ha        1 H44      0.145000
     50 H19        -0.6260   -2.7070  -13.7040 ha        1 H44      0.160000
     51 H20        -2.7590   -3.9590  -13.6670 ha        1 H44      0.158000
     52 H21        -2.4740   -4.2560   -9.3290 ha        1 H44      0.144000
     53 H22        -4.3020   -5.2620  -12.3470 hn        1 H44      0.448800
     54 H23        -4.4420   -3.0020   -9.7280 hn        1 H44      0.373400
     55 H24        -7.5130   -8.9650  -10.7160 h4        1 H44      0.185000
     56 H25        -9.0750   -7.0080   -9.8840 ha        1 H44      0.169000
     57 H26        -7.7700   -4.7280   -9.7410 ha        1 H44      0.174000
     58 H182       -0.9860   -0.9880   -8.7320 hn        1 H44      0.449300
@<TRIPOS>BOND
     1    1    2 2   
     2    1   33 1   
     3    2    3 1   
     4    2    8 1   
     5    3    4 1   
     6    3    7 2   
     7    4    5 1   
     8    5    6 2   
     9    5   34 1   
    10    6    7 1   
    11    6   35 1   
    12    7   36 1   
    13    8    9 1   
    14    8   37 1   
    15    9   10 ar  
    16    9   14 ar  
    17   10   11 ar  
    18   10   38 1   
    19   11   12 ar  
    20   11   39 1   
    21   12   13 ar  
    22   12   15 1   
    23   13   14 ar  
    24   13   40 1   
    25   14   41 1   
    26   15   16 1   
    27   15   42 1   
    28   15   43 1   
    29   16   17 1   
    30   16   44 1   
    31   16   45 1   
    32   17   18 1   
    33   17   46 1   
    34   17   58 1   
    35   18   19 1   
    36   18   47 1   
    37   18   48 1   
    38   19   20 ar  
    39   19   24 ar  
    40   20   21 ar  
    41   20   49 1   
    42   21   22 ar  
    43   21   50 1   
    44   22   23 ar  
    45   22   51 1   
    46   23   24 ar  
    47   23   25 1   
    48   24   52 1   
    49   25   26 1   
    50   25   53 1   
    51   26   27 2   
    52   26   28 1   
    53   27   54 1   
    54   28   29 1   
    55   28   32 2   
    56   29   30 1   
    57   30   31 2   
    58   30   55 1   
    59   31   32 1   
    60   31   56 1   
    61   32   57 1   
@<TRIPOS>SUBSTRUCTURE
     1 H44         1 TEMP              0 ****  ****    0 ROOT
