@<TRIPOS>MOLECULE
H45
   60    63     1     0     0
SMALL
bcc


@<TRIPOS>ATOM
      1 N26         1.3810    1.7460   -0.1670 n2        1 H45     -0.749100
      2 C26         1.6390    0.6000    0.3360 ce        1 H45      0.664800
      3 C25         1.2130   -0.0540    1.5570 cc        1 H45     -0.399000
      4 S21         1.3630    0.6050    3.0880 ss        1 H45      0.225200
      5 C22         0.6220   -0.6580    3.8330 cc        1 H45     -0.126100
      6 C23         0.2220   -1.6440    2.9360 cd        1 H45     -0.143000
      7 C24         0.5640   -1.2960    1.6090 cd        1 H45     -0.100000
      8 N27         2.5960   -0.2880   -0.4600 n4        1 H45     -0.626400
      9 C31         2.2050   -0.4700   -1.8590 ca        1 H45     -0.021400
     10 C36         2.4760    0.5360   -2.8060 ca        1 H45     -0.066000
     11 C35         2.0760    0.3560   -4.1350 ca        1 H45     -0.101300
     12 C34         1.4130   -0.8200   -4.5090 ca        1 H45     -0.084000
     13 C33         1.1590   -1.8170   -3.5700 ca        1 H45     -0.088000
     14 C32         1.5450   -1.6530   -2.2400 ca        1 H45     -0.078000
     15 C37         2.2720    1.4580   -5.1220 c3        1 H45     -0.058100
     16 C38         3.1380    0.9950   -6.2960 c3        1 H45      0.103800
     17 N18         3.1860    2.0030   -7.4050 n4        1 H45     -0.767000
     18 C17         3.9990    1.5140   -8.5670 c3        1 H45      0.162100
     19 C15         3.8840    2.3880   -9.7770 ca        1 H45     -0.155300
     20 C14         2.6460    2.5420  -10.4160 ca        1 H45     -0.079000
     21 C13         2.5540    3.2730  -11.5990 ca        1 H45     -0.081000
     22 C12         3.6940    3.8360  -12.1730 ca        1 H45     -0.068000
     23 C11         4.9420    3.6720  -11.5420 ca        1 H45     -0.036400
     24 C16         5.0350    2.9570  -10.3320 ca        1 H45     -0.069000
     25 N07         6.1420    4.2220  -12.1630 n4        1 H45     -0.693400
     26 C06         6.4700    5.6940  -11.7620 ce        1 H45      0.700800
     27 N06         5.6550    6.4680  -11.1780 n2        1 H45     -0.706100
     28 C05         7.8080    6.0320  -12.1910 cc        1 H45     -0.371000
     29 S01         8.2080    7.5340  -12.8120 ss        1 H45      0.318200
     30 C02         9.7880    7.1740  -12.9910 cc        1 H45     -0.156100
     31 C03        10.0980    5.8810  -12.5630 cd        1 H45     -0.136000
     32 C04         8.9490    5.2150  -12.0910 cd        1 H45     -0.119000
     33 H1          0.7470    2.3410    0.3260 hn        1 H45      0.487400
     34 H2          0.4610   -0.7120    4.9160 h4        1 H45      0.219000
     35 H3         -0.2970   -2.5680    3.2130 ha        1 H45      0.196000
     36 H4          0.3150   -1.9150    0.7440 ha        1 H45      0.153000
     37 H5          3.5360    0.1270   -0.4220 hn        1 H45      0.471800
     38 H6          2.9750    1.4730   -2.5030 ha        1 H45      0.168000
     39 H7          1.0670   -0.9590   -5.5460 ha        1 H45      0.151000
     40 H8          0.6360   -2.7430   -3.8720 ha        1 H45      0.188000
     41 H9          1.3190   -2.4500   -1.5100 ha        1 H45      0.174000
     42 H10         1.2560    1.7810   -5.4880 hc        1 H45      0.085200
     43 H11         2.7490    2.3450   -4.6240 hc        1 H45      0.085200
     44 H12         4.1960    0.8140   -5.9500 hx        1 H45      0.114700
     45 H13         2.7290    0.0330   -6.7230 hx        1 H45      0.114700
     46 H14         2.2280    2.2040   -7.7220 hn        1 H45      0.455800
     47 H16         3.6340    0.4740   -8.8280 hx        1 H45      0.123700
     48 H17         5.0720    1.4370   -8.2230 hx        1 H45      0.123700
     49 H18         1.7370    2.0670  -10.0100 ha        1 H45      0.159000
     50 H19         1.5760    3.3930  -12.1020 ha        1 H45      0.200000
     51 H20         3.5980    4.3880  -13.1280 ha        1 H45      0.189000
     52 H21         6.0100    2.8220   -9.8320 ha        1 H45      0.165000
     53 H22         6.0380    4.2040  -13.1870 hn        1 H45      0.469300
     54 H23         4.7170    6.2180  -10.9590 hn        1 H45      0.452400
     55 H24        10.5340    7.8700  -13.3970 h4        1 H45      0.220000
     56 H25        11.1000    5.4400  -12.5850 ha        1 H45      0.195000
     57 H26         8.9850    4.2050  -11.6770 ha        1 H45      0.144000
     58 H272        2.6170   -1.2060    0.0140 hn        1 H45      0.471800
     59 H182        3.5850    2.8810   -7.0510 hn        1 H45      0.455800
     60 H072        6.9560    3.6440  -11.9190 hn        1 H45      0.469300
@<TRIPOS>BOND
     1    1    2 2   
     2    1   33 1   
     3    2    3 1   
     4    2    8 1   
     5    3    4 1   
     6    3    7 2   
     7    4    5 1   
     8    5    6 2   
     9    5   34 1   
    10    6    7 1   
    11    6   35 1   
    12    7   36 1   
    13    8    9 1   
    14    8   37 1   
    15    8   58 1   
    16    9   10 ar  
    17    9   14 ar  
    18   10   11 ar  
    19   10   38 1   
    20   11   12 ar  
    21   11   15 1   
    22   12   13 ar  
    23   12   39 1   
    24   13   14 ar  
    25   13   40 1   
    26   14   41 1   
    27   15   16 1   
    28   15   42 1   
    29   15   43 1   
    30   16   17 1   
    31   16   44 1   
    32   16   45 1   
    33   17   18 1   
    34   17   46 1   
    35   17   59 1   
    36   18   19 1   
    37   18   47 1   
    38   18   48 1   
    39   19   20 ar  
    40   19   24 ar  
    41   20   21 ar  
    42   20   49 1   
    43   21   22 ar  
    44   21   50 1   
    45   22   23 ar  
    46   22   51 1   
    47   23   24 ar  
    48   23   25 1   
    49   24   52 1   
    50   25   26 1   
    51   25   53 1   
    52   25   60 1   
    53   26   27 2   
    54   26   28 1   
    55   27   54 1   
    56   28   29 1   
    57   28   32 2   
    58   29   30 1   
    59   30   31 2   
    60   30   55 1   
    61   31   32 1   
    62   31   56 1   
    63   32   57 1   
@<TRIPOS>SUBSTRUCTURE
     1 H45         1 TEMP              0 ****  ****    0 ROOT
