@<TRIPOS>MOLECULE
H45
   58    61     1     0     0
SMALL
bcc


@<TRIPOS>ATOM
      1 N26        -0.2750   -0.6560    0.1400 n2        1 H45     -0.804100
      2 C26         0.9730   -0.3100    0.1940 ce        1 H45      0.684800
      3 C25         1.7230   -0.0540    1.4390 cc        1 H45     -0.272000
      4 S21         3.2790   -0.5940    1.7460 ss        1 H45      0.097200
      5 C22         3.3180    0.0490    3.2770 cc        1 H45     -0.165100
      6 C23         2.1400    0.6930    3.6000 cd        1 H45     -0.156000
      7 C24         1.2030    0.6320    2.5260 cd        1 H45     -0.122000
      8 N27         1.7840   -0.1580   -0.9760 nu        1 H45     -0.690600
      9 C31         1.2790   -0.4270   -2.2630 ca        1 H45      0.162600
     10 C36         1.5460    0.4690   -3.3250 ca        1 H45     -0.172000
     11 C35         1.1370    0.1670   -4.6250 ca        1 H45     -0.103300
     12 C34         0.4490   -1.0200   -4.8910 ca        1 H45     -0.152000
     13 C33         0.1830   -1.9080   -3.8500 ca        1 H45     -0.099000
     14 C32         0.5930   -1.6300   -2.5510 ca        1 H45     -0.098000
     15 C37         1.4050    1.1290   -5.7300 c3        1 H45     -0.047100
     16 C38         2.5370    0.5800   -6.5970 c3        1 H45      0.098800
     17 N18         2.8300    1.4490   -7.7750 ny        1 H45     -0.767000
     18 C17         3.9410    0.8980   -8.6220 c3        1 H45      0.171100
     19 C15         4.1670    1.7610   -9.8180 ca        1 H45     -0.148300
     20 C14         3.3120    1.6500  -10.9170 ca        1 H45     -0.154000
     21 C13         3.5530    2.4300  -12.0480 ca        1 H45     -0.080000
     22 C12         4.6260    3.3110  -12.0930 ca        1 H45     -0.142000
     23 C11         5.4950    3.4470  -10.9790 ca        1 H45      0.184600
     24 C16         5.2420    2.6500   -9.8340 ca        1 H45     -0.174000
     25 N07         6.6070    4.2790  -11.0140 nu        1 H45     -0.772600
     26 C06         6.6220    5.5670  -11.6440 ce        1 H45      0.718800
     27 N06         5.6090    6.2620  -12.0450 n2        1 H45     -0.785100
     28 C05         7.9870    6.0970  -11.8010 cc        1 H45     -0.222000
     29 S01         9.3410    5.1500  -12.1270 ss        1 H45      0.049200
     30 C02        10.3710    6.4570  -12.1830 cc        1 H45     -0.144100
     31 C03         9.7110    7.6480  -11.9670 cd        1 H45     -0.163000
     32 C04         8.3150    7.4420  -11.7480 cd        1 H45     -0.080000
     33 H1         -0.7100   -0.7830    1.0280 hn        1 H45      0.415400
     34 H2          4.1810   -0.0450    3.9380 h4        1 H45      0.182000
     35 H3          1.9310    1.1890    4.5510 ha        1 H45      0.166000
     36 H4          0.2070    1.0790    2.5720 ha        1 H45      0.161000
     37 H5          2.3420    0.6720   -0.9280 hn        1 H45      0.416800
     38 H6          2.0700    1.4170   -3.1290 ha        1 H45      0.129000
     39 H7          0.1030   -1.2470   -5.9090 ha        1 H45      0.126000
     40 H8         -0.3620   -2.8430   -4.0560 ha        1 H45      0.150000
     41 H9          0.3710   -2.3530   -1.7490 ha        1 H45      0.168000
     42 H10         0.4720    1.2600   -6.3430 hc        1 H45      0.068200
     43 H11         1.6860    2.1340   -5.3140 hc        1 H45      0.068200
     44 H12         3.4810    0.4920   -5.9870 hx        1 H45      0.108700
     45 H13         2.2600   -0.4450   -6.9790 hx        1 H45      0.108700
     46 H14         1.9860    1.5420   -8.3530 hn        1 H45      0.448300
     47 H16         4.8650    0.8360   -7.9800 hx        1 H45      0.107700
     48 H17         3.6460   -0.1450   -8.9350 hx        1 H45      0.107700
     49 H18         2.4740    0.9380  -10.9090 ha        1 H45      0.136000
     50 H19         2.8930    2.3350  -12.9270 ha        1 H45      0.160000
     51 H20         4.8160    3.8740  -13.0220 ha        1 H45      0.170000
     52 H21         5.9120    2.7120   -8.9620 ha        1 H45      0.138000
     53 H22         7.2970    4.1350  -10.3090 hn        1 H45      0.442800
     54 H23         4.6980    5.8810  -11.9020 hn        1 H45      0.394400
     55 H24        11.4400    6.3560  -12.3790 h4        1 H45      0.183000
     56 H25        10.1770    8.6370  -11.9650 ha        1 H45      0.168000
     57 H26         7.6040    8.2550  -11.5710 ha        1 H45      0.174000
     58 H182        3.0870    2.3890   -7.4530 hn        1 H45      0.448300
@<TRIPOS>BOND
     1    1    2 2   
     2    1   33 1   
     3    2    3 1   
     4    2    8 1   
     5    3    4 1   
     6    3    7 2   
     7    4    5 1   
     8    5    6 2   
     9    5   34 1   
    10    6    7 1   
    11    6   35 1   
    12    7   36 1   
    13    8    9 1   
    14    8   37 1   
    15    9   10 ar  
    16    9   14 ar  
    17   10   11 ar  
    18   10   38 1   
    19   11   12 ar  
    20   11   15 1   
    21   12   13 ar  
    22   12   39 1   
    23   13   14 ar  
    24   13   40 1   
    25   14   41 1   
    26   15   16 1   
    27   15   42 1   
    28   15   43 1   
    29   16   17 1   
    30   16   44 1   
    31   16   45 1   
    32   17   18 1   
    33   17   46 1   
    34   17   58 1   
    35   18   19 1   
    36   18   47 1   
    37   18   48 1   
    38   19   20 ar  
    39   19   24 ar  
    40   20   21 ar  
    41   20   49 1   
    42   21   22 ar  
    43   21   50 1   
    44   22   23 ar  
    45   22   51 1   
    46   23   24 ar  
    47   23   25 1   
    48   24   52 1   
    49   25   26 1   
    50   25   53 1   
    51   26   27 2   
    52   26   28 1   
    53   27   54 1   
    54   28   29 1   
    55   28   32 2   
    56   29   30 1   
    57   30   31 2   
    58   30   55 1   
    59   31   32 1   
    60   31   56 1   
    61   32   57 1   
@<TRIPOS>SUBSTRUCTURE
     1 H45         1 TEMP              0 ****  ****    0 ROOT
