@<TRIPOS>MOLECULE
H45
   58    61     1     0     0
SMALL
bcc


@<TRIPOS>ATOM
      1 N26        -0.2780   -0.6620    0.1360 n2        1 H45     -0.804100
      2 C26         0.9680   -0.3110    0.1930 ce        1 H45      0.684800
      3 C25         1.7140   -0.0510    1.4400 cc        1 H45     -0.272000
      4 S21         3.2720   -0.5830    1.7510 ss        1 H45      0.097200
      5 C22         3.3040    0.0610    3.2820 cc        1 H45     -0.165100
      6 C23         2.1220    0.7000    3.6010 cd        1 H45     -0.156000
      7 C24         1.1880    0.6340    2.5260 cd        1 H45     -0.122000
      8 N27         1.7820   -0.1570   -0.9740 nh        1 H45     -0.690600
      9 C31         1.2810   -0.4290   -2.2630 ca        1 H45      0.162600
     10 C36         1.5460    0.4660   -3.3250 ca        1 H45     -0.172000
     11 C35         1.1420    0.1620   -4.6250 ca        1 H45     -0.103300
     12 C34         0.4600   -1.0280   -4.8910 ca        1 H45     -0.152000
     13 C33         0.1960   -1.9170   -3.8510 ca        1 H45     -0.099000
     14 C32         0.6010   -1.6360   -2.5510 ca        1 H45     -0.098000
     15 C37         1.4080    1.1240   -5.7310 c3        1 H45     -0.047100
     16 C38         2.5430    0.5780   -6.5970 c3        1 H45      0.098800
     17 N18         2.8340    1.4460   -7.7750 n4        1 H45     -0.767000
     18 C17         3.9470    0.8980   -8.6210 c3        1 H45      0.171100
     19 C15         4.1720    1.7600   -9.8170 ca        1 H45     -0.148300
     20 C14         3.3170    1.6470  -10.9160 ca        1 H45     -0.154000
     21 C13         3.5580    2.4260  -12.0480 ca        1 H45     -0.080000
     22 C12         4.6290    3.3090  -12.0930 ca        1 H45     -0.142000
     23 C11         5.4970    3.4480  -10.9790 ca        1 H45      0.184600
     24 C16         5.2450    2.6510   -9.8330 ca        1 H45     -0.174000
     25 N07         6.6080    4.2820  -11.0130 nh        1 H45     -0.772600
     26 C06         6.6200    5.5700  -11.6450 ce        1 H45      0.718800
     27 N06         5.6060    6.2630  -12.0480 n2        1 H45     -0.785100
     28 C05         7.9850    6.1020  -11.8030 cc        1 H45     -0.222000
     29 S01         9.3410    5.1570  -12.1260 ss        1 H45      0.048200
     30 C02        10.3690    6.4650  -12.1830 cc        1 H45     -0.144100
     31 C03         9.7060    7.6560  -11.9690 cd        1 H45     -0.163000
     32 C04         8.3100    7.4480  -11.7500 cd        1 H45     -0.080000
     33 H1         -0.7150   -0.7910    1.0240 hn        1 H45      0.415400
     34 H2          4.1660   -0.0280    3.9450 h4        1 H45      0.182000
     35 H3          1.9090    1.1960    4.5510 ha        1 H45      0.166000
     36 H4          0.1900    1.0770    2.5690 ha        1 H45      0.161000
     37 H5          2.3350    0.6770   -0.9260 hn        1 H45      0.416800
     38 H6          2.0650    1.4170   -3.1290 ha        1 H45      0.129000
     39 H7          0.1180   -1.2580   -5.9100 ha        1 H45      0.126000
     40 H8         -0.3450   -2.8540   -4.0570 ha        1 H45      0.149000
     41 H9          0.3810   -2.3580   -1.7490 ha        1 H45      0.168000
     42 H10         1.6850    2.1300   -5.3160 hc        1 H45      0.068200
     43 H11         0.4750    1.2520   -6.3450 hc        1 H45      0.068200
     44 H12         2.2700   -0.4490   -6.9770 hx        1 H45      0.108700
     45 H13         3.4860    0.4930   -5.9850 hx        1 H45      0.108700
     46 H14         1.9910    1.5360   -8.3540 hn        1 H45      0.448300
     47 H16         3.6550   -0.1470   -8.9340 hx        1 H45      0.107700
     48 H17         4.8710    0.8380   -7.9780 hx        1 H45      0.107700
     49 H18         2.4810    0.9330  -10.9080 ha        1 H45      0.136000
     50 H19         2.8990    2.3290  -12.9270 ha        1 H45      0.160000
     51 H20         4.8180    3.8720  -13.0230 ha        1 H45      0.170000
     52 H21         5.9140    2.7160   -8.9610 ha        1 H45      0.138000
     53 H22         7.2980    4.1410  -10.3080 hn        1 H45      0.442800
     54 H23         4.6970    5.8790  -11.9050 hn        1 H45      0.394400
     55 H24        11.4370    6.3660  -12.3780 h4        1 H45      0.183000
     56 H25        10.1700    8.6450  -11.9670 ha        1 H45      0.168000
     57 H26         7.5980    8.2590  -11.5750 ha        1 H45      0.174000
     58 H182        3.0880    2.3870   -7.4540 hn        1 H45      0.448300
@<TRIPOS>BOND
     1    1    2 2   
     2    1   33 1   
     3    2    3 1   
     4    2    8 1   
     5    3    4 1   
     6    3    7 2   
     7    4    5 1   
     8    5    6 2   
     9    5   34 1   
    10    6    7 1   
    11    6   35 1   
    12    7   36 1   
    13    8    9 1   
    14    8   37 1   
    15    9   10 ar  
    16    9   14 ar  
    17   10   11 ar  
    18   10   38 1   
    19   11   12 ar  
    20   11   15 1   
    21   12   13 ar  
    22   12   39 1   
    23   13   14 ar  
    24   13   40 1   
    25   14   41 1   
    26   15   16 1   
    27   15   42 1   
    28   15   43 1   
    29   16   17 1   
    30   16   44 1   
    31   16   45 1   
    32   17   18 1   
    33   17   46 1   
    34   17   58 1   
    35   18   19 1   
    36   18   47 1   
    37   18   48 1   
    38   19   20 ar  
    39   19   24 ar  
    40   20   21 ar  
    41   20   49 1   
    42   21   22 ar  
    43   21   50 1   
    44   22   23 ar  
    45   22   51 1   
    46   23   24 ar  
    47   23   25 1   
    48   24   52 1   
    49   25   26 1   
    50   25   53 1   
    51   26   27 2   
    52   26   28 1   
    53   27   54 1   
    54   28   29 1   
    55   28   32 2   
    56   29   30 1   
    57   30   31 2   
    58   30   55 1   
    59   31   32 1   
    60   31   56 1   
    61   32   57 1   
@<TRIPOS>SUBSTRUCTURE
     1 H45         1 TEMP              0 ****  ****    0 ROOT
