@<TRIPOS>MOLECULE
H49
   45    47     1     0     0
SMALL
bcc


@<TRIPOS>ATOM
      1 C22         0.0210    0.1100   -0.1100 c3        1 H49     -0.096400
      2 C21         1.3900   -0.5590   -0.0680 c3        1 H49     -0.106400
      3 C20         1.7760   -0.6500    1.4180 c3        1 H49      0.141800
      4 N19         0.7840    0.0680    2.2200 n3        1 H49     -0.838200
      5 C18        -0.3740    0.3480    1.3670 c3        1 H49      0.137500
      6 C17        -1.5580   -0.5910    1.7090 c3        1 H49      0.106800
      7 N16        -1.8240   -0.6710    3.1720 n4        1 H49     -0.756000
      8 C15        -3.0450   -1.4850    3.4820 c3        1 H49      0.169100
      9 C12        -3.2460   -1.5970    4.9570 ca        1 H49     -0.145300
     10 C13        -4.2640   -0.8690    5.5710 ca        1 H49     -0.171000
     11 C11        -2.4290   -2.4540    5.6980 ca        1 H49     -0.154000
     12 C10        -2.6310   -2.5650    7.0740 ca        1 H49     -0.081000
     13 C09        -3.6320   -1.8420    7.7090 ca        1 H49     -0.141000
     14 C08        -4.4860   -0.9870    6.9660 ca        1 H49      0.176600
     15 N07        -5.4650   -0.2130    7.5850 nh        1 H49     -0.762600
     16 C06        -6.2830   -0.6980    8.6640 ce        1 H49      0.709800
     17 N14        -6.4220   -1.9170    9.0670 n2        1 H49     -0.780100
     18 C05        -7.0220    0.3870    9.3310 cc        1 H49     -0.217000
     19 S01        -6.4300    1.9520    9.5350 ss        1 H49      0.041200
     20 C02        -7.7850    2.4680   10.3560 cc        1 H49     -0.145100
     21 C03        -8.7170    1.4620   10.5040 cd        1 H49     -0.162000
     22 C04        -8.2720    0.2420    9.9090 cd        1 H49     -0.080000
     23 H221        0.0700    1.0910   -0.6460 hc        1 H49      0.068700
     24 H222       -0.7290   -0.5270   -0.6400 hc        1 H49      0.068700
     25 H211        1.3580   -1.5770   -0.5260 hc        1 H49      0.071200
     26 H212        2.1440    0.0430   -0.6340 hc        1 H49      0.071200
     27 H18        -0.7260    1.4100    1.5080 h1        1 H49      0.068700
     28 H201        2.8070   -0.2410    1.5920 h1        1 H49      0.066700
     29 H202        1.7710   -1.7230    1.7560 h1        1 H49      0.066700
     30 H19         1.1690    0.9250    2.5720 hn        1 H49      0.380800
     31 H171       -2.4840   -0.2080    1.1960 hx        1 H49      0.101700
     32 H172       -1.3390   -1.6350    1.3450 hx        1 H49      0.101700
     33 H16        -1.9390    0.2740    3.5530 hn        1 H49      0.457300
     34 H151       -2.8970   -2.5080    3.0270 hx        1 H49      0.104700
     35 H152       -3.9270   -0.9910    2.9840 hx        1 H49      0.104700
     36 H13        -4.9070   -0.2110    4.9660 ha        1 H49      0.138000
     37 H11        -1.6460   -3.0500    5.2080 ha        1 H49      0.136000
     38 H10        -1.9850   -3.2330    7.6680 ha        1 H49      0.160000
     39 H09        -3.7360   -1.9220    8.8040 ha        1 H49      0.169000
     40 H141       -5.9260   -2.6300    8.5760 hn        1 H49      0.398400
     41 H142       -5.8990    0.4830    7.0160 hn        1 H49      0.435800
     42 H04        -8.8520   -0.6850    9.9250 ha        1 H49      0.175000
     43 H02        -7.8930    3.4870   10.7290 h4        1 H49      0.182000
     44 H03        -9.6790    1.5620   11.0120 ha        1 H49      0.168000
     45 H162       -1.0110   -1.0940    3.6450 hn        1 H49      0.457300
@<TRIPOS>BOND
     1    1    2 1   
     2    1    5 1   
     3    1   23 1   
     4    1   24 1   
     5    2    3 1   
     6    2   25 1   
     7    2   26 1   
     8    3    4 1   
     9    3   28 1   
    10    3   29 1   
    11    4    5 1   
    12    4   30 1   
    13    5    6 1   
    14    5   27 1   
    15    6    7 1   
    16    6   31 1   
    17    6   32 1   
    18    7    8 1   
    19    7   33 1   
    20    7   45 1   
    21    8    9 1   
    22    8   34 1   
    23    8   35 1   
    24    9   10 ar  
    25    9   11 ar  
    26   10   14 ar  
    27   10   36 1   
    28   11   12 ar  
    29   11   37 1   
    30   12   13 ar  
    31   12   38 1   
    32   13   14 ar  
    33   13   39 1   
    34   14   15 1   
    35   15   16 1   
    36   15   41 1   
    37   16   17 2   
    38   16   18 1   
    39   17   40 1   
    40   18   19 1   
    41   18   22 2   
    42   19   20 1   
    43   20   21 2   
    44   20   43 1   
    45   21   22 1   
    46   21   44 1   
    47   22   42 1   
@<TRIPOS>SUBSTRUCTURE
     1 H49         1 TEMP              0 ****  ****    0 ROOT
