@<TRIPOS>MOLECULE
H49
   45    47     1     0     0
SMALL
bcc


@<TRIPOS>ATOM
      1 C22         0.0230    0.1090   -0.1090 c3        1 H49     -0.096400
      2 C21         1.3920   -0.5610   -0.0670 c3        1 H49     -0.106400
      3 C20         1.7760   -0.6530    1.4200 c3        1 H49      0.141800
      4 N19         0.7850    0.0660    2.2220 n7        1 H49     -0.838200
      5 C18        -0.3730    0.3480    1.3670 c3        1 H49      0.137500
      6 C17        -1.5570   -0.5910    1.7090 c3        1 H49      0.106800
      7 N16        -1.8240   -0.6710    3.1720 ny        1 H49     -0.756000
      8 C15        -3.0460   -1.4840    3.4810 c3        1 H49      0.169100
      9 C12        -3.2470   -1.5960    4.9560 ca        1 H49     -0.145300
     10 C13        -4.2650   -0.8680    5.5700 ca        1 H49     -0.171000
     11 C11        -2.4320   -2.4550    5.6970 ca        1 H49     -0.154000
     12 C10        -2.6340   -2.5670    7.0720 ca        1 H49     -0.081000
     13 C09        -3.6350   -1.8430    7.7080 ca        1 H49     -0.141000
     14 C08        -4.4880   -0.9860    6.9650 ca        1 H49      0.176600
     15 N07        -5.4650   -0.2120    7.5850 nu        1 H49     -0.762600
     16 C06        -6.2840   -0.6970    8.6630 ce        1 H49      0.709800
     17 N14        -6.4250   -1.9160    9.0650 n2        1 H49     -0.780100
     18 C05        -7.0210    0.3890    9.3310 cc        1 H49     -0.217000
     19 S01        -6.4280    1.9520    9.5370 ss        1 H49      0.041200
     20 C02        -7.7820    2.4690   10.3580 cc        1 H49     -0.145100
     21 C03        -8.7150    1.4650   10.5050 cd        1 H49     -0.162000
     22 C04        -8.2720    0.2450    9.9090 cd        1 H49     -0.080000
     23 H221       -0.7270   -0.5270   -0.6390 hc        1 H49      0.068700
     24 H222        0.0730    1.0900   -0.6450 hc        1 H49      0.068700
     25 H211        1.3590   -1.5790   -0.5250 hc        1 H49      0.071200
     26 H212        2.1460    0.0400   -0.6320 hc        1 H49      0.071200
     27 H18        -0.7230    1.4100    1.5090 h1        1 H49      0.068700
     28 H201        1.7710   -1.7250    1.7570 h1        1 H49      0.066700
     29 H202        2.8080   -0.2440    1.5940 h1        1 H49      0.066700
     30 H19         1.1700    0.9230    2.5740 hn        1 H49      0.380800
     31 H171       -2.4830   -0.2070    1.1960 hx        1 H49      0.101700
     32 H172       -1.3390   -1.6350    1.3450 hx        1 H49      0.101700
     33 H16        -1.0120   -1.0950    3.6450 hn        1 H49      0.457300
     34 H151       -3.9280   -0.9880    2.9840 hx        1 H49      0.104700
     35 H152       -2.9000   -2.5060    3.0250 hx        1 H49      0.104700
     36 H13        -4.9070   -0.2080    4.9650 ha        1 H49      0.138000
     37 H11        -1.6490   -3.0510    5.2060 ha        1 H49      0.136000
     38 H10        -1.9890   -3.2360    7.6650 ha        1 H49      0.160000
     39 H09        -3.7390   -1.9240    8.8030 ha        1 H49      0.169000
     40 H141       -5.9300   -2.6300    8.5730 hn        1 H49      0.398400
     41 H142       -5.8980    0.4850    7.0160 hn        1 H49      0.435800
     42 H04        -8.8540   -0.6820    9.9240 ha        1 H49      0.175000
     43 H02        -7.8890    3.4880   10.7320 h4        1 H49      0.182000
     44 H03        -9.6770    1.5660   11.0140 ha        1 H49      0.168000
     45 H162       -1.9380    0.2740    3.5530 hn        1 H49      0.457300
@<TRIPOS>BOND
     1    1    2 1   
     2    1    5 1   
     3    1   23 1   
     4    1   24 1   
     5    2    3 1   
     6    2   25 1   
     7    2   26 1   
     8    3    4 1   
     9    3   28 1   
    10    3   29 1   
    11    4    5 1   
    12    4   30 1   
    13    5    6 1   
    14    5   27 1   
    15    6    7 1   
    16    6   31 1   
    17    6   32 1   
    18    7    8 1   
    19    7   33 1   
    20    7   45 1   
    21    8    9 1   
    22    8   34 1   
    23    8   35 1   
    24    9   10 ar  
    25    9   11 ar  
    26   10   14 ar  
    27   10   36 1   
    28   11   12 ar  
    29   11   37 1   
    30   12   13 ar  
    31   12   38 1   
    32   13   14 ar  
    33   13   39 1   
    34   14   15 1   
    35   15   16 1   
    36   15   41 1   
    37   16   17 2   
    38   16   18 1   
    39   17   40 1   
    40   18   19 1   
    41   18   22 2   
    42   19   20 1   
    43   20   21 2   
    44   20   43 1   
    45   21   22 1   
    46   21   44 1   
    47   22   42 1   
@<TRIPOS>SUBSTRUCTURE
     1 H49         1 TEMP              0 ****  ****    0 ROOT
