@<TRIPOS>MOLECULE
H4B
   33    34     1     0     0
SMALL
bcc


@<TRIPOS>ATOM
      1 N1          0.1470   -0.3610   -0.2400 nc        1 H4B     -0.532300
      2 C2          1.4710   -0.4620   -0.1510 cd        1 H4B      0.408800
      3 N2          2.1940   -0.7870   -1.4160 n4        1 H4B     -0.776600
      4 N3          2.2350   -0.2990    1.0120 n         1 H4B     -0.471400
      5 C4          1.5780   -0.0100    2.2240 c         1 H4B      0.692700
      6 O4          2.2720    0.1440    3.2380 o         1 H4B     -0.563500
      7 C4A         0.0960    0.0920    2.1660 cd        1 H4B      0.079800
      8 C8A        -0.5570   -0.0460    0.9110 cc        1 H4B      0.204600
      9 N5         -0.5890    0.2300    3.3450 nh        1 H4B     -0.671000
     10 N8         -1.9440    0.2400    0.8210 nh        1 H4B     -0.680000
     11 C6         -2.0070    0.5310    3.3060 c3        1 H4B      0.202500
     12 C7         -2.6870   -0.0400    2.0340 c3        1 H4B      0.159800
     13 C9         -2.3250    2.0460    3.4450 c3        1 H4B      0.123100
     14 O9         -3.7410    2.1220    3.4220 oh        1 H4B     -0.595800
     15 C10        -1.7900    2.6210    4.7740 c3        1 H4B      0.104100
     16 C11        -2.4190    3.9630    5.0970 c3        1 H4B     -0.140100
     17 O10        -0.3800    2.7390    4.6120 oh        1 H4B     -0.627800
     18 HN21        1.5120   -0.8790   -2.1850 hn        1 H4B      0.475467
     19 HN22        2.7000   -1.6720   -1.3060 hn        1 H4B      0.475467
     20 HN3         3.2300   -0.3600    1.0140 hn        1 H4B      0.350500
     21 HN5        -0.0770    0.6130    4.1220 hn        1 H4B      0.477800
     22 HN8        -2.3890   -0.1280    0.0020 hn        1 H4B      0.419800
     23 H6         -2.4710    0.0060    4.1970 h1        1 H4B      0.102700
     24 H71        -3.6990    0.4480    1.9250 h1        1 H4B      0.081200
     25 H72        -2.8400   -1.1480    2.1880 h1        1 H4B      0.081200
     26 H9         -1.8820    2.6180    2.5840 h1        1 H4B      0.069700
     27 HO9        -3.9730    3.0520    3.3030 ho        1 H4B      0.424000
     28 H10        -2.0000    1.8940    5.6100 h1        1 H4B      0.052700
     29 H111       -2.3030    4.6680    4.2390 hc        1 H4B      0.057033
     30 H112       -3.5050    3.8340    5.3230 hc        1 H4B      0.057033
     31 H113       -1.9260    4.4130    5.9920 hc        1 H4B      0.057033
     32 HO0        -0.0480    3.2650    5.3510 ho        1 H4B      0.426000
     33 H23         2.8510   -0.0320   -1.6390 hn        1 H4B      0.475467
@<TRIPOS>BOND
     1    1    2 2   
     2    1    8 1   
     3    2    3 1   
     4    2    4 1   
     5    3   18 1   
     6    3   19 1   
     7    3   33 1   
     8    4    5 1   
     9    4   20 1   
    10    5    6 2   
    11    5    7 1   
    12    7    8 2   
    13    7    9 1   
    14    8   10 1   
    15    9   11 1   
    16    9   21 1   
    17   10   12 1   
    18   10   22 1   
    19   11   12 1   
    20   11   13 1   
    21   11   23 1   
    22   12   24 1   
    23   12   25 1   
    24   13   14 1   
    25   13   15 1   
    26   13   26 1   
    27   14   27 1   
    28   15   16 1   
    29   15   17 1   
    30   15   28 1   
    31   16   29 1   
    32   16   30 1   
    33   16   31 1   
    34   17   32 1   
@<TRIPOS>SUBSTRUCTURE
     1 H4B         1 TEMP              0 ****  ****    0 ROOT
