@<TRIPOS>MOLECULE
H4B
   32    30     1     0     0
SMALL
bcc


@<TRIPOS>ATOM
      1 N1          1.1400   -1.5190   -2.3890 n1        1 H4B     -0.582800
      2 C2          2.5160   -1.6970   -2.3710 c1        1 H4B      0.431400
      3 N2          3.2110   -1.9280   -3.5750 n3        1 H4B     -0.418400
      4 N3          3.2290   -1.6420   -1.1360 n2        1 H4B     -0.792800
      5 C4          2.5640   -1.4150    0.0250 c1        1 H4B      0.605900
      6 O4          3.1810   -1.3610    1.0840 o         1 H4B     -0.629900
      7 C4A         1.2150   -1.2390    0.0140 c1        1 H4B     -0.172200
      8 C8A         0.4810   -1.2950   -1.2510 c1        1 H4B      0.530600
      9 N5          0.4470   -0.8850    1.2400 n3        1 H4B     -0.627800
     10 N8         -1.0370   -1.1740   -1.1860 n3        1 H4B     -0.664800
     11 C6         -0.8390   -0.5000    1.0700 c3        1 H4B      0.157500
     12 C7         -1.5850   -1.1680    0.0070 c3        1 H4B      0.203800
     13 C9         -0.8410    1.1180    0.7580 c3        1 H4B      0.116100
     14 O9         -1.4950    1.3610   -0.3980 oh        1 H4B     -0.607800
     15 C10        -1.5270    1.8440    1.8860 c3        1 H4B      0.103100
     16 C11        -2.6790    2.6710    1.3280 c3        1 H4B     -0.131100
     17 O10        -0.5980    2.6980    2.5360 oh        1 H4B     -0.613800
     18 HN21        2.7460   -2.0360   -4.3610 hn        1 H4B      0.255700
     19 HN22        4.1130   -2.0210   -3.5660 hn        1 H4B      0.255700
     20 HN3         4.1540   -1.7620   -1.1270 hn        1 H4B      0.494400
     21 HN5         0.8980   -0.2430    1.7090 hn        1 H4B      0.396800
     22 HN8        -1.3050   -0.4320   -1.6470 hn        1 H4B      0.419800
     23 H6         -1.3180   -0.6490    1.9200 h1        1 H4B      0.070700
     24 H71        -2.4370   -0.7490   -0.0630 h1        1 H4B      0.061200
     25 H72        -1.7240   -2.0950    0.2760 h1        1 H4B      0.061200
     26 H9          0.1040    1.4420    0.6800 h1        1 H4B      0.056700
     27 HO9        -1.0040    1.8910   -0.9080 ho        1 H4B      0.423000
     28 H10        -1.8620    1.2180    2.5030 h1        1 H4B      0.043700
     29 H111       -3.0250    3.2880    2.0400 hc        1 H4B      0.048700
     30 H112       -2.3690    3.1880    0.5820 hc        1 H4B      0.048700
     31 H113       -3.3950    2.0760    1.0360 hc        1 H4B      0.048700
     32 HO0        -0.9590    3.0160    3.2830 ho        1 H4B      0.409000
@<TRIPOS>BOND
     1    1    8 3   
     2    2    3 2   
     3    2    4 2   
     4    3   18 1   
     5    3   19 1   
     6    4   20 1   
     7    5    6 1   
     8    5    7 3   
     9    7    9 1   
    10    8   10 1   
    11    9   11 1   
    12    9   21 1   
    13   10   12 1   
    14   10   22 1   
    15   11   12 1   
    16   11   13 1   
    17   11   23 1   
    18   12   24 1   
    19   12   25 1   
    20   13   14 1   
    21   13   15 1   
    22   13   26 1   
    23   14   27 1   
    24   15   16 1   
    25   15   17 1   
    26   15   28 1   
    27   16   29 1   
    28   16   30 1   
    29   16   31 1   
    30   17   32 1   
@<TRIPOS>SUBSTRUCTURE
     1 H4B         1 TEMP              0 ****  ****    0 ROOT
