@<TRIPOS>MOLECULE
H4B
   32    33     1     0     0
SMALL
bcc


@<TRIPOS>ATOM
      1 N1         -1.3770    0.4540   -2.3860 nc        1 H4B     -0.696300
      2 C2         -0.3280    0.6210   -3.2090 cd        1 H4B      0.662800
      3 N2         -0.5000    1.3730   -4.4020 nh        1 H4B     -0.882800
      4 N3          0.9640    0.1510   -2.9240 n         1 H4B     -0.490400
      5 C4          1.2470   -0.4650   -1.6870 c         1 H4B      0.710700
      6 O4          2.4340   -0.7640   -1.4480 o         1 H4B     -0.646500
      7 C4A         0.1130   -0.6740   -0.7900 cd        1 H4B     -0.178200
      8 C8A        -1.1610   -0.2090   -1.1730 cc        1 H4B      0.376600
      9 N5          0.3030   -1.4150    0.4030 nh        1 H4B     -0.651000
     10 N8         -2.2710   -0.4350   -0.3550 nh        1 H4B     -0.725000
     11 C6         -0.6040   -1.0130    1.4660 c3        1 H4B      0.135500
     12 C7         -2.0670   -1.0180    0.9470 c3        1 H4B      0.202800
     13 C9         -0.2830    0.3480    2.1400 c3        1 H4B      0.067100
     14 O9         -1.3610    0.7620    2.9630 oh        1 H4B     -0.588800
     15 C10         1.0110    0.2860    2.9770 c3        1 H4B      0.108100
     16 C11         1.2440    1.6030    3.6930 c3        1 H4B     -0.128100
     17 O10         2.1300   -0.0700    2.1870 oh        1 H4B     -0.589800
     18 HN21       -1.4530    1.6060   -4.5960 hn        1 H4B      0.412300
     19 HN22       -0.0230    0.9980   -5.1940 hn        1 H4B      0.412300
     20 HN3         1.7260    0.3370   -3.5390 hn        1 H4B      0.336500
     21 HN5         1.2680   -1.4020    0.6960 hn        1 H4B      0.418800
     22 HN8        -3.0220    0.2150   -0.4320 hn        1 H4B      0.429800
     23 H6         -0.5270   -1.8110    2.2630 h1        1 H4B      0.069700
     24 H71        -2.4000   -2.0960    0.8790 h1        1 H4B      0.061200
     25 H72        -2.7210   -0.4930    1.6990 h1        1 H4B      0.061200
     26 H9         -0.2020    1.1570    1.3620 h1        1 H4B      0.083700
     27 HO9        -1.4290    0.1290    3.6880 ho        1 H4B      0.399000
     28 H10         0.9320   -0.5560    3.7240 h1        1 H4B      0.072700
     29 H111        2.1620    1.5350    4.3240 hc        1 H4B      0.049367
     30 H112        1.3780    2.4300    2.9550 hc        1 H4B      0.049367
     31 H113        0.3670    1.8440    4.3400 hc        1 H4B      0.049367
     32 HO0         2.3150    0.6650    1.5880 ho        1 H4B      0.409000
@<TRIPOS>BOND
     1    1    2 2   
     2    1    8 1   
     3    2    3 1   
     4    2    4 1   
     5    3   18 1   
     6    3   19 1   
     7    4    5 1   
     8    4   20 1   
     9    5    6 2   
    10    5    7 1   
    11    7    8 2   
    12    7    9 1   
    13    8   10 1   
    14    9   11 1   
    15    9   21 1   
    16   10   12 1   
    17   10   22 1   
    18   11   12 1   
    19   11   13 1   
    20   11   23 1   
    21   12   24 1   
    22   12   25 1   
    23   13   14 1   
    24   13   15 1   
    25   13   26 1   
    26   14   27 1   
    27   15   16 1   
    28   15   17 1   
    29   15   28 1   
    30   16   29 1   
    31   16   30 1   
    32   16   31 1   
    33   17   32 1   
@<TRIPOS>SUBSTRUCTURE
     1 H4B         1 TEMP              0 ****  ****    0 ROOT
