@<TRIPOS>MOLECULE
H4B
   32    33     1     0     0
SMALL
bcc


@<TRIPOS>ATOM
      1 N1          0.0620   -0.2370   -0.0540 nc        1 H4B     -0.709300
      2 C2          1.4070   -0.2600   -0.0180 cd        1 H4B      0.682800
      3 N2          2.1230   -0.3810   -1.2340 nv        1 H4B     -0.889800
      4 N3          2.1500   -0.2290    1.1720 ns        1 H4B     -0.498400
      5 C4          1.5050   -0.1660    2.4290 c         1 H4B      0.728700
      6 O4          2.2320   -0.1660    3.4390 o         1 H4B     -0.634500
      7 C4A         0.0440   -0.1180    2.4020 cd        1 H4B     -0.201200
      8 C8A        -0.6220   -0.2460    1.1670 cc        1 H4B      0.389600
      9 N5         -0.6200    0.1140    3.6320 nu        1 H4B     -0.666000
     10 N8         -2.0070   -0.3980    1.1260 nu        1 H4B     -0.733000
     11 C6         -2.0280    0.4470    3.4990 c3        1 H4B      0.161500
     12 C7         -2.7450   -0.3250    2.3570 c3        1 H4B      0.174800
     13 C9         -2.2310    1.9740    3.2950 c3        1 H4B      0.109100
     14 O9         -3.6420    2.1500    3.2760 oh        1 H4B     -0.610800
     15 C10        -1.5630    2.7950    4.4190 c3        1 H4B      0.131100
     16 C11        -2.3210    4.0720    4.7410 c3        1 H4B     -0.102100
     17 O10        -0.2680    3.2010    4.0050 oh        1 H4B     -0.607800
     18 HN21        1.5570   -0.3070   -2.0530 hn        1 H4B      0.417300
     19 HN22        2.9670    0.1450   -1.2800 hn        1 H4B      0.417300
     20 HN3         3.1440   -0.3000    1.1610 hn        1 H4B      0.336500
     21 HN5        -0.4810   -0.6600    4.2570 hn        1 H4B      0.386800
     22 HN8        -2.4780   -0.1130    0.2970 hn        1 H4B      0.434800
     23 H6         -2.5540    0.1740    4.4610 h1        1 H4B      0.077700
     24 H71        -3.7490    0.1510    2.1720 h1        1 H4B      0.064700
     25 H72        -2.9180   -1.3830    2.7120 h1        1 H4B      0.064700
     26 H9         -1.7950    2.2920    2.3060 h1        1 H4B      0.053700
     27 HO9        -3.8040    3.0720    3.0430 ho        1 H4B      0.411000
     28 H10        -1.4900    2.1630    5.3490 h1        1 H4B      0.044700
     29 H111       -1.7500    4.6620    5.4970 hc        1 H4B      0.046367
     30 H112       -2.4380    4.6990    3.8250 hc        1 H4B      0.046367
     31 H113       -3.3270    3.8210    5.1540 hc        1 H4B      0.046367
     32 HO0         0.2890    2.4130    3.9800 ho        1 H4B      0.427000
@<TRIPOS>BOND
     1    1    2 2   
     2    1    8 1   
     3    2    3 1   
     4    2    4 1   
     5    3   18 1   
     6    3   19 1   
     7    4    5 1   
     8    4   20 1   
     9    5    6 2   
    10    5    7 1   
    11    7    8 2   
    12    7    9 1   
    13    8   10 1   
    14    9   11 1   
    15    9   21 1   
    16   10   12 1   
    17   10   22 1   
    18   11   12 1   
    19   11   13 1   
    20   11   23 1   
    21   12   24 1   
    22   12   25 1   
    23   13   14 1   
    24   13   15 1   
    25   13   26 1   
    26   14   27 1   
    27   15   16 1   
    28   15   17 1   
    29   15   28 1   
    30   16   29 1   
    31   16   30 1   
    32   16   31 1   
    33   17   32 1   
@<TRIPOS>SUBSTRUCTURE
     1 H4B         1 TEMP              0 ****  ****    0 ROOT
