@<TRIPOS>MOLECULE
H4C
   39    42     1     0     0
SMALL
bcc


@<TRIPOS>ATOM
      1 C           0.1350   -0.4190   -0.1690 c3        1 H4C     -0.093100
      2 N           3.2490    0.0940    5.0540 na        1 H4C     -0.047000
      3 S           2.3000    0.9380    2.6290 ss        1 H4C      0.101200
      4 CL          5.9780   -2.3270    2.9120 cl        1 H4C     -0.096400
      5 C1          1.5030    0.1600    0.1090 c3        1 H4C     -0.027100
      6 N1          4.1450    1.0030    6.8470 na        1 H4C      0.018400
      7 C2          2.0030   -0.2040    1.4490 cc        1 H4C     -0.045400
      8 N2          3.6330   -0.1610    7.2750 n2        1 H4C     -0.432800
      9 C3          2.2940   -1.4850    1.8840 cd        1 H4C     -0.123000
     10 N3          2.9750   -3.0120    5.1800 n2        1 H4C     -0.556900
     11 C4          2.7740   -1.5070    3.2240 cd        1 H4C     -0.141900
     12 C5          2.8330   -0.2090    3.7600 cc        1 H4C     -0.131300
     13 C6          3.9550    1.2060    5.4910 cc        1 H4C      0.046100
     14 C7          4.4080    2.3800    4.7100 c3        1 H4C     -0.069800
     15 C8          3.0700   -0.7530    6.1920 cc        1 H4C      0.442800
     16 C9          2.3990   -2.1000    6.1200 c3        1 H4C      0.073500
     17 C10         3.1330   -2.7510    3.9240 cf        1 H4C      0.569500
     18 C11         3.7150   -3.8010    3.0470 ca        1 H4C     -0.158900
     19 C12         2.9610   -4.9420    2.7520 ca        1 H4C     -0.088000
     20 C13         3.4900   -5.9380    1.9330 ca        1 H4C     -0.123000
     21 C14         4.7790   -5.8060    1.4150 ca        1 H4C     -0.094000
     22 C15         5.5460   -4.6810    1.7160 ca        1 H4C     -0.118000
     23 C16         5.0150   -3.6800    2.5360 ca        1 H4C      0.042400
     24 H           0.1520   -1.5320   -0.0750 hc        1 H4C      0.051033
     25 HA         -0.1780   -0.1550   -1.2090 hc        1 H4C      0.051033
     26 HB         -0.6230   -0.0140    0.5430 hc        1 H4C      0.051033
     27 H1          1.4630    1.2790    0.0050 hc        1 H4C      0.070700
     28 H1A         2.2320   -0.2180   -0.6620 hc        1 H4C      0.070700
     29 HN1         4.6110    1.6170    7.4910 hn        1 H4C      0.384700
     30 H3          2.1790   -2.3930    1.2810 ha        1 H4C      0.194000
     31 H7          4.2560    2.2100    3.6110 hc        1 H4C      0.108700
     32 H7A         5.4990    2.5630    4.8960 hc        1 H4C      0.108700
     33 H7B         3.8290    3.2890    5.0200 hc        1 H4C      0.108700
     34 H9          1.2980   -1.9290    5.9190 h1        1 H4C      0.116700
     35 H9A         2.4980   -2.5980    7.1340 h1        1 H4C      0.116700
     36 H12         1.9510   -5.0560    3.1770 ha        1 H4C      0.150000
     37 H13         2.8920   -6.8330    1.7030 ha        1 H4C      0.155000
     38 H14         5.1990   -6.5950    0.7720 ha        1 H4C      0.156000
     39 H15         6.5680   -4.5850    1.3170 ha        1 H4C      0.162000
@<TRIPOS>BOND
     1    1    5 1   
     2    1   24 1   
     3    1   25 1   
     4    1   26 1   
     5    2   12 1   
     6    2   13 2   
     7    2   15 1   
     8    3    7 1   
     9    3   12 1   
    10    4   23 1   
    11    5    7 1   
    12    5   27 1   
    13    5   28 1   
    14    6    8 1   
    15    6   13 1   
    16    6   29 1   
    17    7    9 2   
    18    8   15 2   
    19    9   11 1   
    20    9   30 1   
    21   10   16 1   
    22   10   17 2   
    23   11   12 2   
    24   11   17 1   
    25   13   14 1   
    26   14   31 1   
    27   14   32 1   
    28   14   33 1   
    29   15   16 1   
    30   16   34 1   
    31   16   35 1   
    32   17   18 1   
    33   18   19 ar  
    34   18   23 ar  
    35   19   20 ar  
    36   19   36 1   
    37   20   21 ar  
    38   20   37 1   
    39   21   22 ar  
    40   21   38 1   
    41   22   23 ar  
    42   22   39 1   
@<TRIPOS>SUBSTRUCTURE
     1 H4C         1 TEMP              0 ****  ****    0 ROOT
