@<TRIPOS>MOLECULE
H4C
   39    42     1     0     0
SMALL
bcc


@<TRIPOS>ATOM
      1 C           0.1230   -0.4090   -0.1460 c3        1 H4C     -0.093100
      2 N           3.2650    0.0780    5.0640 na        1 H4C     -0.047000
      3 S           2.3010    0.9340    2.6490 ss        1 H4C      0.101200
      4 CL          5.9840   -2.3300    2.8950 cl        1 H4C     -0.096400
      5 C1          1.4920    0.1700    0.1290 c3        1 H4C     -0.027100
      6 N1          4.1690    0.9770    6.8570 na        1 H4C      0.018400
      7 C2          1.9990   -0.2010    1.4630 cc        1 H4C     -0.045400
      8 N2          3.6600   -0.1890    7.2810 n2        1 H4C     -0.432800
      9 C3          2.2930   -1.4840    1.8900 cd        1 H4C     -0.123000
     10 N3          2.9930   -3.0290    5.1740 n2        1 H4C     -0.556900
     11 C4          2.7810   -1.5130    3.2270 cd        1 H4C     -0.141900
     12 C5          2.8410   -0.2180    3.7700 cc        1 H4C     -0.131300
     13 C6          3.9710    1.1880    5.5030 cc        1 H4C      0.046100
     14 C7          4.4200    2.3660    4.7260 c3        1 H4C     -0.069800
     15 C8          3.0920   -0.7760    6.1970 cc        1 H4C      0.442800
     16 C9          2.4210   -2.1230    6.1220 c3        1 H4C      0.073500
     17 C10         3.1440   -2.7600    3.9180 cf        1 H4C      0.569500
     18 C11         3.7210   -3.8050    3.0320 ca        1 H4C     -0.158900
     19 C12         2.9660   -4.9450    2.7350 ca        1 H4C     -0.088000
     20 C13         3.4920   -5.9360    1.9070 ca        1 H4C     -0.123000
     21 C14         4.7780   -5.8010    1.3840 ca        1 H4C     -0.094000
     22 C15         5.5460   -4.6780    1.6880 ca        1 H4C     -0.118000
     23 C16         5.0190   -3.6810    2.5160 ca        1 H4C      0.042400
     24 H          -0.6320   -0.0100    0.5720 hc        1 H4C      0.051033
     25 HA          0.1420   -1.5220   -0.0590 hc        1 H4C      0.051033
     26 HB         -0.1950   -0.1390   -1.1830 hc        1 H4C      0.051033
     27 H1          1.4500    1.2900    0.0310 hc        1 H4C      0.070700
     28 H1A         2.2170   -0.2020   -0.6490 hc        1 H4C      0.070700
     29 HN1         4.6380    1.5890    7.5020 hn        1 H4C      0.384700
     30 H3          2.1750   -2.3890    1.2820 ha        1 H4C      0.194000
     31 H7          5.5120    2.5500    4.9070 hc        1 H4C      0.108700
     32 H7A         3.8410    3.2740    5.0430 hc        1 H4C      0.108700
     33 H7B         4.2630    2.2030    3.6270 hc        1 H4C      0.108700
     34 H9          1.3190   -1.9520    5.9280 h1        1 H4C      0.116700
     35 H9A         2.5260   -2.6260    7.1330 h1        1 H4C      0.116700
     36 H12         1.9590   -5.0620    3.1640 ha        1 H4C      0.150000
     37 H13         2.8930   -6.8300    1.6750 ha        1 H4C      0.155000
     38 H14         5.1950   -6.5860    0.7340 ha        1 H4C      0.156000
     39 H15         6.5660   -4.5790    1.2850 ha        1 H4C      0.162000
@<TRIPOS>BOND
     1    1    5 1   
     2    1   24 1   
     3    1   25 1   
     4    1   26 1   
     5    2   12 1   
     6    2   13 2   
     7    2   15 1   
     8    3    7 1   
     9    3   12 1   
    10    4   23 1   
    11    5    7 1   
    12    5   27 1   
    13    5   28 1   
    14    6    8 1   
    15    6   13 1   
    16    6   29 1   
    17    7    9 2   
    18    8   15 2   
    19    9   11 1   
    20    9   30 1   
    21   10   16 1   
    22   10   17 2   
    23   11   12 2   
    24   11   17 1   
    25   13   14 1   
    26   14   31 1   
    27   14   32 1   
    28   14   33 1   
    29   15   16 1   
    30   16   34 1   
    31   16   35 1   
    32   17   18 1   
    33   18   19 ar  
    34   18   23 ar  
    35   19   20 ar  
    36   19   36 1   
    37   20   21 ar  
    38   20   37 1   
    39   21   22 ar  
    40   21   38 1   
    41   22   23 ar  
    42   22   39 1   
@<TRIPOS>SUBSTRUCTURE
     1 H4C         1 TEMP              0 ****  ****    0 ROOT
