@<TRIPOS>MOLECULE
H4C
   39    42     1     0     0
SMALL
bcc


@<TRIPOS>ATOM
      1 C           0.1280   -0.4180   -0.1620 c3        1 H4C     -0.093100
      2 N           3.2480    0.0890    5.0590 na        1 H4C     -0.047000
      3 S           2.2930    0.9370    2.6380 ss        1 H4C      0.101200
      4 Cl          5.9810   -2.3190    2.9050 cl        1 H4C     -0.096400
      5 C1          1.4950    0.1640    0.1160 c3        1 H4C     -0.027100
      6 N1          4.1430    0.9950    6.8530 na        1 H4C      0.018400
      7 C2          1.9980   -0.2020    1.4540 cc        1 H4C     -0.045400
      8 N2          3.6340   -0.1720    7.2780 n2        1 H4C     -0.432800
      9 C3          2.2920   -1.4840    1.8850 cd        1 H4C     -0.123000
     10 N3          2.9820   -3.0180    5.1760 n2        1 H4C     -0.556900
     11 C4          2.7740   -1.5080    3.2240 cd        1 H4C     -0.141900
     12 C5          2.8300   -0.2110    3.7640 cc        1 H4C     -0.131300
     13 C6          3.9500    1.2020    5.4970 cc        1 H4C      0.046100
     14 C7          4.3990    2.3790    4.7200 c3        1 H4C     -0.069800
     15 C8          3.0720   -0.7620    6.1940 cc        1 H4C      0.442800
     16 C9          2.4050   -2.1110    6.1200 c3        1 H4C      0.073500
     17 C10         3.1380   -2.7530    3.9200 cf        1 H4C      0.569500
     18 C11         3.7210   -3.7990    3.0390 ca        1 H4C     -0.158900
     19 C12         2.9690   -4.9410    2.7420 ca        1 H4C     -0.088000
     20 C13         3.5000   -5.9330    1.9190 ca        1 H4C     -0.123000
     21 C14         4.7880   -5.7960    1.4000 ca        1 H4C     -0.094000
     22 C15         5.5520   -4.6700    1.7040 ca        1 H4C     -0.118000
     23 C16         5.0200   -3.6730    2.5270 ca        1 H4C      0.042400
     24 H          -0.6300   -0.0170    0.5520 hc        1 H4C      0.051033
     25 HA         -0.1870   -0.1510   -1.2010 hc        1 H4C      0.051033
     26 HB          0.1480   -1.5310   -0.0710 hc        1 H4C      0.051033
     27 H1          2.2240   -0.2090   -0.6570 hc        1 H4C      0.070700
     28 H1A         1.4520    1.2840    0.0150 hc        1 H4C      0.070700
     29 HN1         4.6080    1.6090    7.4980 hn        1 H4C      0.384700
     30 H3          2.1790   -2.3900    1.2800 ha        1 H4C      0.194000
     31 H7          4.2470    2.2120    3.6200 hc        1 H4C      0.108700
     32 H7A         3.8170    3.2860    5.0320 hc        1 H4C      0.108700
     33 H7B         5.4900    2.5660    4.9050 hc        1 H4C      0.108700
     34 H9          2.5070   -2.6120    7.1320 h1        1 H4C      0.116700
     35 H9A         1.3030   -1.9430    5.9210 h1        1 H4C      0.116700
     36 H12         1.9610   -5.0590    3.1680 ha        1 H4C      0.150000
     37 H13         2.9040   -6.8300    1.6880 ha        1 H4C      0.155000
     38 H14         5.2100   -6.5830    0.7540 ha        1 H4C      0.156000
     39 H15         6.5740   -4.5700    1.3040 ha        1 H4C      0.162000
@<TRIPOS>BOND
     1    1    5 1   
     2    1   24 1   
     3    1   25 1   
     4    1   26 1   
     5    2   12 1   
     6    2   13 2   
     7    2   15 1   
     8    3    7 1   
     9    3   12 1   
    10    4   23 1   
    11    5    7 1   
    12    5   27 1   
    13    5   28 1   
    14    6    8 1   
    15    6   13 1   
    16    6   29 1   
    17    7    9 2   
    18    8   15 2   
    19    9   11 1   
    20    9   30 1   
    21   10   16 1   
    22   10   17 2   
    23   11   12 2   
    24   11   17 1   
    25   13   14 1   
    26   14   31 1   
    27   14   32 1   
    28   14   33 1   
    29   15   16 1   
    30   16   34 1   
    31   16   35 1   
    32   17   18 1   
    33   18   19 ar  
    34   18   23 ar  
    35   19   20 ar  
    36   19   36 1   
    37   20   21 ar  
    38   20   37 1   
    39   21   22 ar  
    40   21   38 1   
    41   22   23 ar  
    42   22   39 1   
@<TRIPOS>SUBSTRUCTURE
     1 H4C         1 TEMP              0 ****  ****    0 ROOT
