@<TRIPOS>MOLECULE
H4C
   39    33     1     0     0
SMALL
bcc


@<TRIPOS>ATOM
      1 C          -2.6350    2.4010   -3.2600 c3        1 H4C     -0.230000
      2 N          -0.5600    1.1270    1.9450 n2        1 H4C     -0.027000
      3 S          -1.8590    1.2130   -0.4100 ss        1 H4C      0.648000
      4 CL          3.8770   -1.2050   -0.3260 cl        1 H4C      0.006000
      5 C1         -1.7180    1.1600   -3.2340 c3        1 H4C     -0.119000
      6 N1          0.2130    2.9660    2.8720 n2        1 H4C     -0.064000
      7 C2         -1.2010    0.9320   -1.7900 c2        1 H4C     -0.308000
      8 N2          1.2210    2.0790    2.7860 n2        1 H4C     -0.064000
      9 C3          0.0760    0.2320   -1.5510 c1        1 H4C     -0.127000
     10 N3          0.5280   -1.4220    2.1120 n1        1 H4C     -0.138000
     11 C4          0.2590    0.0480    0.0400 c1        1 H4C     -0.058000
     12 C5         -0.8970    0.6350    0.7040 c1        1 H4C     -0.366000
     13 C6         -0.8920    2.3910    2.3580 c1        1 H4C      0.046500
     14 C7         -2.0750    3.3800    2.5340 c2        1 H4C     -0.195000
     15 C8          0.7290    0.9340    2.2050 c1        1 H4C      0.046500
     16 C9          0.9470   -0.3780    2.9770 c1        1 H4C     -0.036000
     17 C10         0.6540   -1.2730    0.7040 c1        1 H4C      0.111000
     18 C11         1.2890   -2.4220   -0.1500 c2        1 H4C     -0.074000
     19 C12         0.5780   -3.5810   -0.3810 c2        1 H4C     -0.096000
     20 C13         1.1790   -4.6460   -1.0220 c1        1 H4C     -0.123000
     21 C14         2.4920   -4.5530   -1.4320 c1        1 H4C     -0.106500
     22 C15         3.2120   -3.3850   -1.2000 c1        1 H4C     -0.106500
     23 C16         2.6130   -2.3270   -0.5630 c1        1 H4C     -0.039000
     24 H          -2.9480    2.5430   -4.1430 hc        1 H4C      0.090667
     25 HA         -2.1090    3.2210   -2.9480 hc        1 H4C      0.090667
     26 HB         -3.4170    2.2520   -2.6480 hc        1 H4C      0.090667
     27 H1         -0.9590    1.3010   -3.8330 hc        1 H4C      0.124500
     28 H1A        -2.2170    0.3850   -3.5250 hc        1 H4C      0.124500
     29 HN1         0.2800    3.8210    3.1630 DU        1 H4C      0.265500
     30 H3          0.7120   -0.0710   -2.2480 DU        1 H4C      0.265500
     31 H7         -1.9170    4.2180    1.9490 ha        1 H4C      0.147333
     32 H7A        -2.9270    2.9310    2.2530 ha        1 H4C      0.147333
     33 H7B        -2.1430    3.6580    3.5130 ha        1 H4C      0.147333
     34 H9          1.8660   -0.3980    3.3440 ha        1 H4C      0.158000
     35 H9A         0.3820   -0.4380    3.8470 ha        1 H4C      0.158000
     36 H12        -0.3580   -3.6490   -0.0890 ha        1 H4C      0.137000
     37 H13         0.6670   -5.4760   -1.1860 ha        1 H4C      0.151000
     38 H14         2.9030   -5.2860   -1.8730 ha        1 H4C      0.159500
     39 H15         4.1580   -3.3170   -1.4950 ha        1 H4C      0.159500
@<TRIPOS>BOND
     1    1    5 1   
     2    1   24 1   
     3    1   25 1   
     4    1   26 1   
     5    2   13 1   
     6    2   15 1   
     7    3    7 1   
     8    3   12 1   
     9    4   23 1   
    10    5    7 1   
    11    5   27 1   
    12    5   28 1   
    13    6    8 1   
    14    6   13 1   
    15    7    9 1   
    16    8   15 1   
    17    9   11 1   
    18   10   17 1   
    19   11   12 1   
    20   14   31 1   
    21   14   32 1   
    22   14   33 1   
    23   16   34 1   
    24   16   35 1   
    25   17   18 1   
    26   18   19 1   
    27   18   23 1   
    28   19   20 1   
    29   19   36 1   
    30   20   37 1   
    31   21   22 1   
    32   21   38 1   
    33   22   39 1   
@<TRIPOS>SUBSTRUCTURE
     1 H4C         1 TEMP              0 ****  ****    0 ROOT
