@<TRIPOS>MOLECULE
H4C
   39    42     1     0     0
SMALL
bcc


@<TRIPOS>ATOM
      1 C           0.0410    4.8350    1.0820 c3        1 H4C     -0.093100
      2 N           2.1560   -0.8120    0.1470 na        1 H4C     -0.047000
      3 S           2.0220    1.8930   -0.2510 ss        1 H4C      0.101200
      4 CL         -1.4550   -1.1070   -2.0370 cl        1 H4C     -0.096400
      5 C1          0.3950    4.1150   -0.1990 c3        1 H4C     -0.027100
      6 N1          3.5590   -2.4470   -0.3040 na        1 H4C      0.018400
      7 C2          0.5640    2.6640    0.0030 cc        1 H4C     -0.045400
      8 N2          2.8310   -2.8980    0.7290 n2        1 H4C     -0.432800
      9 C3         -0.4250    1.7810    0.4010 cd        1 H4C     -0.123000
     10 N3         -0.4520   -1.7130    1.6040 n2        1 H4C     -0.556900
     11 C4          0.0470    0.4410    0.4900 cd        1 H4C     -0.141900
     12 C5          1.4070    0.3620    0.1440 cc        1 H4C     -0.131300
     13 C6          3.1800   -1.1800   -0.7150 cc        1 H4C      0.046100
     14 C7          3.7730   -0.4080   -1.8300 c3        1 H4C     -0.069800
     15 C8          1.9510   -1.9130    1.0360 cc        1 H4C      0.442800
     16 C9          0.8760   -1.9320    2.0920 c3        1 H4C      0.073500
     17 C10        -0.8070   -0.6800    0.9120 cf        1 H4C      0.569500
     18 C11        -2.2280   -0.5580    0.4960 ca        1 H4C     -0.158900
     19 C12        -3.2050   -0.2910    1.4620 ca        1 H4C     -0.088000
     20 C13        -4.5430   -0.1740    1.0900 ca        1 H4C     -0.123000
     21 C14        -4.9150   -0.3370   -0.2450 ca        1 H4C     -0.094000
     22 C15        -3.9530   -0.6200   -1.2130 ca        1 H4C     -0.118000
     23 C16        -2.6090   -0.7360   -0.8430 ca        1 H4C      0.042400
     24 H          -0.1210    5.9200    0.8690 hc        1 H4C      0.051033
     25 HA         -0.8950    4.4160    1.5240 hc        1 H4C      0.051033
     26 HB          0.8610    4.7410    1.8340 hc        1 H4C      0.051033
     27 H1         -0.4210    4.2820   -0.9570 hc        1 H4C      0.070700
     28 H1A         1.3370    4.5560   -0.6260 hc        1 H4C      0.070700
     29 HN1         4.2850   -3.0180   -0.6990 hn        1 H4C      0.384700
     30 H3         -1.4620    2.0600    0.6230 ha        1 H4C      0.194000
     31 H7          4.8220   -0.1080   -1.5700 hc        1 H4C      0.108700
     32 H7A         3.7950   -1.0360   -2.7600 hc        1 H4C      0.108700
     33 H7B         3.1720    0.5170   -2.0390 hc        1 H4C      0.108700
     34 H9          1.1590   -1.1800    2.8890 h1        1 H4C      0.116700
     35 H9A         0.8650   -2.9610    2.5660 h1        1 H4C      0.116700
     36 H12        -2.9140   -0.1820    2.5180 ha        1 H4C      0.150000
     37 H13        -5.3070    0.0380    1.8540 ha        1 H4C      0.155000
     38 H14        -5.9740   -0.2490   -0.5380 ha        1 H4C      0.156000
     39 H15        -4.2500   -0.7620   -2.2640 ha        1 H4C      0.162000
@<TRIPOS>BOND
     1    1    5 1   
     2    1   24 1   
     3    1   25 1   
     4    1   26 1   
     5    2   12 1   
     6    2   13 2   
     7    2   15 1   
     8    3    7 1   
     9    3   12 1   
    10    4   23 1   
    11    5    7 1   
    12    5   27 1   
    13    5   28 1   
    14    6    8 1   
    15    6   13 1   
    16    6   29 1   
    17    7    9 2   
    18    8   15 2   
    19    9   11 1   
    20    9   30 1   
    21   10   16 1   
    22   10   17 2   
    23   11   12 2   
    24   11   17 1   
    25   13   14 1   
    26   14   31 1   
    27   14   32 1   
    28   14   33 1   
    29   15   16 1   
    30   16   34 1   
    31   16   35 1   
    32   17   18 1   
    33   18   19 ar  
    34   18   23 ar  
    35   19   20 ar  
    36   19   36 1   
    37   20   21 ar  
    38   20   37 1   
    39   21   22 ar  
    40   21   38 1   
    41   22   23 ar  
    42   22   39 1   
@<TRIPOS>SUBSTRUCTURE
     1 H4C         1 TEMP              0 ****  ****    0 ROOT
