@<TRIPOS>MOLECULE
H4K
   32    24     1     0     0
SMALL
bcc


@<TRIPOS>ATOM
      1 N4          0.6700   -7.8140   -3.7260 n1        1 H4K     -0.069000
      2 C6          0.8250   -6.6970   -3.4150 c1        1 H4K      0.021500
      3 C4          1.0280   -5.2290   -3.0070 c1        1 H4K     -0.051333
      4 N2          2.1970   -4.6160   -3.2610 n1        1 H4K     -0.040000
      5 C3          2.3390   -3.2990   -2.9980 c1        1 H4K     -0.160000
      6 C5         -0.0340   -4.5060   -2.4720 c1        1 H4K     -0.084333
      7 N3          0.1090   -3.1960   -2.2110 n1        1 H4K     -0.069000
      8 C2          1.2810   -2.5810   -2.4650 c1        1 H4K      0.021500
      9 N1          1.4400   -1.1590   -2.1670 n2        1 H4K     -0.330000
     10 C1          0.5190   -0.5050   -1.2940 c2        1 H4K      0.407000
     11 O          -0.3970   -1.1290   -0.8000 o         1 H4K     -0.313000
     12 N5          0.7340    0.8960   -0.9260 n         1 H4K     -0.294000
     13 C7         -0.1270    1.5260    0.0060 c2        1 H4K      0.075000
     14 N6          1.0110    2.1540    0.4680 n2        1 H4K     -0.175000
     15 C15         0.9580    2.9270    1.6000 c1        1 H4K     -0.018000
     16 C14        -0.2570    3.0810    2.2910 c1        1 H4K     -0.051333
     17 C9         -1.3890    2.4560    1.8330 c1        1 H4K     -0.051333
     18 C8         -1.3330    1.6740    0.6880 c1        1 H4K     -0.147000
     19 C13        -0.3140    3.8790    3.4620 c1        1 H4K     -0.084333
     20 C12        -1.5110    4.0280    4.1400 c1        1 H4K     -0.120000
     21 C11        -2.6590    3.3940    3.6750 c1        1 H4K     -0.120000
     22 C10        -2.6060    2.6080    2.5250 c1        1 H4K     -0.084333
     23 H2          3.1870   -2.8540   -3.1820 ha        1 H4K      0.178000
     24 H3         -0.8930   -4.9550   -2.2850 ha        1 H4K      0.155667
     25 H1          2.1630   -0.7090   -2.4820 hn        1 H4K      0.243000
     26 H4          1.4090    1.3830   -1.3340 hn        1 H4K      0.232000
     27 H10         1.7830    3.3820    1.9330 ha        1 H4K      0.162000
     28 H5         -2.1610    1.2940    0.3110 ha        1 H4K      0.179000
     29 H9          0.5100    4.3350    3.7960 ha        1 H4K      0.155667
     30 H8         -1.5490    4.5760    4.9440 ha        1 H4K      0.137000
     31 H7         -3.5090    3.5000    4.1590 ha        1 H4K      0.137000
     32 H6         -3.4230    2.1580    2.1950 ha        1 H4K      0.155667
@<TRIPOS>BOND
     1    1    2 1   
     2    3    6 1   
     3    4    5 1   
     4    5   23 1   
     5    6   24 1   
     6    7    8 1   
     7    9   10 1   
     8    9   25 1   
     9   10   11 1   
    10   10   12 1   
    11   12   13 1   
    12   12   26 1   
    13   13   14 1   
    14   13   18 1   
    15   14   15 1   
    16   15   27 1   
    17   16   19 1   
    18   17   22 1   
    19   18   28 1   
    20   19   29 1   
    21   20   21 1   
    22   20   30 1   
    23   21   31 1   
    24   22   32 1   
@<TRIPOS>SUBSTRUCTURE
     1 H4K         1 TEMP              0 ****  ****    0 ROOT
