@<TRIPOS>MOLECULE
H4K
   32    34     1     0     0
SMALL
bcc


@<TRIPOS>ATOM
      1 N4         -0.4580   -2.1330   -2.0800 n1        1 H4K     -0.339800
      2 C6         -0.0690   -1.5850   -1.1320 cg        1 H4K      0.140800
      3 C4          0.3940   -0.9180    0.0400 ca        1 H4K      0.322000
      4 N2          1.4680   -0.0830   -0.0380 nb        1 H4K     -0.564000
      5 C3          1.8590    0.5020    1.0960 ca        1 H4K      0.232900
      6 C5         -0.2770   -1.1380    1.2750 ca        1 H4K      0.367900
      7 N3          0.0990   -0.5540    2.4230 nb        1 H4K     -0.651000
      8 C2          1.1880    0.2770    2.3610 ca        1 H4K      0.467900
      9 N1          1.6420    0.9580    3.4890 ns        1 H4K     -0.570400
     10 C1          1.4060    0.5180    4.8250 c         1 H4K      0.780100
     11 O           1.2140   -0.6830    5.0820 o         1 H4K     -0.553100
     12 N5          1.5140    1.5140    5.8220 ns        1 H4K     -0.526400
     13 C7          1.0650    1.2600    7.1470 ca        1 H4K      0.488200
     14 N6          0.4180    2.3200    7.7880 nb        1 H4K     -0.698000
     15 C15         0.0520    2.1500    9.0410 ca        1 H4K      0.448200
     16 C14         0.2620    0.9480    9.7960 ca        1 H4K     -0.174300
     17 C9          0.9110   -0.1260    9.1370 ca        1 H4K      0.001000
     18 C8          1.3190    0.0440    7.7870 ca        1 H4K     -0.217300
     19 C13        -0.1500    0.8040   11.1430 ca        1 H4K     -0.097000
     20 C12         0.0780   -0.3770   11.8090 ca        1 H4K     -0.132000
     21 C11         0.7240   -1.4540   11.1550 ca        1 H4K     -0.108000
     22 C10         1.1330   -1.3370    9.8480 ca        1 H4K     -0.122000
     23 H2          2.7300    1.1750    1.0170 h4        1 H4K      0.039100
     24 H3         -1.1550   -1.8080    1.3420 h4        1 H4K      0.050100
     25 H1          2.2980    1.6890    3.3270 hn        1 H4K      0.335500
     26 H4          1.4170    2.4650    5.5240 hn        1 H4K      0.323500
     27 H10        -0.4560    3.0090    9.5200 h4        1 H4K      0.026100
     28 H5          1.8110   -0.7910    7.2660 ha        1 H4K      0.175000
     29 H9         -0.6520    1.6480   11.6400 ha        1 H4K      0.136000
     30 H8         -0.2390   -0.5000   12.8550 ha        1 H4K      0.137000
     31 H7          0.8920   -2.3890   11.7100 ha        1 H4K      0.137000
     32 H6          1.6320   -2.1700    9.3310 ha        1 H4K      0.143000
@<TRIPOS>BOND
     1    1    2 3   
     2    2    3 1   
     3    3    4 ar  
     4    3    6 ar  
     5    4    5 ar  
     6    5    8 ar  
     7    5   23 1   
     8    6    7 ar  
     9    6   24 1   
    10    7    8 ar  
    11    8    9 1   
    12    9   10 1   
    13    9   25 1   
    14   10   11 2   
    15   10   12 1   
    16   12   13 1   
    17   12   26 1   
    18   13   14 ar  
    19   13   18 ar  
    20   14   15 ar  
    21   15   16 ar  
    22   15   27 1   
    23   16   17 ar  
    24   16   19 ar  
    25   17   18 ar  
    26   17   22 ar  
    27   18   28 1   
    28   19   20 ar  
    29   19   29 1   
    30   20   21 ar  
    31   20   30 1   
    32   21   22 ar  
    33   21   31 1   
    34   22   32 1   
@<TRIPOS>SUBSTRUCTURE
     1 H4K         1 TEMP              0 ****  ****    0 ROOT
