@<TRIPOS>MOLECULE
H4K
   34    36     1     0     0
SMALL
bcc


@<TRIPOS>ATOM
      1 N4         -2.4580   -1.1280   -0.7160 n1        1 H4K     -0.166800
      2 C6         -1.6670   -0.7780    0.0620 cg        1 H4K      0.058800
      3 C4         -0.7000   -0.3510    1.0180 ca        1 H4K      0.517000
      4 N2          0.2150    0.5890    0.6900 nb        1 H4K     -0.554000
      5 C3          1.1100    0.9480    1.6340 ca        1 H4K      0.387900
      6 C5         -0.7210   -0.9510    2.3350 ca        1 H4K      0.359900
      7 N3          0.1560   -0.6030    3.2750 nb        1 H4K     -0.615000
      8 C2          1.0700    0.3600    2.9280 ca        1 H4K      0.284900
      9 N1          2.0230    0.7860    3.9750 n4        1 H4K     -0.609500
     10 C1          2.7460   -0.3840    4.5610 c         1 H4K      0.507100
     11 O           2.9910   -1.3970    3.9290 o         1 H4K     -0.294100
     12 N5          3.2000   -0.2960    5.9930 n4        1 H4K     -0.608500
     13 C7          2.1340    0.0540    6.9600 ca        1 H4K      0.356200
     14 N6          1.3630    1.1640    6.6330 nb        1 H4K     -0.784000
     15 C15         0.4630    1.5580    7.5130 ca        1 H4K      0.532200
     16 C14         0.2390    0.9040    8.7750 ca        1 H4K     -0.136300
     17 C9          1.0180   -0.2550    9.0730 ca        1 H4K     -0.042000
     18 C8          1.9890   -0.6890    8.1260 ca        1 H4K     -0.075300
     19 C13        -0.7170    1.3620    9.7020 ca        1 H4K     -0.092000
     20 C12        -0.8980    0.6830   10.8960 ca        1 H4K     -0.054000
     21 C11        -0.1350   -0.4650   11.1910 ca        1 H4K     -0.065000
     22 C10         0.8110   -0.9320   10.2960 ca        1 H4K     -0.092000
     23 H2          1.8420    1.7210    1.3240 h4        1 H4K      0.078100
     24 H3         -1.4700   -1.7270    2.6030 h4        1 H4K      0.100100
     25 H1          1.4860    1.2950    4.7430 hn        1 H4K      0.517800
     26 H4          3.5830   -1.2280    6.2480 hn        1 H4K      0.501800
     27 H10        -0.1420    2.4490    7.2380 h4        1 H4K      0.070100
     28 H5          2.5950   -1.5820    8.3570 ha        1 H4K      0.181000
     29 H9         -1.3150    2.2600    9.4730 ha        1 H4K      0.174000
     30 H8         -1.6450    1.0400   11.6290 ha        1 H4K      0.187000
     31 H7         -0.2970   -0.9910   12.1500 ha        1 H4K      0.187000
     32 H6          1.4080   -1.8300   10.5320 ha        1 H4K      0.170000
     33 H12         2.7110    1.4260    3.5500 hn        1 H4K      0.517800
     34 H52         3.9570    0.4060    6.0680 hn        1 H4K      0.501800
@<TRIPOS>BOND
     1    1    2 3   
     2    2    3 1   
     3    3    4 ar  
     4    3    6 ar  
     5    4    5 ar  
     6    5    8 ar  
     7    5   23 1   
     8    6    7 ar  
     9    6   24 1   
    10    7    8 ar  
    11    8    9 1   
    12    9   10 1   
    13    9   25 1   
    14    9   33 1   
    15   10   11 2   
    16   10   12 1   
    17   12   13 1   
    18   12   26 1   
    19   12   34 1   
    20   13   14 ar  
    21   13   18 ar  
    22   14   15 ar  
    23   15   16 ar  
    24   15   27 1   
    25   16   17 ar  
    26   16   19 ar  
    27   17   18 ar  
    28   17   22 ar  
    29   18   28 1   
    30   19   20 ar  
    31   19   29 1   
    32   20   21 ar  
    33   20   30 1   
    34   21   22 ar  
    35   21   31 1   
    36   22   32 1   
@<TRIPOS>SUBSTRUCTURE
     1 H4K         1 TEMP              0 ****  ****    0 ROOT
