@<TRIPOS>MOLECULE
H4K
   32    34     1     0     0
SMALL
bcc


@<TRIPOS>ATOM
      1 N4         -7.4100    0.8530    2.0730 n1        1 H4K     -0.339800
      2 C6         -6.4370    0.4770    1.5610 cg        1 H4K      0.140800
      3 C4         -5.2350    0.0290    0.9400 ca        1 H4K      0.322000
      4 N2         -5.2480   -1.1030    0.1790 nb        1 H4K     -0.564000
      5 C3         -4.0890   -1.4740   -0.3670 ca        1 H4K      0.232900
      6 C5         -4.0380    0.7750    1.1240 ca        1 H4K      0.367900
      7 N3         -2.8650    0.4190    0.5780 nb        1 H4K     -0.651000
      8 C2         -2.8620   -0.7270   -0.1760 ca        1 H4K      0.467900
      9 N1         -1.7040   -1.1680   -0.8140 n         1 H4K     -0.570400
     10 C1         -0.3870   -0.8350   -0.3780 c         1 H4K      0.780100
     11 O          -0.1550   -0.5490    0.8090 o         1 H4K     -0.553100
     12 N5          0.6270   -0.9600   -1.3550 n         1 H4K     -0.526400
     13 C7          1.9240   -0.4280   -1.1200 ca        1 H4K      0.488200
     14 N6          2.5460    0.1770   -2.2160 nb        1 H4K     -0.698000
     15 C15         3.7770    0.6160   -2.0590 ca        1 H4K      0.448200
     16 C14         4.5260    0.5270   -0.8390 ca        1 H4K     -0.174300
     17 C9          3.8860   -0.0790    0.2710 ca        1 H4K      0.001000
     18 C8          2.5610   -0.5660    0.1160 ca        1 H4K     -0.217300
     19 C13         5.8490    1.0160   -0.7120 ca        1 H4K     -0.097000
     20 C12         6.5100    0.9030    0.4890 ca        1 H4K     -0.132000
     21 C11         5.8750    0.3000    1.6020 ca        1 H4K     -0.108000
     22 C10         4.5920   -0.1810    1.5000 ca        1 H4K     -0.122000
     23 H2         -4.1150   -2.3920   -0.9790 h4        1 H4K      0.039100
     24 H3         -4.0240    1.6990    1.7320 h4        1 H4K      0.050100
     25 H1         -1.8230   -1.8790   -1.4990 hn        1 H4K      0.335500
     26 H4          0.3370   -0.9430   -2.3130 hn        1 H4K      0.323500
     27 H10         4.2410    1.0870   -2.9470 h4        1 H4K      0.026100
     28 H5          2.0540   -1.0260    0.9790 ha        1 H4K      0.175000
     29 H9          6.3310    1.4840   -1.5830 ha        1 H4K      0.136000
     30 H8          7.5370    1.2800    0.6000 ha        1 H4K      0.137000
     31 H7          6.4260    0.2240    2.5520 ha        1 H4K      0.137000
     32 H6          4.0900   -0.6480    2.3610 ha        1 H4K      0.143000
@<TRIPOS>BOND
     1    1    2 3   
     2    2    3 1   
     3    3    4 ar  
     4    3    6 ar  
     5    4    5 ar  
     6    5    8 ar  
     7    5   23 1   
     8    6    7 ar  
     9    6   24 1   
    10    7    8 ar  
    11    8    9 1   
    12    9   10 1   
    13    9   25 1   
    14   10   11 2   
    15   10   12 1   
    16   12   13 1   
    17   12   26 1   
    18   13   14 ar  
    19   13   18 ar  
    20   14   15 ar  
    21   15   16 ar  
    22   15   27 1   
    23   16   17 ar  
    24   16   19 ar  
    25   17   18 ar  
    26   17   22 ar  
    27   18   28 1   
    28   19   20 ar  
    29   19   29 1   
    30   20   21 ar  
    31   20   30 1   
    32   21   22 ar  
    33   21   31 1   
    34   22   32 1   
@<TRIPOS>SUBSTRUCTURE
     1 H4K         1 TEMP              0 ****  ****    0 ROOT
