@<TRIPOS>MOLECULE
H4K
   32    34     1     0     0
SMALL
bcc


@<TRIPOS>ATOM
      1 N4         -1.1070   -1.1250   -1.8710 n1        1 H4K     -0.335800
      2 C6         -0.4940   -0.7850   -0.9430 cg        1 H4K      0.139800
      3 C4          0.2450   -0.3740    0.2040 ca        1 H4K      0.319000
      4 N2          1.4540    0.2410    0.0440 nb        1 H4K     -0.558000
      5 C3          2.0970    0.6010    1.1530 ca        1 H4K      0.237900
      6 C5         -0.2900   -0.6130    1.4980 ca        1 H4K      0.379900
      7 N3          0.3480   -0.2550    2.6240 nb        1 H4K     -0.714000
      8 C2          1.5620    0.3630    2.4850 ca        1 H4K      0.465900
      9 N1          2.3100    0.7810    3.5750 n         1 H4K     -0.547400
     10 C1          2.0450    0.6820    4.9670 c         1 H4K      0.785100
     11 O           2.9010    1.2380    5.6940 o         1 H4K     -0.614100
     12 N5          0.9650   -0.0480    5.4600 n         1 H4K     -0.512400
     13 C7          0.5720    0.0590    6.8220 ca        1 H4K      0.493200
     14 N6         -0.8040   -0.0040    7.0620 nb        1 H4K     -0.692000
     15 C15        -1.2120    0.0260    8.3130 ca        1 H4K      0.447200
     16 C14        -0.3460    0.1280    9.4520 ca        1 H4K     -0.174300
     17 C9          1.0470    0.1990    9.2010 ca        1 H4K      0.001000
     18 C8          1.5040    0.1580    7.8570 ca        1 H4K     -0.222300
     19 C13        -0.8260    0.1610   10.7840 ca        1 H4K     -0.097000
     20 C12         0.0590    0.2630   11.8310 ca        1 H4K     -0.133000
     21 C11         1.4520    0.3350   11.5860 ca        1 H4K     -0.109000
     22 C10         1.9400    0.3050   10.3020 ca        1 H4K     -0.122000
     23 H2          3.0730    1.0980    1.0080 h4        1 H4K      0.045100
     24 H3         -1.2680   -1.1090    1.6350 h4        1 H4K      0.051100
     25 H1          3.1710    1.2480    3.3680 hn        1 H4K      0.353500
     26 H4          0.2470   -0.3440    4.8270 hn        1 H4K      0.359500
     27 H10        -2.3070   -0.0290    8.4680 h4        1 H4K      0.026100
     28 H5          2.5850    0.2220    7.6570 ha        1 H4K      0.177000
     29 H9         -1.9110    0.1050   10.9610 ha        1 H4K      0.136000
     30 H8         -0.3030    0.2900   12.8700 ha        1 H4K      0.137000
     31 H7          2.1390    0.4180   12.4420 ha        1 H4K      0.137000
     32 H6          3.0210    0.3630   10.1030 ha        1 H4K      0.143000
@<TRIPOS>BOND
     1    1    2 3   
     2    2    3 1   
     3    3    4 ar  
     4    3    6 ar  
     5    4    5 ar  
     6    5    8 ar  
     7    5   23 1   
     8    6    7 ar  
     9    6   24 1   
    10    7    8 ar  
    11    8    9 1   
    12    9   10 1   
    13    9   25 1   
    14   10   11 2   
    15   10   12 1   
    16   12   13 1   
    17   12   26 1   
    18   13   14 ar  
    19   13   18 ar  
    20   14   15 ar  
    21   15   16 ar  
    22   15   27 1   
    23   16   17 ar  
    24   16   19 ar  
    25   17   18 ar  
    26   17   22 ar  
    27   18   28 1   
    28   19   20 ar  
    29   19   29 1   
    30   20   21 ar  
    31   20   30 1   
    32   21   22 ar  
    33   21   31 1   
    34   22   32 1   
@<TRIPOS>SUBSTRUCTURE
     1 H4K         1 TEMP              0 ****  ****    0 ROOT
