@<TRIPOS>MOLECULE
H4P
   37    36     1     0     0
SMALL
bcc


@<TRIPOS>ATOM
      1 OA4         0.5560   -0.5360   -0.0470 oh        1 H4P     -0.671800
      2 CA4         1.7930    0.1080    0.2330 c3        1 H4P      0.063100
      3 CA5         1.9510    0.3700    1.7550 c3        1 H4P      0.217400
      4 OP4         1.4760   -0.7050    2.4560 os        1 H4P     -0.568200
      5 PA          2.7270   -1.5920    3.3100 p5        1 H4P      1.311900
      6 OP1         1.9600   -2.7680    3.8460 o         1 H4P     -0.930833
      7 OP2         3.6700   -1.8540    2.1660 o         1 H4P     -0.930833
      8 OP3         3.1970   -0.5750    4.3130 o         1 H4P     -0.930833
      9 CA3         1.8410    1.4040   -0.5950 c3        1 H4P      0.105100
     10 OA3         3.1740    1.8670   -0.7570 oh        1 H4P     -0.629800
     11 CA2         1.1610    1.2430   -1.9700 c3        1 H4P      0.098100
     12 OA2         1.6350    0.0940   -2.6610 oh        1 H4P     -0.630800
     13 CA1         1.4140    2.4330   -2.9190 c3        1 H4P      0.116100
     14 OA1         1.4030    3.6660   -2.2140 oh        1 H4P     -0.621800
     15 C3          0.2890    2.5110   -3.9720 c3        1 H4P      0.170800
     16 N           0.3660    3.5460   -4.9730 n3        1 H4P     -0.791200
     17 C4          1.2430    3.2980   -6.0850 c3        1 H4P     -0.084400
     18 P           1.1100    4.5360   -7.2640 p5        1 H4P      1.340600
     19 O1P         2.3950    4.5960   -8.0030 o         1 H4P     -0.875000
     20 O2P        -0.1900    4.5130   -7.9810 o         1 H4P     -0.875000
     21 O3P         0.9740    5.9260   -6.3850 oh        1 H4P     -0.793400
     22 HA4         0.3380   -1.0480    0.7510 ho        1 H4P      0.454000
     23 H1          2.6220   -0.5860   -0.0930 h1        1 H4P      0.064700
     24 HA51        3.0360    0.5660    1.9740 h1        1 H4P     -0.001300
     25 HA52        1.3440    1.2910    2.0060 h1        1 H4P     -0.001300
     26 HA3         1.3200    2.2360   -0.0410 h1        1 H4P      0.068700
     27 H2          3.7360    1.0910   -0.8760 ho        1 H4P      0.415000
     28 HA2         0.0560    1.1280   -1.7810 h1        1 H4P      0.047700
     29 H3          1.4690   -0.6600   -2.0780 ho        1 H4P      0.428000
     30 HA1         2.4120    2.2920   -3.4190 h1        1 H4P      0.047700
     31 H4          2.1700    3.6540   -1.6270 ho        1 H4P      0.417000
     32 H31         0.2460    1.5030   -4.4700 h1        1 H4P      0.045700
     33 H32        -0.6800    2.6790   -3.4190 h1        1 H4P      0.045700
     34 HN          0.6230    4.4230   -4.5500 hn        1 H4P      0.369800
     35 H41         2.3180    3.1720   -5.7780 h1        1 H4P      0.046200
     36 H42         0.9450    2.3240   -6.5590 h1        1 H4P      0.046200
     37 HN3         0.0820    6.2490   -6.4010 ho        1 H4P      0.417000
@<TRIPOS>BOND
     1    1    2 1   
     2    1   22 1   
     3    2    3 1   
     4    2    9 1   
     5    2   23 1   
     6    3    4 1   
     7    3   24 1   
     8    3   25 1   
     9    4    5 1   
    10    5    6 1   
    11    5    7 1   
    12    5    8 1   
    13    9   10 1   
    14    9   11 1   
    15    9   26 1   
    16   10   27 1   
    17   11   12 1   
    18   11   13 1   
    19   11   28 1   
    20   12   29 1   
    21   13   14 1   
    22   13   15 1   
    23   13   30 1   
    24   14   31 1   
    25   15   16 1   
    26   15   32 1   
    27   15   33 1   
    28   16   17 1   
    29   16   34 1   
    30   17   18 1   
    31   17   35 1   
    32   17   36 1   
    33   18   19 1   
    34   18   20 1   
    35   18   21 1   
    36   21   37 1   
@<TRIPOS>SUBSTRUCTURE
     1 H4P         1 TEMP              0 ****  ****    0 ROOT
