@<TRIPOS>MOLECULE
H4P
   37    36     1     0     0
SMALL
bcc


@<TRIPOS>ATOM
      1 OA4         0.5110   -0.4930   -0.0230 oh        1 H4P     -0.671800
      2 CA4         1.7730    0.1100    0.2370 c3        1 H4P      0.063100
      3 CA5         1.9600    0.3740    1.7550 c3        1 H4P      0.217400
      4 OP4         1.4600   -0.6810    2.4690 os        1 H4P     -0.568200
      5 PA          2.6930   -1.6050    3.3100 p5        1 H4P      1.311900
      6 OP1         1.8950   -2.7520    3.8620 o         1 H4P     -0.930833
      7 OP2         3.6110   -1.9040    2.1540 o         1 H4P     -0.930833
      8 OP3         3.2110   -0.5990    4.3000 o         1 H4P     -0.930833
      9 CA3         1.8510    1.4000   -0.5980 c3        1 H4P      0.105100
     10 OA3         3.1970    1.8170   -0.7810 oh        1 H4P     -0.629800
     11 CA2         1.1470    1.2550   -1.9620 c3        1 H4P      0.098100
     12 OA2         1.5740    0.0880   -2.6540 oh        1 H4P     -0.630800
     13 CA1         1.4260    2.4320   -2.9210 c3        1 H4P      0.116100
     14 OA1         1.4650    3.6670   -2.2230 oh        1 H4P     -0.621800
     15 C3          0.2890    2.5420   -3.9590 c3        1 H4P      0.170800
     16 N           0.3860    3.5700   -4.9660 n7        1 H4P     -0.791200
     17 C4          1.2390    3.2880   -6.0880 c3        1 H4P     -0.084400
     18 P           1.1300    4.5230   -7.2720 p5        1 H4P      1.340600
     19 O1P         2.4060    4.5370   -8.0290 o         1 H4P     -0.875000
     20 O2P        -0.1800    4.5390   -7.9710 o         1 H4P     -0.875000
     21 O3P         1.0520    5.9210   -6.3990 oh        1 H4P     -0.793400
     22 HA4         0.2870   -0.9950    0.7810 ho        1 H4P      0.454000
     23 H1          2.5740   -0.6120   -0.0970 h1        1 H4P      0.063700
     24 HA51        3.0540    0.5350    1.9580 h1        1 H4P     -0.001300
     25 HA52        1.3880    1.3160    2.0100 h1        1 H4P     -0.001300
     26 HA3         1.3660    2.2510   -0.0420 h1        1 H4P      0.068700
     27 H2          3.7310    1.0230   -0.9050 ho        1 H4P      0.415000
     28 HA2         0.0420    1.1780   -1.7580 h1        1 H4P      0.047700
     29 H3          1.3900   -0.6580   -2.0650 ho        1 H4P      0.428000
     30 HA1         2.4120    2.2560   -3.4340 h1        1 H4P      0.047700
     31 H4          2.2400    3.6330   -1.6460 ho        1 H4P      0.417000
     32 H31         0.2060    1.5330   -4.4510 h1        1 H4P      0.045700
     33 H32        -0.6650    2.7450   -3.3930 h1        1 H4P      0.045700
     34 HN          0.6770    4.4390   -4.5510 hn        1 H4P      0.369800
     35 H41         2.3130    3.1270   -5.7970 h1        1 H4P      0.046200
     36 H42         0.9030    2.3220   -6.5530 h1        1 H4P      0.046200
     37 HN3         0.1700    6.2730   -6.4040 ho        1 H4P      0.417000
@<TRIPOS>BOND
     1    1    2 1   
     2    1   22 1   
     3    2    3 1   
     4    2    9 1   
     5    2   23 1   
     6    3    4 1   
     7    3   24 1   
     8    3   25 1   
     9    4    5 1   
    10    5    6 1   
    11    5    7 1   
    12    5    8 1   
    13    9   10 1   
    14    9   11 1   
    15    9   26 1   
    16   10   27 1   
    17   11   12 1   
    18   11   13 1   
    19   11   28 1   
    20   12   29 1   
    21   13   14 1   
    22   13   15 1   
    23   13   30 1   
    24   14   31 1   
    25   15   16 1   
    26   15   32 1   
    27   15   33 1   
    28   16   17 1   
    29   16   34 1   
    30   17   18 1   
    31   17   35 1   
    32   17   36 1   
    33   18   19 1   
    34   18   20 1   
    35   18   21 1   
    36   21   37 1   
@<TRIPOS>SUBSTRUCTURE
     1 H4P         1 TEMP              0 ****  ****    0 ROOT
