@<TRIPOS>MOLECULE
H4P
   37    36     1     0     0
SMALL
bcc


@<TRIPOS>ATOM
      1 OA4         0.5740   -0.5550   -0.0590 oh        1 H4P     -0.671800
      2 CA4         1.7980    0.1090    0.2340 c3        1 H4P      0.063100
      3 CA5         1.9360    0.3720    1.7570 c3        1 H4P      0.217400
      4 OP4         1.4730   -0.7130    2.4520 os        1 H4P     -0.568200
      5 PA          2.7320   -1.5800    3.3160 p5        1 H4P      1.311900
      6 OP1         1.9800   -2.7690    3.8430 o         1 H4P     -0.930833
      7 OP2         3.6890   -1.8240    2.1800 o         1 H4P     -0.930833
      8 OP3         3.1750   -0.5560    4.3250 o         1 H4P     -0.930833
      9 CA3         1.8310    1.4070   -0.5920 c3        1 H4P      0.105100
     10 OA3         3.1580    1.8930   -0.7400 oh        1 H4P     -0.629800
     11 CA2         1.1680    1.2370   -1.9740 c3        1 H4P      0.098100
     12 OA2         1.6680    0.0970   -2.6620 oh        1 H4P     -0.630800
     13 CA1         1.4100    2.4330   -2.9180 c3        1 H4P      0.116100
     14 OA1         1.3700    3.6640   -2.2120 oh        1 H4P     -0.621800
     15 C3          0.2940    2.4930   -3.9830 c3        1 H4P      0.170800
     16 N           0.3640    3.5310   -4.9820 n3        1 H4P     -0.791200
     17 C4          1.2560    3.3000   -6.0850 c3        1 H4P     -0.084400
     18 P           1.1140    4.5370   -7.2630 p5        1 H4P      1.340600
     19 O1P         2.4050    4.6200   -7.9890 o         1 H4P     -0.875000
     20 O2P        -0.1780    4.4920   -7.9940 o         1 H4P     -0.875000
     21 O3P         0.9450    5.9230   -6.3840 oh        1 H4P     -0.793400
     22 HA4         0.3570   -1.0720    0.7360 ho        1 H4P      0.454000
     23 H1          2.6410   -0.5700   -0.0860 h1        1 H4P      0.064700
     24 HA51        3.0160    0.5860    1.9870 h1        1 H4P     -0.001300
     25 HA52        1.3120    1.2820    2.0030 h1        1 H4P     -0.001300
     26 HA3         1.2910    2.2290   -0.0430 h1        1 H4P      0.068700
     27 H2          3.7340    1.1270   -0.8540 ho        1 H4P      0.415000
     28 HA2         0.0630    1.1030   -1.7960 h1        1 H4P      0.047700
     29 H3          1.5080   -0.6610   -2.0810 ho        1 H4P      0.428000
     30 HA1         2.4160    2.3100   -3.4090 h1        1 H4P      0.047700
     31 H4          2.1320    3.6640   -1.6170 ho        1 H4P      0.417000
     32 H31         0.2740    1.4850   -4.4830 h1        1 H4P      0.045700
     33 H32        -0.6820    2.6440   -3.4390 h1        1 H4P      0.045700
     34 HN          0.0470    6.2310   -6.4090 ho        1 H4P      0.417000
     35 H41         0.9800    2.3220   -6.5630 h1        1 H4P      0.046200
     36 H42         2.3300    3.1920   -5.7680 h1        1 H4P      0.046200
     37 HN3         0.6010    4.4110   -4.5550 hn        1 H4P      0.369800
@<TRIPOS>BOND
     1    1    2 1   
     2    1   22 1   
     3    2    3 1   
     4    2    9 1   
     5    2   23 1   
     6    3    4 1   
     7    3   24 1   
     8    3   25 1   
     9    4    5 1   
    10    5    6 1   
    11    5    7 1   
    12    5    8 1   
    13    9   10 1   
    14    9   11 1   
    15    9   26 1   
    16   10   27 1   
    17   11   12 1   
    18   11   13 1   
    19   11   28 1   
    20   12   29 1   
    21   13   14 1   
    22   13   15 1   
    23   13   30 1   
    24   14   31 1   
    25   15   16 1   
    26   15   32 1   
    27   15   33 1   
    28   16   17 1   
    29   16   37 1   
    30   17   18 1   
    31   17   35 1   
    32   17   36 1   
    33   18   19 1   
    34   18   20 1   
    35   18   21 1   
    36   21   34 1   
@<TRIPOS>SUBSTRUCTURE
     1 H4P         1 TEMP              0 ****  ****    0 ROOT
