@<TRIPOS>MOLECULE
H4P
   36    35     1     0     0
SMALL
bcc


@<TRIPOS>ATOM
      1 OA4         1.5750   -0.3880   -2.0930 oh        1 H4P     -0.646800
      2 CA4         0.1690   -0.3240   -2.2760 c3        1 H4P      0.084100
      3 CA5        -0.1960    0.4130   -3.5940 c3        1 H4P      0.186400
      4 OP4         0.7030    0.0800   -4.5740 os        1 H4P     -0.575200
      5 PA          0.0260   -0.2760   -6.1440 p5        1 H4P      1.320900
      6 OP1        -0.1570    1.0930   -6.7430 o         1 H4P     -0.935833
      7 OP2         1.1130   -1.1180   -6.7570 o         1 H4P     -0.935833
      8 OP3        -1.2520   -0.9910   -5.7900 o         1 H4P     -0.935833
      9 CA3        -0.4290    0.3750   -1.0390 c3        1 H4P      0.110100
     10 OA3        -1.8210    0.6330   -1.2130 oh        1 H4P     -0.634800
     11 CA2        -0.2660   -0.4730    0.2420 c3        1 H4P      0.096100
     12 OA2        -1.2280   -1.5190    0.2530 oh        1 H4P     -0.612800
     13 CA1        -0.4010    0.3860    1.5240 c3        1 H4P      0.109100
     14 OA1         0.6270    1.3650    1.5320 oh        1 H4P     -0.611800
     15 C3         -0.3770   -0.5090    2.7800 c3        1 H4P      0.146800
     16 N          -0.6650    0.1840    4.0190 n3        1 H4P     -0.795200
     17 C4         -0.7600   -0.6830    5.1550 c3        1 H4P     -0.032400
     18 P          -0.2180    0.1570    6.6770 p5        1 H4P      1.211700
     19 O1P        -1.4600    0.7750    7.2790 o         1 H4P     -0.959833
     20 O2P         0.3340   -0.9960    7.4940 o         1 H4P     -0.959833
     21 O3P         0.8360    1.1410    6.2100 o         1 H4P     -0.959833
     22 HA4         1.9640   -0.3130   -2.9810 ho        1 H4P      0.441000
     23 H1         -0.2190   -1.3800   -2.3150 h1        1 H4P      0.034700
     24 HA51       -0.1500    1.5210   -3.3700 h1        1 H4P      0.006200
     25 HA52       -1.2450    0.1370   -3.8980 h1        1 H4P      0.006200
     26 HA3         0.0560    1.3760   -0.8770 h1        1 H4P      0.079700
     27 H2         -2.1320    0.0680   -1.9300 ho        1 H4P      0.410000
     28 HA2         0.7310   -0.9910    0.2170 h1        1 H4P      0.082700
     29 H3         -2.0920   -1.0890    0.2450 ho        1 H4P      0.395000
     30 HA1        -1.3610    0.9710    1.4650 h1        1 H4P      0.066700
     31 H4          1.3220    1.0500    2.1230 ho        1 H4P      0.403000
     32 H31        -1.1600   -1.3060    2.6360 h1        1 H4P      0.006700
     33 H32         0.6260   -1.0370    2.7860 h1        1 H4P      0.006700
     34 HN          0.0420    0.8840    4.2060 hn        1 H4P      0.386800
     35 H41        -1.8230   -1.0000    5.2790 h1        1 H4P      0.003200
     36 H42        -0.1370   -1.6090    5.0660 h1        1 H4P      0.003200
@<TRIPOS>BOND
     1    1    2 1   
     2    1   22 1   
     3    2    3 1   
     4    2    9 1   
     5    2   23 1   
     6    3    4 1   
     7    3   24 1   
     8    3   25 1   
     9    4    5 1   
    10    5    6 1   
    11    5    7 1   
    12    5    8 1   
    13    9   10 1   
    14    9   11 1   
    15    9   26 1   
    16   10   27 1   
    17   11   12 1   
    18   11   13 1   
    19   11   28 1   
    20   12   29 1   
    21   13   14 1   
    22   13   15 1   
    23   13   30 1   
    24   14   31 1   
    25   15   16 1   
    26   15   32 1   
    27   15   33 1   
    28   16   17 1   
    29   16   34 1   
    30   17   18 1   
    31   17   35 1   
    32   17   36 1   
    33   18   19 1   
    34   18   20 1   
    35   18   21 1   
@<TRIPOS>SUBSTRUCTURE
     1 H4P         1 TEMP              0 ****  ****    0 ROOT
