@<TRIPOS>MOLECULE
H4W
   57    59     1     0     0
SMALL
bcc


@<TRIPOS>ATOM
      1 F23         0.0380    0.5400   -0.1220 f         1 H4W     -0.142900
      2 C23         1.3590    0.2460   -0.0590 ca        1 H4W      0.125900
      3 C22         2.0130    0.2410    1.1870 ca        1 H4W     -0.165000
      4 C21         3.3750   -0.0610    1.2510 ca        1 H4W     -0.051300
      5 C26         4.0770   -0.3550    0.0750 ca        1 H4W     -0.144000
      6 C25         3.4250   -0.3480   -1.1560 ca        1 H4W     -0.103000
      7 C24         2.0670   -0.0500   -1.2380 ca        1 H4W     -0.169000
      8 C14         4.0810   -0.0620    2.5620 c3        1 H4W     -0.040100
      9 C13         4.4140   -1.4700    3.0180 c3        1 H4W     -0.075400
     10 C12         5.1630   -1.4500    4.3340 c3        1 H4W     -0.079400
     11 C11         5.4970   -2.8540    4.7880 c3        1 H4W     -0.084400
     12 C10         6.2460   -2.8200    6.1080 c3        1 H4W      0.130400
     13 O09         6.5360   -4.1760    6.4450 os        1 H4W     -0.423600
     14 C3'         7.2000   -4.3060    7.6990 c3        1 H4W      0.113100
     15 C2'         6.1710   -4.3380    8.8600 c3        1 H4W      0.116800
     16 N1'         6.0460   -5.7020    9.3550 n3        1 H4W     -0.788200
     17 C5'         7.2060   -6.4530    8.8830 c3        1 H4W      0.140800
     18 C4'         7.9210   -5.6720    7.7550 c3        1 H4W     -0.079700
     19 C08         7.8920   -6.4080    6.4310 c3        1 H4W     -0.117700
     20 C06         8.6930   -7.6820    6.4680 ca        1 H4W      0.451600
     21 N01        10.0380   -7.5940    6.5600 nb        1 H4W     -0.731000
     22 C02        10.7570   -8.7610    6.5640 ca        1 H4W      0.632200
     23 N02        12.1610   -8.6940    6.5470 nh        1 H4W     -0.923500
     24 C03        10.1250  -10.0400    6.5090 ca        1 H4W     -0.302300
     25 C04         8.7360  -10.1020    6.4220 ca        1 H4W     -0.005300
     26 C07         8.0420  -11.4080    6.3410 c3        1 H4W     -0.060800
     27 C05         8.0030   -8.9090    6.4010 ca        1 H4W     -0.295300
     28 H1          1.4440    0.4750    2.0980 ha        1 H4W      0.148000
     29 H2          5.1500   -0.5920    0.1280 ha        1 H4W      0.137000
     30 H3          3.9850   -0.5800   -2.0740 ha        1 H4W      0.137000
     31 H4          1.5460   -0.0420   -2.2050 ha        1 H4W      0.148000
     32 H5          3.4490    0.4420    3.3410 hc        1 H4W      0.050700
     33 H6          5.0300    0.5330    2.4690 hc        1 H4W      0.050700
     34 H7          3.4690   -2.0640    3.1300 hc        1 H4W      0.047700
     35 H8          5.0360   -1.9800    2.2360 hc        1 H4W      0.047700
     36 H9          6.1070   -0.8550    4.2220 hc        1 H4W      0.040700
     37 H10         4.5390   -0.9390    5.1140 hc        1 H4W      0.040700
     38 H11         6.1270   -3.3710    4.0180 hc        1 H4W      0.055700
     39 H12         4.5590   -3.4570    4.9080 hc        1 H4W      0.055700
     40 H13         5.6190   -2.3530    6.9140 h1        1 H4W      0.026700
     41 H14         7.2050   -2.2430    6.0120 h1        1 H4W      0.026700
     42 H15         7.9310   -3.4660    7.8370 h1        1 H4W      0.050700
     43 H16         6.5480   -3.7020    9.7070 h1        1 H4W      0.054700
     44 H17         5.1830   -3.9280    8.5200 h1        1 H4W      0.054700
     45 H18         5.2030   -6.1180    9.0040 hn        1 H4W      0.348800
     46 H20         7.9050   -6.5720    9.7560 h1        1 H4W      0.053200
     47 H21         6.9160   -7.4800    8.5310 h1        1 H4W      0.053200
     48 H22         8.9880   -5.4920    8.0500 hc        1 H4W      0.074700
     49 H23         8.2960   -5.7310    5.6300 hc        1 H4W      0.067700
     50 H24         6.8300   -6.6470    6.1550 hc        1 H4W      0.067700
     51 H25        12.5550   -7.8070    6.7700 hn        1 H4W      0.400300
     52 H26        12.5990   -9.4570    7.0130 hn        1 H4W      0.400300
     53 H27        10.7240  -10.9600    6.5230 ha        1 H4W      0.141000
     54 H28         7.8130  -11.6480    5.2720 hc        1 H4W      0.049033
     55 H29         8.6760  -12.2290    6.7580 hc        1 H4W      0.049033
     56 H30         7.0780  -11.3810    6.9080 hc        1 H4W      0.049033
     57 H31         6.9080   -8.9280    6.3320 ha        1 H4W      0.142000
@<TRIPOS>BOND
     1    1    2 1   
     2    2    3 ar  
     3    2    7 ar  
     4    3    4 ar  
     5    3   28 1   
     6    4    5 ar  
     7    4    8 1   
     8    5    6 ar  
     9    5   29 1   
    10    6    7 ar  
    11    6   30 1   
    12    7   31 1   
    13    8    9 1   
    14    8   32 1   
    15    8   33 1   
    16    9   10 1   
    17    9   34 1   
    18    9   35 1   
    19   10   11 1   
    20   10   36 1   
    21   10   37 1   
    22   11   12 1   
    23   11   38 1   
    24   11   39 1   
    25   12   13 1   
    26   12   40 1   
    27   12   41 1   
    28   13   14 1   
    29   14   15 1   
    30   14   18 1   
    31   14   42 1   
    32   15   16 1   
    33   15   43 1   
    34   15   44 1   
    35   16   17 1   
    36   16   45 1   
    37   17   18 1   
    38   17   46 1   
    39   17   47 1   
    40   18   19 1   
    41   18   48 1   
    42   19   20 1   
    43   19   49 1   
    44   19   50 1   
    45   20   21 ar  
    46   20   27 ar  
    47   21   22 ar  
    48   22   23 1   
    49   22   24 ar  
    50   23   51 1   
    51   23   52 1   
    52   24   25 ar  
    53   24   53 1   
    54   25   26 1   
    55   25   27 ar  
    56   26   54 1   
    57   26   55 1   
    58   26   56 1   
    59   27   57 1   
@<TRIPOS>SUBSTRUCTURE
     1 H4W         1 TEMP              0 ****  ****    0 ROOT
