@<TRIPOS>MOLECULE
H4W
   57    59     1     0     0
SMALL
bcc


@<TRIPOS>ATOM
      1 F23         9.0930    0.4440    1.6600 f         1 H4W     -0.142900
      2 C23         8.1740    0.7320    0.7070 ca        1 H4W      0.125900
      3 C22         7.1570   -0.1960    0.4180 ca        1 H4W     -0.165000
      4 C21         6.2100    0.1010   -0.5650 ca        1 H4W     -0.051300
      5 C26         6.2820    1.3190   -1.2520 ca        1 H4W     -0.144000
      6 C25         7.2900    2.2340   -0.9610 ca        1 H4W     -0.103000
      7 C24         8.2420    1.9540    0.0150 ca        1 H4W     -0.169000
      8 C14         5.1340   -0.8770   -0.8880 c3        1 H4W     -0.040100
      9 C13         3.7840   -0.4160   -0.3690 c3        1 H4W     -0.075400
     10 C12         2.6970   -1.4030   -0.7360 c3        1 H4W     -0.079400
     11 C11         1.3510   -0.9430   -0.2210 c3        1 H4W     -0.084400
     12 C10         0.2710   -1.9430   -0.5950 c3        1 H4W      0.130400
     13 O09        -0.9570   -1.4210   -0.0880 os        1 H4W     -0.423600
     14 C3'        -2.0640   -2.2890   -0.3180 c3        1 H4W      0.113100
     15 C2'        -2.1590   -3.3600    0.8000 c3        1 H4W      0.116800
     16 N1'        -3.2640   -3.0300    1.6910 n3        1 H4W     -0.788200
     17 C5'        -4.1230   -2.0750    0.9950 c3        1 H4W      0.139800
     18 C4'        -3.3760   -1.4780   -0.2210 c3        1 H4W     -0.080700
     19 C08        -3.1390    0.0120   -0.0810 c3        1 H4W     -0.116700
     20 C06        -4.4250    0.7960   -0.1080 ca        1 H4W      0.451600
     21 N01        -5.0980    0.8840   -1.2760 nb        1 H4W     -0.731000
     22 C02        -6.2660    1.6010   -1.2880 ca        1 H4W      0.631200
     23 N02        -7.0420    1.6160   -2.4600 nh        1 H4W     -0.923500
     24 C03        -6.7550    2.2720   -0.1270 ca        1 H4W     -0.302300
     25 C04        -6.0370    2.1700    1.0630 ca        1 H4W     -0.005300
     26 C07        -6.5210    2.8320    2.2960 c3        1 H4W     -0.060800
     27 C05        -4.8550    1.4200    1.0790 ca        1 H4W     -0.295300
     28 H1          7.1190   -1.1470    0.9680 ha        1 H4W      0.148000
     29 H2          5.5350    1.5500   -2.0260 ha        1 H4W      0.136000
     30 H3          7.3380    3.1890   -1.5070 ha        1 H4W      0.137000
     31 H4          9.0420    2.6710    0.2500 ha        1 H4W      0.148000
     32 H5          5.0790   -1.0090   -2.0020 hc        1 H4W      0.050700
     33 H6          5.3780   -1.8800   -0.4470 hc        1 H4W      0.050700
     34 H7          3.8280   -0.3000    0.7460 hc        1 H4W      0.047200
     35 H8          3.5420    0.5920   -0.7980 hc        1 H4W      0.047200
     36 H9          2.6550   -1.5200   -1.8520 hc        1 H4W      0.040700
     37 H10         2.9420   -2.4110   -0.3070 hc        1 H4W      0.040700
     38 H11         1.3810   -0.8280    0.8940 hc        1 H4W      0.055200
     39 H12         1.0930    0.0590   -0.6510 hc        1 H4W      0.055200
     40 H13         0.1980   -2.0590   -1.7090 h1        1 H4W      0.027200
     41 H14         0.4760   -2.9470   -0.1370 h1        1 H4W      0.027200
     42 H15        -1.9710   -2.7730   -1.3260 h1        1 H4W      0.050700
     43 H16        -2.3840   -4.3590    0.3380 h1        1 H4W      0.054700
     44 H17        -1.1870   -3.4350    1.3560 h1        1 H4W      0.054700
     45 H18        -2.9100   -2.6190    2.5360 hn        1 H4W      0.348800
     46 H20        -5.0270   -2.6400    0.6380 h1        1 H4W      0.054200
     47 H21        -4.4750   -1.2600    1.6840 h1        1 H4W      0.054200
     48 H22        -3.9750   -1.6670   -1.1510 hc        1 H4W      0.077700
     49 H23        -2.6000    0.2200    0.8810 hc        1 H4W      0.066700
     50 H24        -2.4680    0.3530   -0.9150 hc        1 H4W      0.066700
     51 H25        -6.5830    1.3030   -3.2870 hn        1 H4W      0.400300
     52 H26        -7.5560    2.4590   -2.5830 hn        1 H4W      0.400300
     53 H27        -7.6880    2.8490   -0.1660 ha        1 H4W      0.141000
     54 H28        -7.0860    2.0960    2.9230 hc        1 H4W      0.049367
     55 H29        -5.6640    3.2210    2.9000 hc        1 H4W      0.049367
     56 H30        -7.2030    3.6840    2.0560 hc        1 H4W      0.049367
     57 H31        -4.2690    1.3210    2.0020 ha        1 H4W      0.142000
@<TRIPOS>BOND
     1    1    2 1   
     2    2    3 ar  
     3    2    7 ar  
     4    3    4 ar  
     5    3   28 1   
     6    4    5 ar  
     7    4    8 1   
     8    5    6 ar  
     9    5   29 1   
    10    6    7 ar  
    11    6   30 1   
    12    7   31 1   
    13    8    9 1   
    14    8   32 1   
    15    8   33 1   
    16    9   10 1   
    17    9   34 1   
    18    9   35 1   
    19   10   11 1   
    20   10   36 1   
    21   10   37 1   
    22   11   12 1   
    23   11   38 1   
    24   11   39 1   
    25   12   13 1   
    26   12   40 1   
    27   12   41 1   
    28   13   14 1   
    29   14   15 1   
    30   14   18 1   
    31   14   42 1   
    32   15   16 1   
    33   15   43 1   
    34   15   44 1   
    35   16   17 1   
    36   16   45 1   
    37   17   18 1   
    38   17   46 1   
    39   17   47 1   
    40   18   19 1   
    41   18   48 1   
    42   19   20 1   
    43   19   49 1   
    44   19   50 1   
    45   20   21 ar  
    46   20   27 ar  
    47   21   22 ar  
    48   22   23 1   
    49   22   24 ar  
    50   23   51 1   
    51   23   52 1   
    52   24   25 ar  
    53   24   53 1   
    54   25   26 1   
    55   25   27 ar  
    56   26   54 1   
    57   26   55 1   
    58   26   56 1   
    59   27   57 1   
@<TRIPOS>SUBSTRUCTURE
     1 H4W         1 TEMP              0 ****  ****    0 ROOT
