@<TRIPOS>MOLECULE
H4W
   57    59     1     0     0
SMALL
bcc


@<TRIPOS>ATOM
      1 F23         0.0320    0.5610   -0.1010 f         1 H4W     -0.142900
      2 C23         1.3520    0.2640   -0.0410 ca        1 H4W      0.125900
      3 C22         2.0080    0.2540    1.2030 ca        1 H4W     -0.165000
      4 C21         3.3690   -0.0520    1.2640 ca        1 H4W     -0.051300
      5 C26         4.0680   -0.3460    0.0860 ca        1 H4W     -0.144000
      6 C25         3.4130   -0.3360   -1.1430 ca        1 H4W     -0.103000
      7 C24         2.0570   -0.0330   -1.2220 ca        1 H4W     -0.169000
      8 C14         4.0780   -0.0570    2.5740 c3        1 H4W     -0.040100
      9 C13         4.4100   -1.4660    3.0270 c3        1 H4W     -0.075400
     10 C12         5.1600   -1.4500    4.3420 c3        1 H4W     -0.079400
     11 C11         5.4950   -2.8550    4.7910 c3        1 H4W     -0.084400
     12 C10         6.2440   -2.8240    6.1120 c3        1 H4W      0.130400
     13 O09         6.5350   -4.1810    6.4440 os        1 H4W     -0.423600
     14 C3'         7.1990   -4.3140    7.6990 c3        1 H4W      0.113100
     15 C2'         6.1690   -4.3520    8.8580 c3        1 H4W      0.116800
     16 N1'         6.0450   -5.7190    9.3480 n7        1 H4W     -0.788200
     17 C5'         7.2060   -6.4670    8.8730 c3        1 H4W      0.140800
     18 C4'         7.9210   -5.6800    7.7490 c3        1 H4W     -0.079700
     19 C08         7.8960   -6.4100    6.4220 c3        1 H4W     -0.117700
     20 C06         8.7000   -7.6830    6.4560 ca        1 H4W      0.451600
     21 N01        10.0450   -7.5930    6.5490 nb        1 H4W     -0.731000
     22 C02        10.7650   -8.7580    6.5480 ca        1 H4W      0.632200
     23 N02        12.1690   -8.6890    6.5310 nv        1 H4W     -0.923500
     24 C03        10.1360  -10.0380    6.4870 ca        1 H4W     -0.301300
     25 C04         8.7470  -10.1030    6.4010 ca        1 H4W     -0.005300
     26 C07         8.0510  -11.4090    6.3400 c3        1 H4W     -0.060800
     27 C05         8.0120   -8.9110    6.3830 ca        1 H4W     -0.295300
     28 H1          1.4420    0.4890    2.1160 ha        1 H4W      0.148000
     29 H2          5.1400   -0.5870    0.1380 ha        1 H4W      0.137000
     30 H3          3.9710   -0.5680   -2.0630 ha        1 H4W      0.137000
     31 H4          1.5330   -0.0220   -2.1880 ha        1 H4W      0.148000
     32 H5          5.0270    0.5380    2.4800 hc        1 H4W      0.050700
     33 H6          3.4480    0.4460    3.3560 hc        1 H4W      0.050700
     34 H7          3.4650   -2.0590    3.1390 hc        1 H4W      0.047700
     35 H8          5.0310   -1.9750    2.2430 hc        1 H4W      0.047700
     36 H9          4.5370   -0.9410    5.1240 hc        1 H4W      0.040700
     37 H10         6.1040   -0.8540    4.2300 hc        1 H4W      0.040700
     38 H11         4.5570   -3.4580    4.9100 hc        1 H4W      0.055700
     39 H12         6.1250   -3.3700    4.0200 hc        1 H4W      0.055700
     40 H13         5.6170   -2.3610    6.9190 h1        1 H4W      0.026700
     41 H14         7.2020   -2.2470    6.0170 h1        1 H4W      0.026700
     42 H15         7.9280   -3.4740    7.8400 h1        1 H4W      0.050700
     43 H16         5.1810   -3.9420    8.5200 h1        1 H4W      0.054700
     44 H17         6.5440   -3.7200    9.7080 h1        1 H4W      0.054700
     45 H18         5.2020   -6.1340    8.9940 hn        1 H4W      0.348800
     46 H20         6.9170   -7.4920    8.5150 h1        1 H4W      0.053200
     47 H21         7.9040   -6.5890    9.7460 h1        1 H4W      0.053200
     48 H22         8.9880   -5.4990    8.0480 hc        1 H4W      0.074700
     49 H23         6.8350   -6.6500    6.1440 hc        1 H4W      0.067700
     50 H24         8.3000   -5.7290    5.6250 hc        1 H4W      0.067700
     51 H25        12.5620   -7.8020    6.7570 hn        1 H4W      0.400300
     52 H26        12.6090   -9.4520    6.9940 hn        1 H4W      0.400300
     53 H27        10.7370  -10.9570    6.4940 ha        1 H4W      0.141000
     54 H28         8.7580  -12.2340    6.0780 hc        1 H4W      0.049367
     55 H29         7.5920  -11.6410    7.3340 hc        1 H4W      0.049367
     56 H30         7.2360  -11.3840    5.5760 hc        1 H4W      0.049367
     57 H31         6.9180   -8.9320    6.3110 ha        1 H4W      0.142000
@<TRIPOS>BOND
     1    1    2 1   
     2    2    3 ar  
     3    2    7 ar  
     4    3    4 ar  
     5    3   28 1   
     6    4    5 ar  
     7    4    8 1   
     8    5    6 ar  
     9    5   29 1   
    10    6    7 ar  
    11    6   30 1   
    12    7   31 1   
    13    8    9 1   
    14    8   32 1   
    15    8   33 1   
    16    9   10 1   
    17    9   34 1   
    18    9   35 1   
    19   10   11 1   
    20   10   36 1   
    21   10   37 1   
    22   11   12 1   
    23   11   38 1   
    24   11   39 1   
    25   12   13 1   
    26   12   40 1   
    27   12   41 1   
    28   13   14 1   
    29   14   15 1   
    30   14   18 1   
    31   14   42 1   
    32   15   16 1   
    33   15   43 1   
    34   15   44 1   
    35   16   17 1   
    36   16   45 1   
    37   17   18 1   
    38   17   46 1   
    39   17   47 1   
    40   18   19 1   
    41   18   48 1   
    42   19   20 1   
    43   19   49 1   
    44   19   50 1   
    45   20   21 ar  
    46   20   27 ar  
    47   21   22 ar  
    48   22   23 1   
    49   22   24 ar  
    50   23   51 1   
    51   23   52 1   
    52   24   25 ar  
    53   24   53 1   
    54   25   26 1   
    55   25   27 ar  
    56   26   54 1   
    57   26   55 1   
    58   26   56 1   
    59   27   57 1   
@<TRIPOS>SUBSTRUCTURE
     1 H4W         1 TEMP              0 ****  ****    0 ROOT
