@<TRIPOS>MOLECULE
H4W
   58    60     1     0     0
SMALL
bcc


@<TRIPOS>ATOM
      1 F23         0.1910   -1.2320   -0.1530 f         1 H4W     -0.139900
      2 C23         1.4170   -0.6640   -0.0670 ca        1 H4W      0.128900
      3 C22         2.0960   -0.6560    1.1640 ca        1 H4W     -0.168000
      4 C21         3.3630   -0.0730    1.2520 ca        1 H4W     -0.056300
      5 C26         3.9430    0.5010    0.1150 ca        1 H4W     -0.143000
      6 C25         3.2640    0.4930   -1.1020 ca        1 H4W     -0.101000
      7 C24         2.0030   -0.0860   -1.2080 ca        1 H4W     -0.165000
      8 C14         4.0800   -0.0560    2.5570 c3        1 H4W     -0.038100
      9 C13         4.5250   -1.4460    2.9710 c3        1 H4W     -0.076400
     10 C12         5.2260   -1.4160    4.3120 c3        1 H4W     -0.080400
     11 C11         5.6340   -2.8090    4.7380 c3        1 H4W     -0.083400
     12 C10         6.3570   -2.7630    6.0720 c3        1 H4W      0.129400
     13 O09         6.6540   -4.1200    6.4180 os        1 H4W     -0.437600
     14 C3'         7.2920   -4.2450    7.6840 c3        1 H4W      0.119100
     15 C2'         6.2540   -4.2310    8.8360 c3        1 H4W      0.117800
     16 N1'         6.0740   -5.5860    9.3400 n3        1 H4W     -0.785200
     17 C5'         7.1850   -6.3980    8.8600 c3        1 H4W      0.147800
     18 C4'         7.9660   -5.6360    7.7640 c3        1 H4W     -0.086700
     19 C08         7.9570   -6.3570    6.4310 c3        1 H4W     -0.129700
     20 C06         8.6840   -7.6720    6.4850 ca        1 H4W      0.473600
     21 N01        10.0270   -7.6760    6.6110 nb        1 H4W     -0.669000
     22 C02        10.6420   -8.8920    6.6420 ca        1 H4W      0.446200
     23 N02        12.1170   -8.8620    6.7850 n4        1 H4W     -0.818300
     24 C03         9.9870  -10.1310    6.5510 ca        1 H4W     -0.217300
     25 C04         8.5850  -10.1090    6.4190 ca        1 H4W      0.000700
     26 C07         7.8310  -11.3770    6.3050 c3        1 H4W     -0.080800
     27 C05         7.9340   -8.8750    6.3880 ca        1 H4W     -0.200300
     28 H1          1.6240   -1.1050    2.0500 ha        1 H4W      0.146000
     29 H2          4.9380    0.9660    0.1830 ha        1 H4W      0.136000
     30 H3          3.7270    0.9510   -1.9900 ha        1 H4W      0.140000
     31 H4          1.4610   -0.0950   -2.1640 ha        1 H4W      0.152000
     32 H5          4.9750    0.6190    2.4970 hc        1 H4W      0.052200
     33 H6          3.3990    0.3670    3.3450 hc        1 H4W      0.052200
     34 H7          3.6320   -2.1230    3.0250 hc        1 H4W      0.046700
     35 H8          5.2140   -1.8670    2.1930 hc        1 H4W      0.046700
     36 H9          4.5450   -0.9690    5.0840 hc        1 H4W      0.044200
     37 H10         6.1330   -0.7580    4.2480 hc        1 H4W      0.044200
     38 H11         6.3050   -3.2690    3.9660 hc        1 H4W      0.053700
     39 H12         4.7300   -3.4660    4.8270 hc        1 H4W      0.053700
     40 H13         7.3130   -2.1810    5.9950 h1        1 H4W      0.034200
     41 H14         5.7100   -2.3040    6.8660 h1        1 H4W      0.034200
     42 H15         8.0490   -3.4280    7.8170 h1        1 H4W      0.058700
     43 H16         5.2850   -3.7880    8.4860 h1        1 H4W      0.067200
     44 H17         6.6490   -3.6040    9.6820 h1        1 H4W      0.067200
     45 H18         5.2000   -5.9640    9.0250 hn        1 H4W      0.359800
     46 H20         7.8620   -6.5870    9.7380 h1        1 H4W      0.044200
     47 H21         6.8320   -7.3940    8.4770 h1        1 H4W      0.044200
     48 H22         9.0270   -5.4890    8.0990 hc        1 H4W      0.065700
     49 H23         8.4280   -5.6920    5.6540 hc        1 H4W      0.090700
     50 H24         6.8960   -6.5370    6.1060 hc        1 H4W      0.090700
     51 H25        12.4800   -9.8180    6.7340 hn        1 H4W      0.469467
     52 H26        12.3680   -8.4440    7.6890 hn        1 H4W      0.469467
     53 H27        10.5210  -11.0930    6.5800 ha        1 H4W      0.166000
     54 H28         6.8040  -11.2700    6.7350 hc        1 H4W      0.075700
     55 H29         7.7290  -11.6590    5.2240 hc        1 H4W      0.075700
     56 H30         8.3540  -12.2090    6.8370 hc        1 H4W      0.075700
     57 H31         6.8370   -8.8230    6.2900 ha        1 H4W      0.183000
     58 H023       12.5300   -8.2950    6.0330 hn        1 H4W      0.469467
@<TRIPOS>BOND
     1    1    2 1   
     2    2    3 ar  
     3    2    7 ar  
     4    3    4 ar  
     5    3   28 1   
     6    4    5 ar  
     7    4    8 1   
     8    5    6 ar  
     9    5   29 1   
    10    6    7 ar  
    11    6   30 1   
    12    7   31 1   
    13    8    9 1   
    14    8   32 1   
    15    8   33 1   
    16    9   10 1   
    17    9   34 1   
    18    9   35 1   
    19   10   11 1   
    20   10   36 1   
    21   10   37 1   
    22   11   12 1   
    23   11   38 1   
    24   11   39 1   
    25   12   13 1   
    26   12   40 1   
    27   12   41 1   
    28   13   14 1   
    29   14   15 1   
    30   14   18 1   
    31   14   42 1   
    32   15   16 1   
    33   15   43 1   
    34   15   44 1   
    35   16   17 1   
    36   16   45 1   
    37   17   18 1   
    38   17   46 1   
    39   17   47 1   
    40   18   19 1   
    41   18   48 1   
    42   19   20 1   
    43   19   49 1   
    44   19   50 1   
    45   20   21 ar  
    46   20   27 ar  
    47   21   22 ar  
    48   22   23 1   
    49   22   24 ar  
    50   23   51 1   
    51   23   52 1   
    52   23   58 1   
    53   24   25 ar  
    54   24   53 1   
    55   25   26 1   
    56   25   27 ar  
    57   26   54 1   
    58   26   55 1   
    59   26   56 1   
    60   27   57 1   
@<TRIPOS>SUBSTRUCTURE
     1 H4W         1 TEMP              0 ****  ****    0 ROOT
