@<TRIPOS>MOLECULE
H4W
   57    53     1     0     0
SMALL
bcc


@<TRIPOS>ATOM
      1 F23        -6.3290    4.6620   -5.3330 f         1 H4W     -0.108000
      2 C23        -4.9570    4.5260   -5.3150 c1        1 H4W      0.091000
      3 C22        -4.2770    4.4370   -4.0880 c1        1 H4W     -0.165000
      4 C21        -2.9010    4.3340   -4.0660 c1        1 H4W     -0.044000
      5 C26        -2.1740    4.3170   -5.2670 c1        1 H4W     -0.123500
      6 C25        -2.8380    4.4050   -6.4840 c1        1 H4W     -0.123500
      7 C24        -4.2370    4.5100   -6.5130 c1        1 H4W     -0.169000
      8 C14        -2.1580    4.3250   -2.7210 c3        1 H4W     -0.126000
      9 C13        -1.8980    2.9230   -2.3080 c3        1 H4W     -0.154000
     10 C12        -1.2380    2.9120   -0.9060 c3        1 H4W     -0.158000
     11 C11        -1.0100    1.4790   -0.4650 c3        1 H4W     -0.163000
     12 C10        -0.4500    1.4630    1.0010 c3        1 H4W     -0.020000
     13 O09        -0.2320    0.0980    1.4170 os        1 H4W     -0.280000
     14 C3'         0.2020   -0.0410    2.8580 c3        1 H4W      0.002000
     15 C2'        -0.8070   -0.2990    3.6020 c3        1 H4W     -0.120000
     16 N1'        -0.2750   -1.2700    4.7620 n3        1 H4W     -0.267000
     17 C5'         0.5810   -2.0510    4.2040 c3        1 H4W     -0.097000
     18 C4'         1.1340   -1.2560    3.0150 c3        1 H4W     -0.120000
     19 C08         1.1050   -2.0770    1.8070 c3        1 H4W     -0.101000
     20 C06         2.3110   -3.0940    1.8300 c1        1 H4W      0.029000
     21 N01         3.5320   -2.6770    2.2140 n1        1 H4W     -0.205000
     22 C02         4.5980   -3.5480    2.1990 c1        1 H4W      0.110000
     23 N02         5.8560   -3.0880    2.4690 n3        1 H4W     -0.321000
     24 C03         4.4150   -4.8750    1.7840 c1        1 H4W     -0.237000
     25 C04         3.1860   -5.3020    1.3950 c1        1 H4W      0.002000
     26 C07         3.0220   -6.6780    0.8200 c2        1 H4W     -0.186000
     27 C05         2.1200   -4.4280    1.4110 c2        1 H4W     -0.230000
     28 H1         -4.7740    4.4480   -3.2550 ha        1 H4W      0.148000
     29 H2         -1.1630    4.2400   -5.2460 ha        1 H4W      0.136500
     30 H3         -2.3310    4.3930   -7.3190 ha        1 H4W      0.136500
     31 H4         -4.7250    4.5760   -7.4040 ha        1 H4W      0.148000
     32 H5         -2.7080    4.7680   -2.0440 hc        1 H4W      0.090000
     33 H6         -1.3170    4.7940   -2.8120 hc        1 H4W      0.090000
     34 H7         -2.7480    2.4260   -2.2750 hc        1 H4W      0.086500
     35 H8         -1.2770    2.4860   -2.9750 hc        1 H4W      0.086500
     36 H9         -1.8090    3.3500   -0.2800 hc        1 H4W      0.080000
     37 H10        -0.3990    3.3710   -0.9460 hc        1 H4W      0.080000
     38 H11        -0.3550    1.0440   -1.0760 hc        1 H4W      0.094500
     39 H12        -1.9050    0.9620   -0.4960 hc        1 H4W      0.094500
     40 H13         0.4370    1.9760    1.0340 h1        1 H4W      0.066500
     41 H14        -1.1250    1.9060    1.6280 h1        1 H4W      0.066500
     42 H15         0.6760    0.8200    3.1750 h1        1 H4W      0.090000
     43 H16        -1.4980   -0.7450    3.0830 h1        1 H4W      0.094000
     44 H17        -1.1540    0.5160    3.9840 h1        1 H4W      0.094000
     45 H18        -1.0060   -1.7890    5.1070 hn        1 H4W      0.144000
     46 H20         0.1530   -2.8400    3.8990 h1        1 H4W      0.093500
     47 H21         1.2960   -2.2730    4.8260 h1        1 H4W      0.093500
     48 H22         2.0670   -0.9510    3.2060 hc        1 H4W      0.117000
     49 H23         0.2390   -2.5880    1.7720 hc        1 H4W      0.106000
     50 H24         1.1780   -1.4900    1.0030 hc        1 H4W      0.106000
     51 H25         5.9600   -2.3520    2.8970 hn        1 H4W      0.195500
     52 H26         6.5970   -3.5650    2.1780 hn        1 H4W      0.195500
     53 H27         5.1870   -5.5040    1.7740 ha        1 H4W      0.141000
     54 H28         3.8370   -6.9180    0.3020 ha        1 H4W      0.088667
     55 H29         2.8910   -7.3450    1.5700 ha        1 H4W      0.088667
     56 H30         2.2540   -6.6940    0.2370 ha        1 H4W      0.088667
     57 H31         1.2400   -4.7290    1.1350 ha        1 H4W      0.142000
@<TRIPOS>BOND
     1    1    2 1   
     2    2    7 1   
     3    3    4 1   
     4    3   28 1   
     5    4    8 1   
     6    5    6 1   
     7    5   29 1   
     8    6   30 1   
     9    7   31 1   
    10    8    9 1   
    11    8   32 1   
    12    8   33 1   
    13    9   10 1   
    14    9   34 1   
    15    9   35 1   
    16   10   11 1   
    17   10   36 1   
    18   10   37 1   
    19   11   12 1   
    20   11   38 1   
    21   11   39 1   
    22   12   13 1   
    23   12   40 1   
    24   12   41 1   
    25   13   14 1   
    26   14   15 1   
    27   14   18 1   
    28   14   42 1   
    29   15   16 1   
    30   15   43 1   
    31   15   44 1   
    32   16   17 1   
    33   16   45 1   
    34   17   18 1   
    35   17   46 1   
    36   17   47 1   
    37   18   19 1   
    38   18   48 1   
    39   19   20 1   
    40   19   49 1   
    41   19   50 1   
    42   20   27 1   
    43   21   22 1   
    44   22   23 1   
    45   23   51 1   
    46   23   52 1   
    47   24   25 1   
    48   24   53 1   
    49   25   27 1   
    50   26   54 1   
    51   26   55 1   
    52   26   56 1   
    53   27   57 1   
@<TRIPOS>SUBSTRUCTURE
     1 H4W         1 TEMP              0 ****  ****    0 ROOT
