@<TRIPOS>MOLECULE
H50
   31    33     1     0     0
SMALL
bcc


@<TRIPOS>ATOM
      1 CAL        -5.2360    1.7270    0.4520 cx        1 H50     -0.120400
      2 CAM        -5.2250    1.2120   -0.9540 cx        1 H50     -0.120400
      3 CAU        -4.4550    0.4800    0.1220 cx        1 H50     -0.196700
      4 CAN        -5.0700   -0.8670    0.5790 c         1 H50      0.946600
      5 OAB        -5.8640   -0.8410    1.5550 o         1 H50     -0.821300
      6 OAA        -4.7570   -1.9010   -0.0730 o         1 H50     -0.821300
      7 CAS        -2.9870    0.4930    0.0940 ca        1 H50      0.052700
      8 CAJ        -2.3080   -0.4860   -0.6430 ca        1 H50     -0.146000
      9 CAO        -0.9040   -0.4880   -0.6960 ca        1 H50      0.129900
     10 FAC        -0.2800   -1.4400   -1.4360 f         1 H50     -0.154900
     11 CAH        -2.2400    1.4470    0.8020 ca        1 H50     -0.160000
     12 CAI        -0.8530    1.4450    0.7480 ca        1 H50     -0.106000
     13 CAT        -0.1510    0.4920   -0.0050 cp        1 H50     -0.133000
     14 CAR         1.3060    0.5400   -0.0420 cp        1 H50      0.017000
     15 CAK         2.0730   -0.6290    0.0590 ca        1 H50     -0.107000
     16 CAQ         3.4690   -0.5630    0.0460 ca        1 H50      0.021400
     17 CL1         4.3620   -2.0040    0.1760 cl        1 H50     -0.089400
     18 CAP         4.1140    0.6760   -0.0690 ca        1 H50      0.003400
     19 CL2         5.8110    0.7900   -0.0870 cl        1 H50     -0.098400
     20 CAF         3.3520    1.8440   -0.1740 ca        1 H50     -0.124000
     21 CAG         1.9640    1.7760   -0.1600 ca        1 H50     -0.124000
     22 H1         -4.7080    2.6700    0.6770 hc        1 H50      0.060200
     23 H2         -6.1420    1.5890    1.0720 hc        1 H50      0.060200
     24 H3         -6.1280    0.7240   -1.3610 hc        1 H50      0.060200
     25 H4         -4.6700    1.7730   -1.7260 hc        1 H50      0.060200
     26 H6         -2.8950   -1.2840   -1.1360 ha        1 H50      0.205000
     27 H7         -2.7600    2.1950    1.4200 ha        1 H50      0.135000
     28 H8         -0.2850    2.1990    1.3150 ha        1 H50      0.118000
     29 H9          1.5650   -1.6040    0.1430 ha        1 H50      0.168000
     30 H10         3.8540    2.8190   -0.2690 ha        1 H50      0.140000
     31 H11         1.3710    2.6990   -0.2490 ha        1 H50      0.143000
@<TRIPOS>BOND
     1    1    2 1   
     2    1    3 1   
     3    1   22 1   
     4    1   23 1   
     5    2    3 1   
     6    2   24 1   
     7    2   25 1   
     8    3    4 1   
     9    3    7 1   
    10    4    5 1   
    11    4    6 1   
    12    7    8 ar  
    13    7   11 ar  
    14    8    9 ar  
    15    8   26 1   
    16    9   10 1   
    17    9   13 ar  
    18   11   12 ar  
    19   11   27 1   
    20   12   13 ar  
    21   12   28 1   
    22   13   14 1   
    23   14   15 ar  
    24   14   21 ar  
    25   15   16 ar  
    26   15   29 1   
    27   16   17 1   
    28   16   18 ar  
    29   18   19 1   
    30   18   20 ar  
    31   20   21 ar  
    32   20   30 1   
    33   21   31 1   
@<TRIPOS>SUBSTRUCTURE
     1 H50         1 TEMP              0 ****  ****    0 ROOT
