@<TRIPOS>MOLECULE
H50
   31    33     1     0     0
SMALL
bcc


@<TRIPOS>ATOM
      1 CAL         0.4010    0.0690   -0.1850 cx        1 H50     -0.120400
      2 CAM         1.8180   -0.1600    0.2450 cx        1 H50     -0.120400
      3 CAU         0.7370    0.0380    1.2850 cx        1 H50     -0.196700
      4 CAN         0.3260   -1.2350    2.0660 c         1 H50      0.946600
      5 OAB        -0.6290   -1.9150    1.6070 o         1 H50     -0.821300
      6 OAA         0.9910   -1.5260    3.0980 o         1 H50     -0.821300
      7 CAS         0.7260    1.2670    2.0880 ca        1 H50      0.052700
      8 CAJ         1.4660    1.3140    3.2770 ca        1 H50     -0.146000
      9 CAO         1.4820    2.4820    4.0570 ca        1 H50      0.129900
     10 FAC         2.2250    2.4980    5.1930 f         1 H50     -0.154900
     11 CAH        -0.0220    2.3930    1.7110 ca        1 H50     -0.160000
     12 CAI        -0.0040    3.5480    2.4820 ca        1 H50     -0.106000
     13 CAT         0.7500    3.6280    3.6620 cp        1 H50     -0.133000
     14 CAR         0.7490    4.8680    4.4300 cp        1 H50      0.017000
     15 CAK         0.6520    4.8550    5.8280 ca        1 H50     -0.107000
     16 CAQ         0.6260    6.0520    6.5470 ca        1 H50      0.021400
     17 CL1         0.5040    5.9920    8.2420 cl        1 H50     -0.089400
     18 CAP         0.6990    7.2790    5.8740 ca        1 H50      0.003400
     19 CL2         0.6690    8.7550    6.7200 cl        1 H50     -0.098400
     20 CAF         0.7980    7.2970    4.4790 ca        1 H50     -0.124000
     21 CAG         0.8230    6.1040    3.7660 ca        1 H50     -0.124000
     22 H1          0.1430    1.0220   -0.6760 hc        1 H50      0.060200
     23 H2         -0.1920   -0.7820   -0.5710 hc        1 H50      0.060200
     24 H3          2.5630    0.6380    0.0840 hc        1 H50      0.060200
     25 H4          2.2580   -1.1680    0.1490 hc        1 H50      0.060200
     26 H6          1.9920    0.4000    3.6140 ha        1 H50      0.205000
     27 H7         -0.6410    2.3540    0.8030 ha        1 H50      0.135000
     28 H8         -0.6020    4.4180    2.1720 ha        1 H50      0.118000
     29 H9          0.6030    3.8890    6.3580 ha        1 H50      0.168000
     30 H10         0.8600    8.2580    3.9460 ha        1 H50      0.140000
     31 H11         0.9070    6.1250    2.6690 ha        1 H50      0.143000
@<TRIPOS>BOND
     1    1    2 1   
     2    1    3 1   
     3    1   22 1   
     4    1   23 1   
     5    2    3 1   
     6    2   24 1   
     7    2   25 1   
     8    3    4 1   
     9    3    7 1   
    10    4    5 1   
    11    4    6 1   
    12    7    8 ar  
    13    7   11 ar  
    14    8    9 ar  
    15    8   26 1   
    16    9   10 1   
    17    9   13 ar  
    18   11   12 ar  
    19   11   27 1   
    20   12   13 ar  
    21   12   28 1   
    22   13   14 1   
    23   14   15 ar  
    24   14   21 ar  
    25   15   16 ar  
    26   15   29 1   
    27   16   17 1   
    28   16   18 ar  
    29   18   19 1   
    30   18   20 ar  
    31   20   21 ar  
    32   20   30 1   
    33   21   31 1   
@<TRIPOS>SUBSTRUCTURE
     1 H50         1 TEMP              0 ****  ****    0 ROOT
