@<TRIPOS>MOLECULE
H50
   31    33     1     0     0
SMALL
bcc


@<TRIPOS>ATOM
      1 CAL         0.3690    0.0660   -0.1790 cx        1 H50     -0.120400
      2 CAM         1.7900   -0.1590    0.2350 cx        1 H50     -0.120400
      3 CAU         0.7210    0.0370    1.2870 cx        1 H50     -0.196700
      4 CAN         0.3220   -1.2360    2.0730 c         1 H50      0.946600
      5 OAB        -0.6370   -1.9180    1.6250 o         1 H50     -0.821300
      6 OAA         0.9990   -1.5250    3.0980 o         1 H50     -0.821300
      7 CAS         0.7170    1.2670    2.0890 ca        1 H50      0.052700
      8 CAJ         1.4690    1.3160    3.2700 ca        1 H50     -0.146000
      9 CAO         1.4910    2.4850    4.0490 ca        1 H50      0.129900
     10 FAC         2.2470    2.5030    5.1760 f         1 H50     -0.154900
     11 CAH        -0.0380    2.3910    1.7190 ca        1 H50     -0.160000
     12 CAI        -0.0140    3.5460    2.4890 ca        1 H50     -0.106000
     13 CAT         0.7530    3.6290    3.6610 cp        1 H50     -0.133000
     14 CAR         0.7570    4.8690    4.4280 cp        1 H50      0.017000
     15 CAK         0.6760    4.8560    5.8270 ca        1 H50     -0.107000
     16 CAQ         0.6560    6.0550    6.5460 ca        1 H50      0.021400
     17 Cl1         0.5520    5.9950    8.2420 cl        1 H50     -0.089400
     18 CAP         0.7180    7.2820    5.8710 ca        1 H50      0.003400
     19 Cl2         0.6950    8.7570    6.7160 cl        1 H50     -0.098400
     20 CAF         0.8020    7.2980    4.4760 ca        1 H50     -0.124000
     21 CAG         0.8210    6.1050    3.7630 ca        1 H50     -0.124000
     22 H1         -0.2270   -0.7860   -0.5580 hc        1 H50      0.060200
     23 H2          0.1030    1.0190   -0.6680 hc        1 H50      0.060200
     24 H3          2.5320    0.6400    0.0650 hc        1 H50      0.060200
     25 H4          2.2320   -1.1670    0.1350 hc        1 H50      0.060200
     26 H6          2.0000    0.4030    3.6010 ha        1 H50      0.205000
     27 H7         -0.6670    2.3500    0.8180 ha        1 H50      0.135000
     28 H8         -0.6170    4.4150    2.1850 ha        1 H50      0.118000
     29 H9          0.6340    3.8910    6.3590 ha        1 H50      0.168000
     30 H10         0.8560    8.2590    3.9410 ha        1 H50      0.140000
     31 H11         0.8940    6.1250    2.6650 ha        1 H50      0.143000
@<TRIPOS>BOND
     1    1    2 1   
     2    1    3 1   
     3    1   22 1   
     4    1   23 1   
     5    2    3 1   
     6    2   24 1   
     7    2   25 1   
     8    3    4 1   
     9    3    7 1   
    10    4    5 1   
    11    4    6 1   
    12    7    8 ar  
    13    7   11 ar  
    14    8    9 ar  
    15    8   26 1   
    16    9   10 1   
    17    9   13 ar  
    18   11   12 ar  
    19   11   27 1   
    20   12   13 ar  
    21   12   28 1   
    22   13   14 1   
    23   14   15 ar  
    24   14   21 ar  
    25   15   16 ar  
    26   15   29 1   
    27   16   17 1   
    28   16   18 ar  
    29   18   19 1   
    30   18   20 ar  
    31   20   21 ar  
    32   20   30 1   
    33   21   31 1   
@<TRIPOS>SUBSTRUCTURE
     1 H50         1 TEMP              0 ****  ****    0 ROOT
