@<TRIPOS>MOLECULE
H52
   43    45     1     0     0
SMALL
bcc


@<TRIPOS>ATOM
      1 O1         -0.4120   -0.3620   -0.5090 o         1 H52     -0.652800
      2 S5          0.9680   -0.1480   -0.2840 sy        1 H52      1.490200
      3 O2          1.3730   -0.0970    1.0680 o         1 H52     -0.652800
      4 N21         1.8220   -1.3200   -1.0430 n3        1 H52     -0.812500
      5 C22         3.1570   -1.7240   -0.6370 c3        1 H52      0.241500
      6 C2M         4.0710   -0.5570   -0.2620 c3        1 H52     -0.133100
      7 C23         3.1380   -2.7100    0.5650 c3        1 H52      0.139800
      8 N24         2.6560   -4.0340    0.2400 n7        1 H52     -0.831200
      9 C25         1.3580   -4.1180   -0.3940 c3        1 H52      0.171800
     10 C26         1.3560   -3.6640   -1.8520 c3        1 H52     -0.089400
     11 C27         1.1990   -2.1560   -2.0400 c3        1 H52      0.213800
     12 C5          1.4200    1.3110   -1.0690 ca        1 H52     -0.334500
     13 C10         1.3900    2.6020   -0.4420 ca        1 H52      0.093000
     14 C4          0.6990    2.9460    0.7660 ca        1 H52     -0.169600
     15 CM         -0.2810    2.0750    1.4530 c3        1 H52     -0.091800
     16 C9          2.0870    3.6700   -1.0830 ca        1 H52     -0.188300
     17 C8          2.6230    3.5180   -2.3850 ca        1 H52     -0.037000
     18 C7          2.4760    2.3240   -3.0440 ca        1 H52     -0.174000
     19 C6          1.8880    1.2350   -2.3700 ca        1 H52      0.000000
     20 C1          2.2160    4.9310   -0.4120 ca        1 H52      0.417200
     21 N2          1.6670    5.1960    0.7610 nb        1 H52     -0.656000
     22 C3          0.8990    4.2130    1.3140 ca        1 H52      0.390200
     23 H22         3.6340   -2.2520   -1.5200 h1        1 H52      0.068700
     24 H2M1        4.0720    0.2250   -1.0590 hc        1 H52      0.055700
     25 H2M2        3.7570   -0.0920    0.7060 hc        1 H52      0.055700
     26 H2M3        5.1120   -0.9440   -0.1470 hc        1 H52      0.055700
     27 H231        4.2040   -2.8340    0.9100 h1        1 H52      0.049200
     28 H232        2.5590   -2.2270    1.4080 h1        1 H52      0.049200
     29 H24         2.6590   -4.5950    1.0730 hn        1 H52      0.367800
     30 H251        1.0570   -5.2060   -0.3760 h1        1 H52      0.032700
     31 H252        0.5620   -3.5430    0.1660 h1        1 H52      0.032700
     32 H261        2.2920   -4.0100   -2.3620 hc        1 H52      0.055200
     33 H262        0.4900   -4.1580   -2.3680 hc        1 H52      0.055200
     34 H271        1.6280   -1.8940   -3.0530 h1        1 H52      0.051700
     35 H272        0.0940   -1.9140   -2.0640 h1        1 H52      0.051700
     36 HM1        -0.8620    1.4560    0.7250 hc        1 H52      0.069367
     37 HM2         0.2320    1.3990    2.1870 hc        1 H52      0.069367
     38 HM3        -1.0170    2.6970    2.0250 hc        1 H52      0.069367
     39 H8          3.1360    4.3710   -2.8550 ha        1 H52      0.141000
     40 H7          2.8290    2.1950   -4.0780 ha        1 H52      0.144000
     41 H6          1.8360    0.2870   -2.9370 ha        1 H52      0.141000
     42 H1          2.7990    5.7410   -0.8880 h4        1 H52      0.023100
     43 H3          0.4060    4.4970    2.2630 h4        1 H52      0.028100
@<TRIPOS>BOND
     1    1    2 2   
     2    2    3 2   
     3    2    4 1   
     4    2   12 1   
     5    4    5 1   
     6    4   11 1   
     7    5    6 1   
     8    5    7 1   
     9    5   23 1   
    10    6   24 1   
    11    6   25 1   
    12    6   26 1   
    13    7    8 1   
    14    7   27 1   
    15    7   28 1   
    16    8    9 1   
    17    8   29 1   
    18    9   10 1   
    19    9   30 1   
    20    9   31 1   
    21   10   11 1   
    22   10   32 1   
    23   10   33 1   
    24   11   34 1   
    25   11   35 1   
    26   12   13 ar  
    27   12   19 ar  
    28   13   14 ar  
    29   13   16 ar  
    30   14   15 1   
    31   14   22 ar  
    32   15   36 1   
    33   15   37 1   
    34   15   38 1   
    35   16   17 ar  
    36   16   20 ar  
    37   17   18 ar  
    38   17   39 1   
    39   18   19 ar  
    40   18   40 1   
    41   19   41 1   
    42   20   21 ar  
    43   20   42 1   
    44   21   22 ar  
    45   22   43 1   
@<TRIPOS>SUBSTRUCTURE
     1 H52         1 TEMP              0 ****  ****    0 ROOT
