@<TRIPOS>MOLECULE
H52
   43    40     1     0     0
SMALL
bcc


@<TRIPOS>ATOM
      1 O1         -2.1120    0.0050    1.0700 o         1 H52     -0.937500
      2 S5         -0.7220   -0.0120    0.7360 ss        1 H52      2.834000
      3 O2         -0.1310   -0.0280    2.0220 o         1 H52     -0.937500
      4 N21        -0.2880    1.3540   -0.1110 n2        1 H52     -0.831000
      5 C22        -0.4920    2.6890    0.3500 c3        1 H52     -0.006000
      6 C2M        -0.5990    2.6860    1.8490 c3        1 H52     -0.227000
      7 C23         0.6640    3.5870   -0.0630 c3        1 H52     -0.076000
      8 N24         0.4690    4.0910   -1.4080 n3        1 H52     -0.297000
      9 C25        -0.7120    3.5350   -1.9970 c3        1 H52     -0.069000
     10 C26        -0.4810    2.0720   -2.4070 c3        1 H52     -0.187000
     11 C27         0.3520    1.3450   -1.3700 c3        1 H52     -0.005000
     12 C5         -0.2820   -1.5330   -0.2280 c1        1 H52     -0.792000
     13 C10         0.3030   -2.6240    0.4650 c2        1 H52      0.103000
     14 C4          1.6240   -2.5770    0.8390 c2        1 H52     -0.107000
     15 CM          2.9190   -2.3150    0.1170 c3        1 H52     -0.211000
     16 C9         -0.4580   -3.7400    0.7630 c1        1 H52     -0.127000
     17 C8         -1.8060   -3.7930    0.3810 c1        1 H52     -0.101000
     18 C7         -2.3860   -2.7120   -0.3050 c1        1 H52     -0.101000
     19 C6         -1.6230   -1.5870   -0.6070 c1        1 H52     -0.008000
     20 C1          0.1240   -4.8290    1.4510 c2        1 H52     -0.044000
     21 N2          1.4430   -4.7800    1.8240 n1        1 H52     -0.131000
     22 C3          2.2030   -3.6720    1.5290 c1        1 H52     -0.072000
     23 H22        -1.3020    3.0300   -0.0220 h1        1 H52      0.097000
     24 H2M1       -0.6400    3.6190    2.1760 hc        1 H52      0.085333
     25 H2M2       -1.3940    2.2210    2.1120 hc        1 H52      0.085333
     26 H2M3        0.2080    2.2250    2.2440 hc        1 H52      0.085333
     27 H231        1.4800    3.0850   -0.0290 h1        1 H52      0.097000
     28 H232        0.7260    4.3620    0.5750 h1        1 H52      0.097000
     29 H24         0.3980    5.0140   -1.3860 hn        1 H52      0.164000
     30 H251       -0.9650    4.0790   -2.8210 h1        1 H52      0.081000
     31 H252       -1.4620    3.5760   -1.3310 h1        1 H52      0.081000
     32 H261       -0.0210    2.0490   -3.2520 hc        1 H52      0.090000
     33 H262       -1.3360    1.6260   -2.4970 hc        1 H52      0.090000
     34 H271        1.2010    1.7750   -1.2930 h1        1 H52      0.089000
     35 H272        0.4890    0.3970   -1.6640 h1        1 H52      0.089000
     36 HM1         3.1910   -3.1270   -0.3770 hc        1 H52      0.104000
     37 HM2         3.6280   -2.0720    0.7830 hc        1 H52      0.104000
     38 HM3         2.8000   -1.5910   -0.5010 hc        1 H52      0.104000
     39 H8         -2.3470   -4.5880    0.5940 ha        1 H52      0.145500
     40 H7         -3.3370   -2.7510   -0.5750 ha        1 H52      0.145500
     41 H6         -2.0250   -0.8400   -1.0830 ha        1 H52      0.172000
     42 H1         -0.4090   -5.6100    1.6610 h4        1 H52      0.161000
     43 H3          3.1060   -3.6420    1.7860 ha        1 H52      0.165000
@<TRIPOS>BOND
     1    1    2 1   
     2    2    3 1   
     3    4    5 1   
     4    4   11 1   
     5    5    6 1   
     6    5    7 1   
     7    5   23 1   
     8    6   24 1   
     9    6   25 1   
    10    6   26 1   
    11    7    8 1   
    12    7   27 1   
    13    7   28 1   
    14    8    9 1   
    15    8   29 1   
    16    9   10 1   
    17    9   30 1   
    18    9   31 1   
    19   10   11 1   
    20   10   32 1   
    21   10   33 1   
    22   11   34 1   
    23   11   35 1   
    24   12   13 1   
    25   12   19 1   
    26   13   14 1   
    27   13   16 1   
    28   14   15 1   
    29   14   22 1   
    30   15   36 1   
    31   15   37 1   
    32   15   38 1   
    33   16   20 1   
    34   17   18 1   
    35   17   39 1   
    36   18   40 1   
    37   19   41 1   
    38   20   21 1   
    39   20   42 1   
    40   22   43 1   
@<TRIPOS>SUBSTRUCTURE
     1 H52         1 TEMP              0 ****  ****    0 ROOT
