@<TRIPOS>MOLECULE
H52
   43    45     1     0     0
SMALL
bcc


@<TRIPOS>ATOM
      1 O1         -0.4110   -0.3600   -0.4700 o         1 H52     -0.652800
      2 S5          0.9730   -0.1460   -0.2690 sy        1 H52      1.490200
      3 O2          1.4000   -0.0940    1.0760 o         1 H52     -0.652800
      4 N21         1.8120   -1.3200   -1.0410 n3        1 H52     -0.812500
      5 C22         3.1530   -1.7260   -0.6570 c3        1 H52      0.241500
      6 C2M         4.0750   -0.5580   -0.2980 c3        1 H52     -0.133100
      7 C23         3.1540   -2.7100    0.5470 c3        1 H52      0.139800
      8 N24         2.6660   -4.0330    0.2320 n3        1 H52     -0.831200
      9 C25         1.3570   -4.1170   -0.3810 c3        1 H52      0.171800
     10 C26         1.3310   -3.6650   -1.8390 c3        1 H52     -0.089400
     11 C27         1.1720   -2.1570   -2.0260 c3        1 H52      0.213800
     12 C5          1.4120    1.3110   -1.0640 ca        1 H52     -0.334500
     13 C10         1.3940    2.6030   -0.4380 ca        1 H52      0.093000
     14 C4          0.7240    2.9490    0.7820 ca        1 H52     -0.169600
     15 CM         -0.2450    2.0800    1.4860 c3        1 H52     -0.091800
     16 C9          2.0810    3.6700   -1.0910 ca        1 H52     -0.188300
     17 C8          2.5950    3.5150   -2.4020 ca        1 H52     -0.037000
     18 C7          2.4360    2.3200   -3.0570 ca        1 H52     -0.174000
     19 C6          1.8580    1.2330   -2.3730 ca        1 H52      0.000000
     20 C1          2.2230    4.9310   -0.4240 ca        1 H52      0.417200
     21 N2          1.6940    5.1970    0.7580 nb        1 H52     -0.656000
     22 C3          0.9350    4.2160    1.3250 ca        1 H52      0.390200
     23 H22         3.6150   -2.2540   -1.5470 h1        1 H52      0.068700
     24 H2M1        4.0630    0.2230   -1.0970 hc        1 H52      0.055700
     25 H2M2        3.7770   -0.0920    0.6730 hc        1 H52      0.055700
     26 H2M3        5.1170   -0.9460   -0.2010 hc        1 H52      0.055700
     27 H231        4.2260   -2.8340    0.8740 h1        1 H52      0.049200
     28 H232        2.5900   -2.2250    1.3990 h1        1 H52      0.049200
     29 H24         2.6820   -4.5940    1.0640 hn        1 H52      0.367800
     30 H251        1.0560   -5.2050   -0.3560 h1        1 H52      0.032700
     31 H252        0.5720   -3.5410    0.1910 h1        1 H52      0.032700
     32 H261        0.4570   -4.1590   -2.3400 hc        1 H52      0.055200
     33 H262        2.2590   -4.0130   -2.3650 hc        1 H52      0.055200
     34 H271        0.0670   -1.9140   -2.0320 h1        1 H52      0.051700
     35 H272        1.5850   -1.8960   -3.0460 h1        1 H52      0.051700
     36 HM1         0.2790    1.4040    2.2120 hc        1 H52      0.069367
     37 HM2        -0.9710    2.7030    2.0690 hc        1 H52      0.069367
     38 HM3        -0.8390    1.4600    0.7690 hc        1 H52      0.069367
     39 H8          3.1020    4.3670   -2.8820 ha        1 H52      0.141000
     40 H7          2.7720    2.1900   -4.0960 ha        1 H52      0.144000
     41 H6          1.7950    0.2840   -2.9370 ha        1 H52      0.141000
     42 H1          2.7990    5.7400   -0.9100 h4        1 H52      0.023100
     43 H3          0.4580    4.5010    2.2820 h4        1 H52      0.028100
@<TRIPOS>BOND
     1    1    2 2   
     2    2    3 2   
     3    2    4 1   
     4    2   12 1   
     5    4    5 1   
     6    4   11 1   
     7    5    6 1   
     8    5    7 1   
     9    5   23 1   
    10    6   24 1   
    11    6   25 1   
    12    6   26 1   
    13    7    8 1   
    14    7   27 1   
    15    7   28 1   
    16    8    9 1   
    17    8   29 1   
    18    9   10 1   
    19    9   30 1   
    20    9   31 1   
    21   10   11 1   
    22   10   32 1   
    23   10   33 1   
    24   11   34 1   
    25   11   35 1   
    26   12   13 ar  
    27   12   19 ar  
    28   13   14 ar  
    29   13   16 ar  
    30   14   15 1   
    31   14   22 ar  
    32   15   36 1   
    33   15   37 1   
    34   15   38 1   
    35   16   17 ar  
    36   16   20 ar  
    37   17   18 ar  
    38   17   39 1   
    39   18   19 ar  
    40   18   40 1   
    41   19   41 1   
    42   20   21 ar  
    43   20   42 1   
    44   21   22 ar  
    45   22   43 1   
@<TRIPOS>SUBSTRUCTURE
     1 H52         1 TEMP              0 ****  ****    0 ROOT
