@<TRIPOS>MOLECULE
H52
   43    45     1     0     0
SMALL
bcc


@<TRIPOS>ATOM
      1 O1          1.4360   -1.6670   -0.6170 o         1 H52     -0.652800
      2 S5          0.6780   -0.4740   -0.5510 sy        1 H52      1.490200
      3 O2          1.4180    0.7290   -0.5470 o         1 H52     -0.652800
      4 N21        -0.3730   -0.4380   -1.8050 n3        1 H52     -0.812500
      5 C22        -0.9240    0.7900   -2.3500 c3        1 H52      0.241500
      6 C2M        -1.3260    1.8140   -1.2870 c3        1 H52     -0.133100
      7 C23         0.0560    1.4940   -3.3320 c3        1 H52      0.139800
      8 N24         0.2210    0.8140   -4.5960 n3        1 H52     -0.831200
      9 C25         0.6100   -0.5800   -4.5400 c3        1 H52      0.171800
     10 C26        -0.5100   -1.5130   -4.0840 c3        1 H52     -0.089400
     11 C27        -0.6500   -1.6310   -2.5670 c3        1 H52      0.213800
     12 C5         -0.3080   -0.5410    0.8540 ca        1 H52     -0.334500
     13 C10         0.0930   -0.0420    2.1390 ca        1 H52      0.093000
     14 C4          1.4290    0.2750    2.5510 ca        1 H52     -0.169600
     15 CM          2.6500   -0.0680    1.7870 c3        1 H52     -0.091800
     16 C9         -0.9200    0.1380    3.1290 ca        1 H52     -0.188300
     17 C8         -2.2360   -0.3410    2.9240 ca        1 H52     -0.037000
     18 C7         -2.5510   -0.9850    1.7540 ca        1 H52     -0.174000
     19 C6         -1.5850   -1.0630    0.7320 ca        1 H52      0.000000
     20 C1         -0.5900    0.7820    4.3670 ca        1 H52      0.417200
     21 N2          0.6320    1.1750    4.6850 nb        1 H52     -0.656000
     22 C3          1.6200    0.8910    3.7880 ca        1 H52      0.390200
     23 H22        -1.8630    0.5160   -2.9230 h1        1 H52      0.068700
     24 H2M1       -1.9010    2.6330   -1.7830 hc        1 H52      0.055700
     25 H2M2       -1.9770    1.3490   -0.5080 hc        1 H52      0.055700
     26 H2M3       -0.4270    2.2610   -0.7940 hc        1 H52      0.055700
     27 H231       -0.3820    2.5060   -3.5690 h1        1 H52      0.049200
     28 H232        1.0350    1.6630   -2.7920 h1        1 H52      0.049200
     29 H24         0.8800    1.3220   -5.1570 hn        1 H52      0.367800
     30 H251        0.8970   -0.8800   -5.5900 h1        1 H52      0.032700
     31 H252        1.5140   -0.7530   -3.8850 h1        1 H52      0.032700
     32 H261       -1.4860   -1.1830   -4.5270 hc        1 H52      0.055200
     33 H262       -0.2910   -2.5390   -4.4820 hc        1 H52      0.055200
     34 H271       -1.7090   -1.9630   -2.3490 h1        1 H52      0.051700
     35 H272        0.0450   -2.4490   -2.2100 h1        1 H52      0.051700
     36 HM1         2.5310   -1.0340    1.2360 hc        1 H52      0.069367
     37 HM2         2.9060    0.7450    1.0580 hc        1 H52      0.069367
     38 HM3         3.5210   -0.1860    2.4820 hc        1 H52      0.069367
     39 H8         -2.9860   -0.2020    3.7190 ha        1 H52      0.141000
     40 H7         -3.5480   -1.4190    1.5910 ha        1 H52      0.144000
     41 H6         -1.9080   -1.5550   -0.2030 ha        1 H52      0.141000
     42 H1         -1.3860    0.9650    5.1120 h4        1 H52      0.023100
     43 H3          2.6350    1.1780    4.1200 h4        1 H52      0.028100
@<TRIPOS>BOND
     1    1    2 2   
     2    2    3 2   
     3    2    4 1   
     4    2   12 1   
     5    4    5 1   
     6    4   11 1   
     7    5    6 1   
     8    5    7 1   
     9    5   23 1   
    10    6   24 1   
    11    6   25 1   
    12    6   26 1   
    13    7    8 1   
    14    7   27 1   
    15    7   28 1   
    16    8    9 1   
    17    8   29 1   
    18    9   10 1   
    19    9   30 1   
    20    9   31 1   
    21   10   11 1   
    22   10   32 1   
    23   10   33 1   
    24   11   34 1   
    25   11   35 1   
    26   12   13 ar  
    27   12   19 ar  
    28   13   14 ar  
    29   13   16 ar  
    30   14   15 1   
    31   14   22 ar  
    32   15   36 1   
    33   15   37 1   
    34   15   38 1   
    35   16   17 ar  
    36   16   20 ar  
    37   17   18 ar  
    38   17   39 1   
    39   18   19 ar  
    40   18   40 1   
    41   19   41 1   
    42   20   21 ar  
    43   20   42 1   
    44   21   22 ar  
    45   22   43 1   
@<TRIPOS>SUBSTRUCTURE
     1 H52         1 TEMP              0 ****  ****    0 ROOT
