@<TRIPOS>MOLECULE
H52
   43    45     1     0     0
SMALL
bcc


@<TRIPOS>ATOM
      1 O1         -0.4110   -0.3620   -0.4800 o         1 H52     -0.652800
      2 S5          0.9720   -0.1460   -0.2720 sy        1 H52      1.490200
      3 O2          1.3920   -0.0850    1.0750 o         1 H52     -0.652800
      4 N21         1.8170   -1.3230   -1.0330 n3        1 H52     -0.812500
      5 C22         3.1560   -1.7250   -0.6400 c3        1 H52      0.241500
      6 C2M         4.0740   -0.5540   -0.2820 c3        1 H52     -0.133100
      7 C23         3.1510   -2.7020    0.5700 c3        1 H52      0.139800
      8 N24         2.6660   -4.0280    0.2600 n3        1 H52     -0.831200
      9 C25         1.3610   -4.1170   -0.3600 c3        1 H52      0.171800
     10 C26         1.3420   -3.6730   -1.8200 c3        1 H52     -0.089400
     11 C27         1.1830   -2.1660   -2.0170 c3        1 H52      0.213800
     12 C5          1.4140    1.3070   -1.0730 ca        1 H52     -0.334500
     13 C10         1.3910    2.6030   -0.4550 ca        1 H52      0.093000
     14 C4          0.7130    2.9550    0.7590 ca        1 H52     -0.169600
     15 CM         -0.2590    2.0890    1.4630 c3        1 H52     -0.091800
     16 C9          2.0800    3.6670   -1.1110 ca        1 H52     -0.188300
     17 C8          2.6010    3.5050   -2.4170 ca        1 H52     -0.037000
     18 C7          2.4470    2.3070   -3.0670 ca        1 H52     -0.174000
     19 C6          1.8680    1.2220   -2.3790 ca        1 H52      0.000000
     20 C1          2.2160    4.9320   -0.4500 ca        1 H52      0.417200
     21 N2          1.6810    5.2050    0.7270 nb        1 H52     -0.656000
     22 C3          0.9190    4.2260    1.2960 ca        1 H52      0.390200
     23 H22         3.6230   -2.2580   -1.5240 h1        1 H52      0.068700
     24 H2M1        5.1160   -0.9410   -0.1770 hc        1 H52      0.055700
     25 H2M2        4.0660    0.2220   -1.0850 hc        1 H52      0.055700
     26 H2M3        3.7710   -0.0830    0.6850 hc        1 H52      0.055700
     27 H231        2.5820   -2.2130    1.4160 h1        1 H52      0.049200
     28 H232        4.2210   -2.8240    0.9030 h1        1 H52      0.049200
     29 H24         2.6780   -4.5840    1.0950 hn        1 H52      0.367800
     30 H251        1.0600   -5.2050   -0.3300 h1        1 H52      0.032700
     31 H252        0.5720   -3.5380    0.2050 h1        1 H52      0.032700
     32 H261        0.4710   -4.1700   -2.3240 hc        1 H52      0.055200
     33 H262        2.2730   -4.0230   -2.3390 hc        1 H52      0.055200
     34 H271        1.6010   -1.9110   -3.0360 h1        1 H52      0.051700
     35 H272        0.0780   -1.9250   -2.0300 h1        1 H52      0.051700
     36 HM1        -0.8480    1.4650    0.7460 hc        1 H52      0.069367
     37 HM2         0.2630    1.4180    2.1950 hc        1 H52      0.069367
     38 HM3        -0.9890    2.7140    2.0380 hc        1 H52      0.069367
     39 H8          3.1100    4.3550   -2.8990 ha        1 H52      0.141000
     40 H7          2.7890    2.1700   -4.1030 ha        1 H52      0.144000
     41 H6          1.8090    0.2700   -2.9380 ha        1 H52      0.141000
     42 H1          2.7940    5.7390   -0.9380 h4        1 H52      0.023100
     43 H3          0.4370    4.5160    2.2480 h4        1 H52      0.028100
@<TRIPOS>BOND
     1    1    2 2   
     2    2    3 2   
     3    2    4 1   
     4    2   12 1   
     5    4    5 1   
     6    4   11 1   
     7    5    6 1   
     8    5    7 1   
     9    5   23 1   
    10    6   24 1   
    11    6   25 1   
    12    6   26 1   
    13    7    8 1   
    14    7   27 1   
    15    7   28 1   
    16    8    9 1   
    17    8   29 1   
    18    9   10 1   
    19    9   30 1   
    20    9   31 1   
    21   10   11 1   
    22   10   32 1   
    23   10   33 1   
    24   11   34 1   
    25   11   35 1   
    26   12   13 ar  
    27   12   19 ar  
    28   13   14 ar  
    29   13   16 ar  
    30   14   15 1   
    31   14   22 ar  
    32   15   36 1   
    33   15   37 1   
    34   15   38 1   
    35   16   17 ar  
    36   16   20 ar  
    37   17   18 ar  
    38   17   39 1   
    39   18   19 ar  
    40   18   40 1   
    41   19   41 1   
    42   20   21 ar  
    43   20   42 1   
    44   21   22 ar  
    45   22   43 1   
@<TRIPOS>SUBSTRUCTURE
     1 H52         1 TEMP              0 ****  ****    0 ROOT
