@<TRIPOS>MOLECULE
H53
   35    36     1     0     0
SMALL
bcc


@<TRIPOS>ATOM
      1 O5          0.0890    0.1040   -0.0160 os        1 H53     -0.423600
      2 C5          1.5090   -0.0610    0.0090 c3        1 H53      0.099100
      3 C4          1.9970   -0.1160    1.4630 c3        1 H53      0.123100
      4 C3          1.5890    1.1790    2.1800 c3        1 H53      0.105100
      5 C2          0.0760    1.4190    2.0380 c3        1 H53      0.089100
      6 C1         -0.3430    1.3450    0.5550 c3        1 H53      0.167400
      7 C7         -1.8340    1.3940    0.4010 ca        1 H53     -0.085300
      8 C12        -2.4860    2.6260    0.2020 ca        1 H53      0.084100
      9 O12        -1.6970    3.7580    0.2010 oh        1 H53     -0.511100
     10 C11        -3.8780    2.6890    0.0360 ca        1 H53     -0.173000
     11 C10        -4.6350    1.5250    0.0700 ca        1 H53     -0.111000
     12 C9         -3.9880    0.2950    0.2730 ca        1 H53      0.094100
     13 O9         -4.7940   -0.8220    0.3010 oh        1 H53     -0.495100
     14 C8         -2.5990    0.2270    0.4390 ca        1 H53     -0.152000
     15 O2         -0.1500    2.7010    2.6020 oh        1 H53     -0.608800
     16 O3          1.9480    1.0140    3.5420 oh        1 H53     -0.608800
     17 O4          3.4070   -0.2460    1.4300 oh        1 H53     -0.596800
     18 C6          1.7850   -1.3800   -0.7170 c3        1 H53      0.140400
     19 O6          1.4750   -1.2860   -2.0890 oh        1 H53     -0.594800
     20 H5          2.0010    0.7920   -0.5340 h1        1 H53      0.072700
     21 H4          1.5470   -1.0000    1.9950 h1        1 H53      0.060700
     22 H3          2.1520    2.0540    1.7490 h1        1 H53      0.063700
     23 H2         -0.4910    0.6520    2.6340 h1        1 H53      0.062700
     24 H1          0.1300    2.2010   -0.0060 h1        1 H53      0.078700
     25 HO12       -2.2450    4.5040   -0.0840 ho        1 H53      0.427000
     26 H11        -4.3680    3.6600   -0.1240 ha        1 H53      0.141000
     27 H10        -5.7260    1.5520   -0.0590 ha        1 H53      0.157000
     28 HO9        -4.2260   -1.5970    0.4160 ho        1 H53      0.422000
     29 H8         -2.0970   -0.7420    0.5830 ha        1 H53      0.156000
     30 HO2        -0.9680    3.0510    2.2240 ho        1 H53      0.426000
     31 HO3         1.6170    1.7920    4.0110 ho        1 H53      0.428000
     32 HO4         3.7100   -0.1530    2.3440 ho        1 H53      0.425000
     33 H61         1.2010   -2.2100   -0.2390 h1        1 H53      0.063200
     34 H62         2.8860   -1.5990   -0.6690 h1        1 H53      0.063200
     35 HO6         0.5450   -1.0340   -2.1530 ho        1 H53      0.409000
@<TRIPOS>BOND
     1    1    2 1   
     2    1    6 1   
     3    2    3 1   
     4    2   18 1   
     5    2   20 1   
     6    3    4 1   
     7    3   17 1   
     8    3   21 1   
     9    4    5 1   
    10    4   16 1   
    11    4   22 1   
    12    5    6 1   
    13    5   15 1   
    14    5   23 1   
    15    6    7 1   
    16    6   24 1   
    17    7    8 ar  
    18    7   14 ar  
    19    8    9 1   
    20    8   10 ar  
    21    9   25 1   
    22   10   11 ar  
    23   10   26 1   
    24   11   12 ar  
    25   11   27 1   
    26   12   13 1   
    27   12   14 ar  
    28   13   28 1   
    29   14   29 1   
    30   15   30 1   
    31   16   31 1   
    32   17   32 1   
    33   18   19 1   
    34   18   33 1   
    35   18   34 1   
    36   19   35 1   
@<TRIPOS>SUBSTRUCTURE
     1 H53         1 TEMP              0 ****  ****    0 ROOT
