@<TRIPOS>MOLECULE
H53
   35    36     1     0     0
SMALL
bcc


@<TRIPOS>ATOM
      1 O5          0.7710    0.9410    0.1790 os        1 H53     -0.413600
      2 C5          2.1750    0.9070    0.4420 c3        1 H53      0.100100
      3 C4          2.8450   -0.1020   -0.5010 c3        1 H53      0.085100
      4 C3          2.2180   -1.4840   -0.2710 c3        1 H53      0.068100
      5 C2          0.6920   -1.4090   -0.4460 c3        1 H53      0.122100
      6 C1          0.1100   -0.2980    0.4570 c3        1 H53      0.196400
      7 C7         -1.3520   -0.0810    0.2020 ca        1 H53     -0.121300
      8 C12        -2.3190   -0.8150    0.9150 ca        1 H53      0.114100
      9 O12        -2.0030   -1.7460    1.8790 oh        1 H53     -0.512100
     10 C11        -3.6890   -0.5850    0.7090 ca        1 H53     -0.122000
     11 C10        -4.1010    0.3720   -0.2110 ca        1 H53     -0.176000
     12 C9         -3.1380    1.0900   -0.9340 ca        1 H53      0.088100
     13 O9         -3.4700    2.0440   -1.8730 oh        1 H53     -0.499100
     14 C8         -1.7680    0.8680   -0.7330 ca        1 H53     -0.102000
     15 O2          0.1130   -2.6340   -0.0280 oh        1 H53     -0.613800
     16 O3          2.6850   -2.4150   -1.2350 oh        1 H53     -0.604800
     17 O4          4.2260   -0.1400   -0.1820 oh        1 H53     -0.590800
     18 C6          2.6790    2.3300    0.1840 c3        1 H53      0.141400
     19 O6          2.1810    3.2300    1.1480 oh        1 H53     -0.593800
     20 H5          2.3590    0.6190    1.5140 h1        1 H53      0.072700
     21 H4          2.6930    0.2110   -1.5710 h1        1 H53      0.065700
     22 H3          2.4670   -1.8460    0.7660 h1        1 H53      0.065700
     23 H2          0.4410   -1.2070   -1.5220 h1        1 H53      0.072700
     24 H1          0.2800   -0.5730    1.5380 h1        1 H53      0.064700
     25 HO12       -1.1890   -2.1970    1.6060 ho        1 H53      0.439000
     26 H11        -4.4230   -1.1650    1.2870 ha        1 H53      0.153000
     27 H10        -5.1720    0.5590   -0.3730 ha        1 H53      0.136000
     28 HO9        -4.4360    2.1080   -1.8990 ho        1 H53      0.417000
     29 H8         -1.0310    1.4550   -1.3000 ha        1 H53      0.162000
     30 HO2         0.4700   -3.3190   -0.6090 ho        1 H53      0.431000
     31 HO3         3.5920   -2.6330   -0.9920 ho        1 H53      0.411000
     32 HO4         4.6730   -0.5270   -0.9450 ho        1 H53      0.407000
     33 H61         2.3860    2.6590   -0.8480 h1        1 H53      0.062200
     34 H62         3.7950    2.3500    0.3010 h1        1 H53      0.062200
     35 HO6         1.2160    3.2020    1.0920 ho        1 H53      0.414000
@<TRIPOS>BOND
     1    1    2 1   
     2    1    6 1   
     3    2    3 1   
     4    2   18 1   
     5    2   20 1   
     6    3    4 1   
     7    3   17 1   
     8    3   21 1   
     9    4    5 1   
    10    4   16 1   
    11    4   22 1   
    12    5    6 1   
    13    5   15 1   
    14    5   23 1   
    15    6    7 1   
    16    6   24 1   
    17    7    8 ar  
    18    7   14 ar  
    19    8    9 1   
    20    8   10 ar  
    21    9   25 1   
    22   10   11 ar  
    23   10   26 1   
    24   11   12 ar  
    25   11   27 1   
    26   12   13 1   
    27   12   14 ar  
    28   13   28 1   
    29   14   29 1   
    30   15   30 1   
    31   16   31 1   
    32   17   32 1   
    33   18   19 1   
    34   18   33 1   
    35   18   34 1   
    36   19   35 1   
@<TRIPOS>SUBSTRUCTURE
     1 H53         1 TEMP              0 ****  ****    0 ROOT
