@<TRIPOS>MOLECULE
H53
   35    34     1     0     0
SMALL
bcc


@<TRIPOS>ATOM
      1 O5          0.5500   -0.3830   -0.9620 os        1 H53     -0.277000
      2 C5          2.0190   -0.4670   -0.8870 c3        1 H53     -0.011000
      3 C4          2.5270   -0.5190    0.5320 c3        1 H53     -0.019000
      4 C3          1.9770    0.5770    1.3670 c3        1 H53     -0.057000
      5 C2          0.4910    0.6510    1.2850 c3        1 H53     -0.017000
      6 C1         -0.0040    0.6970   -0.1440 c3        1 H53      0.084000
      7 C7         -1.4980    0.5790   -0.1460 c2        1 H53     -0.061000
      8 C12        -2.2920    1.6630   -0.5570 c2        1 H53      0.073000
      9 O12        -1.6820    2.8840   -0.9370 oh        1 H53     -0.249000
     10 C11        -3.6720    1.5280   -0.6130 c1        1 H53     -0.179000
     11 C10        -4.2610    0.3300   -0.2650 c1        1 H53     -0.165000
     12 C9         -3.4740   -0.7390    0.1410 c1        1 H53      0.041000
     13 O9         -4.0630   -1.9150    0.5370 o         1 H53     -0.252000
     14 C8         -2.0840   -0.6020    0.1970 c2        1 H53     -0.100000
     15 O2          0.0350    1.8430    1.9800 oh        1 H53     -0.308000
     16 O3          2.3610    0.3500    2.7450 oh        1 H53     -0.326000
     17 O4          3.9580   -0.4150    0.5150 oh        1 H53     -0.318000
     18 C6          2.4740   -1.7130   -1.6080 c3        1 H53     -0.008000
     19 O6          2.2940   -1.5530   -2.9830 oh        1 H53     -0.323000
     20 H5          2.3870    0.2820   -1.3130 h1        1 H53      0.113000
     21 H4          2.2690   -1.3990    0.9380 h1        1 H53      0.086000
     22 H3          2.3530    1.4200    1.0690 h1        1 H53      0.146000
     23 H2          0.1000   -0.1640    1.7410 h1        1 H53      0.086000
     24 H1          0.2520    1.5740   -0.5470 h1        1 H53      0.126000
     25 HO12       -2.0300    3.1620   -1.7060 ho        1 H53      0.220000
     26 H11        -4.2330    2.2900   -0.9020 ha        1 H53      0.137000
     27 H10        -5.2630    0.2300   -0.3050 ha        1 H53      0.136000
     28 HO9        -4.5110   -2.2600   -0.1360 ho        1 H53      0.217000
     29 H8         -1.5200   -1.3700    0.4890 ha        1 H53      0.158000
     30 HO2        -0.0370    1.6760    2.8210 ho        1 H53      0.214000
     31 HO3         2.2300   -0.4990    2.9510 ho        1 H53      0.202000
     32 HO4         4.3240   -1.1890    0.8440 ho        1 H53      0.218000
     33 H61         3.3880   -1.8650   -1.4270 h1        1 H53      0.101500
     34 H62         1.9630   -2.4590   -1.3060 h1        1 H53      0.101500
     35 HO6         2.6740   -2.2230   -3.4080 ho        1 H53      0.212000
@<TRIPOS>BOND
     1    1    2 1   
     2    1    6 1   
     3    2    3 1   
     4    2   18 1   
     5    2   20 1   
     6    3    4 1   
     7    3   17 1   
     8    3   21 1   
     9    4    5 1   
    10    4   16 1   
    11    4   22 1   
    12    5    6 1   
    13    5   15 1   
    14    5   23 1   
    15    6    7 1   
    16    6   24 1   
    17    7    8 1   
    18    7   14 1   
    19    8    9 1   
    20    8   10 1   
    21    9   25 1   
    22   10   26 1   
    23   11   12 1   
    24   11   27 1   
    25   12   14 1   
    26   13   28 1   
    27   14   29 1   
    28   15   30 1   
    29   16   31 1   
    30   17   32 1   
    31   18   19 1   
    32   18   33 1   
    33   18   34 1   
    34   19   35 1   
@<TRIPOS>SUBSTRUCTURE
     1 H53         1 TEMP              0 ****  ****    0 ROOT
