@<TRIPOS>MOLECULE
H53
   35    36     1     0     0
SMALL
bcc


@<TRIPOS>ATOM
      1 O5          0.0510    0.1450   -0.0710 os        1 H53     -0.408600
      2 C5          1.4730   -0.0060   -0.0650 c3        1 H53      0.140100
      3 C4          1.9530   -0.1370    1.3900 c3        1 H53      0.119100
      4 C3          1.5500    1.1290    2.1610 c3        1 H53      0.105100
      5 C2          0.0380    1.3820    2.0270 c3        1 H53      0.088100
      6 C1         -0.3780    1.3670    0.5420 c3        1 H53      0.165400
      7 C7         -1.8680    1.4280    0.3850 ca        1 H53     -0.080300
      8 C12        -2.5170    2.6700    0.2430 ca        1 H53      0.083100
      9 O12        -1.7260    3.8000    0.3030 oh        1 H53     -0.511100
     10 C11        -3.9080    2.7450    0.0740 ca        1 H53     -0.174000
     11 C10        -4.6670    1.5830    0.0450 ca        1 H53     -0.113000
     12 C9         -4.0240    0.3430    0.1870 ca        1 H53      0.093100
     13 O9         -4.8320   -0.7730    0.1540 oh        1 H53     -0.496100
     14 C8         -2.6360    0.2630    0.3570 ca        1 H53     -0.149000
     15 O2         -0.1840    2.6400    2.6450 oh        1 H53     -0.610800
     16 O3          1.9070    0.9050    3.5150 oh        1 H53     -0.610800
     17 O4          3.3620   -0.2810    1.3670 oh        1 H53     -0.596800
     18 C6          1.7690   -1.2820   -0.8570 c3        1 H53      0.136400
     19 O6          1.9060   -0.8990   -2.2160 oh        1 H53     -0.596800
     20 H5          1.9600    0.8770   -0.5610 h1        1 H53      0.080700
     21 H4          1.4880   -1.0390    1.8760 h1        1 H53      0.057700
     22 H3          2.1170    2.0190    1.7680 h1        1 H53      0.063700
     23 H2         -0.5330    0.5940    2.5920 h1        1 H53      0.062700
     24 H1          0.0990    2.2430    0.0140 h1        1 H53      0.079700
     25 HO12       -2.2680    4.5580    0.0390 ho        1 H53      0.426000
     26 H11        -4.3950    3.7240   -0.0400 ha        1 H53      0.140000
     27 H10        -5.7580    1.6190   -0.0890 ha        1 H53      0.156000
     28 HO9        -4.2630   -1.5540    0.2140 ho        1 H53      0.421000
     29 H8         -2.1360   -0.7140    0.4490 ha        1 H53      0.156000
     30 HO2        -0.9900    3.0170    2.2700 ho        1 H53      0.427000
     31 HO3         1.5730    1.6610    4.0160 ho        1 H53      0.428000
     32 HO4         3.6570   -0.2120    2.2850 ho        1 H53      0.425000
     33 H61         0.9310   -2.0180   -0.7380 h1        1 H53      0.045200
     34 H62         2.7320   -1.7280   -0.4860 h1        1 H53      0.045200
     35 HO6         2.0080   -1.7140   -2.7200 ho        1 H53      0.402000
@<TRIPOS>BOND
     1    1    2 1   
     2    1    6 1   
     3    2    3 1   
     4    2   18 1   
     5    2   20 1   
     6    3    4 1   
     7    3   17 1   
     8    3   21 1   
     9    4    5 1   
    10    4   16 1   
    11    4   22 1   
    12    5    6 1   
    13    5   15 1   
    14    5   23 1   
    15    6    7 1   
    16    6   24 1   
    17    7    8 ar  
    18    7   14 ar  
    19    8    9 1   
    20    8   10 ar  
    21    9   25 1   
    22   10   11 ar  
    23   10   26 1   
    24   11   12 ar  
    25   11   27 1   
    26   12   13 1   
    27   12   14 ar  
    28   13   28 1   
    29   14   29 1   
    30   15   30 1   
    31   16   31 1   
    32   17   32 1   
    33   18   19 1   
    34   18   33 1   
    35   18   34 1   
    36   19   35 1   
@<TRIPOS>SUBSTRUCTURE
     1 H53         1 TEMP              0 ****  ****    0 ROOT
