@<TRIPOS>MOLECULE
H59
   68    69     1     0     0
SMALL
bcc


@<TRIPOS>ATOM
      1 C1         -0.2380    0.4910    1.1440 c2        1 H59     -0.308000
      2 C2          0.9490   -0.1010    0.6940 c2        1 H59      0.161000
      3 C3          2.2290    0.3770    1.0990 c2        1 H59     -0.225000
      4 C4          2.3000    1.4590    1.9550 c2        1 H59      0.168000
      5 C5          1.0670    2.1340    2.4700 c3        1 H59     -0.224000
      6 C6         -0.2100    1.5970    2.0290 c1        1 H59     -0.076000
      7 C7         -1.0220   -3.9930   -2.3920 c2        1 H59     -0.334000
      8 C8         -2.3900   -3.8800   -2.4510 c2        1 H59      0.161000
      9 C9         -2.8550   -2.6640   -1.6250 c3        1 H59      0.051000
     10 N10        -1.6110   -2.1690   -1.0460 n         1 H59     -0.415000
     11 C11        -0.5270   -2.9080   -1.4780 c2        1 H59      0.360000
     12 C12         1.6990   -6.7900   -4.3160 c2        1 H59     -1.004000
     13 C13         1.9880   -6.0910   -3.0530 c2        1 H59      0.149000
     14 C14         3.2260   -6.2710   -2.5050 c2        1 H59     -0.224000
     15 C15         4.1390   -7.1860   -3.1690 c2        1 H59     -0.228000
     16 C16         4.9350   -6.7600   -4.1960 c2        1 H59      0.091000
     17 C17         2.6950   -7.4840   -4.8770 c1        1 H59      0.227000
     18 C18        -0.1700   -4.9590   -3.0550 c2        1 H59      0.351000
     19 N19         1.0210   -5.2780   -2.4460 n3        1 H59     -0.248000
     20 S20         0.1410   -6.7670   -5.0340 s6        1 H59      2.947000
     21 C21        -0.5580   -5.5550   -4.2320 c2        1 H59     -1.151000
     22 O22         0.2830   -6.4720   -6.3960 o         1 H59     -0.945000
     23 O23        -0.4880   -7.9870   -4.7630 o         1 H59     -0.945000
     24 S25         6.1200   -9.1550   -4.8080 s6        1 H59      2.815000
     25 C26         4.9190   -9.8150   -5.7880 c3        1 H59     -0.980000
     26 O27         7.3740   -9.3750   -5.4120 o         1 H59     -0.923500
     27 O28         5.9490   -9.6130   -3.4920 o         1 H59     -0.923500
     28 O29        -3.3160   -4.6730   -3.0100 oh        1 H59     -0.208000
     29 O30         0.6610   -2.7250   -1.1310 o         1 H59     -0.440000
     30 C31        -1.4610   -0.0420    0.6930 c1        1 H59     -0.090000
     31 F32         3.4780    1.9570    2.3640 f         1 H59     -0.076000
     32 C33         3.4390   -0.3130    0.5940 c3        1 H59     -0.183000
     33 C34        -3.6680   -1.6320   -2.4540 c3        1 H59     -0.043000
     34 C35        -4.8670   -2.3610   -3.0710 c3        1 H59     -0.158000
     35 C36        -5.9730   -1.4510   -3.5370 c3        1 H59     -0.208000
     36 C37        -4.1460   -0.5350   -1.5150 c3        1 H59     -0.209500
     37 C38        -2.8100   -1.0240   -3.5510 c3        1 H59     -0.209500
     38 H2          0.9100   -0.9750    0.0040 ha        1 H59      0.206000
     39 H5          1.0760    2.1110    3.6020 hc        1 H59      0.181000
     40 H6          1.0950    3.2300    2.1860 hc        1 H59      0.181000
     41 H9         -3.5250   -3.0400   -0.7950 h1        1 H59      0.124000
     42 H14         3.5570   -5.7970   -1.5720 ha        1 H59      0.155000
     43 H15         4.2010   -8.2050   -2.7440 ha        1 H59      0.184000
     44 H17         4.8790   -5.6980   -4.5240 h4        1 H59      0.152000
     45 HN19        1.3070   -4.7400   -1.6480 hn        1 H59      0.278000
     46 H21        -1.4410   -5.1180   -4.7310 h4        1 H59      0.184000
     47 HN24        6.3730   -6.9990   -5.5610 hn        1 H59      0.254000
     48 H26         5.2030   -9.8440   -6.8690 h1        1 H59      0.176667
     49 H26A        4.6960  -10.8730   -5.4930 h1        1 H59      0.176667
     50 H26B        3.9280   -9.2820   -5.7440 h1        1 H59      0.176667
     51 HO29       -2.8770   -5.4640   -3.3810 ho        1 H59      0.260000
     52 H31        -1.5640   -1.3330   -0.4090 hn        1 H59      0.333000
     53 H31A       -2.3800    0.4110    1.0920 ha        1 H59      0.083000
     54 H33         3.2690   -0.7060   -0.4390 hc        1 H59      0.099000
     55 H33A        4.3150    0.3820    0.5740 hc        1 H59      0.099000
     56 H33B        3.6920   -1.1780    1.2590 hc        1 H59      0.099000
     57 H35        -5.2810   -3.0840   -2.3190 hc        1 H59      0.088500
     58 H35A       -4.5030   -2.9670   -3.9440 hc        1 H59      0.088500
     59 H36        -6.4900   -0.9700   -2.6710 hc        1 H59      0.075333
     60 H36A       -5.5820   -0.6470   -4.2060 hc        1 H59      0.075333
     61 H36B       -6.7300   -2.0430   -4.1070 hc        1 H59      0.075333
     62 H37        -4.6840    0.2550   -2.0950 hc        1 H59      0.081833
     63 H37A       -4.8420   -0.9540   -0.7490 hc        1 H59      0.081833
     64 H37B       -3.2870   -0.0480   -0.9920 hc        1 H59      0.081833
     65 H38        -1.9990   -0.3920   -3.1160 hc        1 H59      0.081833
     66 H38A       -3.4370   -0.3810   -4.2150 hc        1 H59      0.081833
     67 H38B       -2.3440   -1.8270   -4.1720 hc        1 H59      0.081833
     68 N24         5.8420   -7.5250   -4.8990 n3        1 H59     -0.801000
@<TRIPOS>BOND
     1    1    2 1   
     2    1    6 1   
     3    1   30 1   
     4    2    3 1   
     5    2   38 1   
     6    3    4 1   
     7    3   32 1   
     8    4    5 1   
     9    4   31 1   
    10    5    6 1   
    11    5   39 1   
    12    5   40 1   
    13    7    8 1   
    14    7   11 1   
    15    7   18 1   
    16    8    9 1   
    17    8   28 1   
    18    9   10 1   
    19    9   33 1   
    20    9   41 1   
    21   10   11 1   
    22   10   52 1   
    23   11   29 1   
    24   12   13 1   
    25   12   17 1   
    26   12   20 1   
    27   13   14 1   
    28   13   19 1   
    29   14   15 1   
    30   14   42 1   
    31   15   16 1   
    32   15   43 1   
    33   16   44 1   
    34   16   68 1   
    35   18   19 1   
    36   18   21 1   
    37   19   45 1   
    38   20   21 1   
    39   20   22 1   
    40   20   23 1   
    41   21   46 1   
    42   24   25 1   
    43   24   26 1   
    44   24   27 1   
    45   24   68 1   
    46   25   48 1   
    47   25   49 1   
    48   25   50 1   
    49   28   51 1   
    50   30   53 1   
    51   32   54 1   
    52   32   55 1   
    53   32   56 1   
    54   33   34 1   
    55   33   36 1   
    56   33   37 1   
    57   34   35 1   
    58   34   57 1   
    59   34   58 1   
    60   35   59 1   
    61   35   60 1   
    62   35   61 1   
    63   36   62 1   
    64   36   63 1   
    65   36   64 1   
    66   37   65 1   
    67   37   66 1   
    68   37   67 1   
    69   47   68 1   
@<TRIPOS>SUBSTRUCTURE
     1 H59         1 TEMP              0 ****  ****    0 ROOT
