@<TRIPOS>MOLECULE
H59
   68    71     1     0     0
SMALL
bcc


@<TRIPOS>ATOM
      1 C1         -4.6480    1.7490   -0.4430 ca        1 H59     -0.149300
      2 C2         -3.7960    2.8440   -0.2810 ca        1 H59     -0.093000
      3 C3         -4.0440    3.8120    0.6950 ca        1 H59     -0.105300
      4 C4         -5.1780    3.6590    1.5250 ca        1 H59      0.132900
      5 C5         -6.0370    2.5560    1.3650 ca        1 H59     -0.164000
      6 C6         -5.7660    1.6090    0.3840 ca        1 H59     -0.104000
      7 C7         -1.3570   -0.8740   -0.2280 ce        1 H59     -0.353200
      8 C8         -2.3290   -1.5090    0.5060 c2        1 H59      0.217900
      9 C9         -3.7260   -1.2150   -0.0730 c3        1 H59      0.111900
     10 N10        -3.4370   -0.3030   -1.1970 n         1 H59     -0.435800
     11 C11        -2.0440   -0.0230   -1.2430 c         1 H59      0.716700
     12 C12         2.9430   -1.0160    0.0780 ca        1 H59     -0.355500
     13 C13         2.2400    0.0720   -0.4790 ca        1 H59      0.236600
     14 C14         2.9570    1.1450   -1.0640 ca        1 H59     -0.169000
     15 C15         4.3380    1.1310   -1.1040 ca        1 H59     -0.080000
     16 C16         5.0630    0.0440   -0.5530 ca        1 H59      0.104600
     17 C17         4.3420   -1.0130    0.0220 ca        1 H59     -0.033000
     18 C18         0.0830   -0.9720   -0.0810 ce        1 H59      0.409000
     19 N19         0.8410    0.1190   -0.4560 nh        1 H59     -0.615400
     20 S20         2.2180   -2.3460    0.8440 sy        1 H59      1.479200
     21 C21         0.6630   -2.1020    0.4400 cf        1 H59     -0.661100
     22 O22         2.7210   -3.5340    0.2990 o         1 H59     -0.669800
     23 O23         2.3920   -2.2250    2.2310 o         1 H59     -0.669800
     24 S25         7.4900    1.2500   -0.3480 s6        1 H59      1.470900
     25 C26         7.4210    1.4920    1.3310 c3        1 H59     -0.373300
     26 O27         8.7860    0.8110   -0.6820 o         1 H59     -0.651300
     27 O28         7.0300    2.4240   -0.9750 o         1 H59     -0.651300
     28 O29        -2.2370   -2.2550    1.6150 oh        1 H59     -0.449100
     29 O30        -1.5170    0.8040   -2.0040 o         1 H59     -0.628500
     30 C31        -4.3740    0.7440   -1.5270 c3        1 H59      0.123300
     31 F32        -5.4470    4.5770    2.4840 f         1 H59     -0.135900
     32 C33        -3.1480    4.9790    0.8550 c3        1 H59     -0.055800
     33 C34        -4.4650   -2.5310   -0.4590 c3        1 H59     -0.032000
     34 C35        -5.0270   -3.1280    0.8390 c3        1 H59     -0.085400
     35 C36        -5.5240   -4.5440    0.6990 c3        1 H59     -0.091100
     36 C37        -5.6210   -2.2350   -1.4030 c3        1 H59     -0.092100
     37 C38        -3.5020   -3.4920   -1.1350 c3        1 H59     -0.092100
     38 H2         -2.9150    2.9450   -0.9370 ha        1 H59      0.152000
     39 H5         -6.9170    2.4560    2.0190 ha        1 H59      0.152000
     40 H6         -6.4430    0.7500    0.2560 ha        1 H59      0.136000
     41 H9         -4.3450   -0.6770    0.7060 h1        1 H59      0.091700
     42 H14         2.4180    2.0000   -1.5040 ha        1 H59      0.150000
     43 H15         4.8720    1.9810   -1.5700 ha        1 H59      0.180000
     44 H17         4.8760   -1.8870    0.4380 ha        1 H59      0.156000
     45 HN19        0.3900    0.8740   -0.9380 hn        1 H59      0.480800
     46 H21         0.0070   -2.9820    0.5600 h4        1 H59      0.183000
     47 HN24        6.8280   -0.9050   -0.7710 hn        1 H59      0.462800
     48 H26         7.8650    0.6500    1.9170 h1        1 H59      0.119700
     49 H26A        8.0010    2.4080    1.6160 h1        1 H59      0.119700
     50 H26B        6.3890    1.6470    1.7300 h1        1 H59      0.119700
     51 HO29       -1.3030   -2.2900    1.9060 ho        1 H59      0.466000
     52 H31        -5.3440    0.2550   -1.8300 h1        1 H59      0.081200
     53 H31A       -3.9540    1.2810   -2.4290 h1        1 H59      0.081200
     54 H33        -3.6310    5.8910    0.4220 hc        1 H59      0.054033
     55 H33A       -2.9530    5.1740    1.9400 hc        1 H59      0.054033
     56 H33B       -2.1720    4.8140    0.3380 hc        1 H59      0.054033
     57 H35        -4.2340   -3.1100    1.6340 hc        1 H59      0.048700
     58 H35A       -5.8680   -2.4740    1.1930 hc        1 H59      0.048700
     59 H36        -6.2890   -4.6330   -0.1090 hc        1 H59      0.038700
     60 H36A       -4.6820   -5.2410    0.4660 hc        1 H59      0.038700
     61 H36B       -5.9910   -4.8720    1.6600 hc        1 H59      0.038700
     62 H37        -5.2470   -1.8950   -2.3990 hc        1 H59      0.044867
     63 H37A       -6.2240   -3.1620   -1.5640 hc        1 H59      0.044867
     64 H37B       -6.2900   -1.4520   -0.9710 hc        1 H59      0.044867
     65 H38        -2.7330   -3.8500   -0.4070 hc        1 H59      0.044867
     66 H38A       -4.0580   -4.3780   -1.5280 hc        1 H59      0.044867
     67 H38B       -2.9870   -2.9940   -1.9910 hc        1 H59      0.044867
     68 N24         6.4680    0.0080   -0.5960 nh        1 H59     -0.784500
@<TRIPOS>BOND
     1    1    2 ar  
     2    1    6 ar  
     3    1   30 1   
     4    2    3 ar  
     5    2   38 1   
     6    3    4 ar  
     7    3   32 1   
     8    4    5 ar  
     9    4   31 1   
    10    5    6 ar  
    11    5   39 1   
    12    6   40 1   
    13    7    8 2   
    14    7   11 1   
    15    7   18 1   
    16    8    9 1   
    17    8   28 1   
    18    9   10 1   
    19    9   33 1   
    20    9   41 1   
    21   10   11 1   
    22   10   30 1   
    23   11   29 2   
    24   12   13 ar  
    25   12   17 ar  
    26   12   20 1   
    27   13   14 ar  
    28   13   19 1   
    29   14   15 ar  
    30   14   42 1   
    31   15   16 ar  
    32   15   43 1   
    33   16   17 ar  
    34   16   68 1   
    35   17   44 1   
    36   18   19 1   
    37   18   21 2   
    38   19   45 1   
    39   20   21 1   
    40   20   22 2   
    41   20   23 2   
    42   21   46 1   
    43   24   25 1   
    44   24   26 2   
    45   24   27 2   
    46   24   68 1   
    47   25   48 1   
    48   25   49 1   
    49   25   50 1   
    50   28   51 1   
    51   30   52 1   
    52   30   53 1   
    53   32   54 1   
    54   32   55 1   
    55   32   56 1   
    56   33   34 1   
    57   33   36 1   
    58   33   37 1   
    59   34   35 1   
    60   34   57 1   
    61   34   58 1   
    62   35   59 1   
    63   35   60 1   
    64   35   61 1   
    65   36   62 1   
    66   36   63 1   
    67   36   64 1   
    68   37   65 1   
    69   37   66 1   
    70   37   67 1   
    71   47   68 1   
@<TRIPOS>SUBSTRUCTURE
     1 H59         1 TEMP              0 ****  ****    0 ROOT
