@<TRIPOS>MOLECULE
H59
   68    68     1     0     0
SMALL
bcc


@<TRIPOS>ATOM
      1 C1          0.1720    0.7200    0.8330 c2        1 H59     -0.284000
      2 C2          1.1100   -0.3950    1.2270 c3        1 H59     -0.107000
      3 C3          2.5210   -0.0200    0.9000 c2        1 H59     -0.182000
      4 C4          2.8890    1.3510    1.1650 c2        1 H59      0.207000
      5 C5          1.8950    2.3100    1.6920 c3        1 H59     -0.170000
      6 C6          0.5790    1.9860    1.1290 c1        1 H59     -0.072000
      7 C7         -0.8580   -3.8350   -2.3040 c2        1 H59     -0.339000
      8 C8         -2.2100   -3.6200   -2.3790 c2        1 H59      0.151000
      9 C9         -2.6080   -2.4670   -1.4400 c3        1 H59      0.036000
     10 N10        -1.3490   -2.0760   -0.8150 ns        1 H59     -0.408000
     11 C11        -0.3100   -2.8450   -1.3050 c2        1 H59      0.352000
     12 C12         1.7110   -6.6610   -4.3890 c2        1 H59     -1.002000
     13 C13         2.0090   -6.0920   -3.0640 c2        1 H59      0.153000
     14 C14         3.2110   -6.4100   -2.4980 c2        1 H59     -0.230000
     15 C15         4.0780   -7.3360   -3.2060 c2        1 H59     -0.224000
     16 C16         4.9260   -6.8970   -4.1840 c2        1 H59      0.086000
     17 C17         2.6670   -7.3840   -4.9810 c1        1 H59      0.227000
     18 C18        -0.0590   -4.8020   -3.0280 c2        1 H59      0.355000
     19 N19         1.0870   -5.2580   -2.4190 n7        1 H59     -0.249000
     20 S20         0.1810   -6.4550   -5.1460 s6        1 H59      2.948000
     21 C21        -0.4510   -5.2680   -4.2620 c2        1 H59     -1.156000
     22 O22         0.3970   -6.0590   -6.4720 o         1 H59     -0.946000
     23 O23        -0.5410   -7.6450   -5.0020 o         1 H59     -0.946000
     24 S25         5.9580   -9.3210   -4.9400 s6        1 H59      2.815000
     25 C26         4.7320   -9.8250   -5.9800 c3        1 H59     -0.980000
     26 O27         7.2050   -9.5890   -5.5400 o         1 H59     -0.924500
     27 O28         5.7300   -9.8570   -3.6620 o         1 H59     -0.924500
     28 O29        -3.1860   -4.2540   -3.0470 oh        1 H59     -0.214000
     29 O30         0.8890   -2.7840   -0.9450 o         1 H59     -0.452000
     30 C31        -1.0020    0.3990    0.1730 c1        1 H59     -0.125000
     31 F32         4.0320    1.8290    0.6710 f         1 H59     -0.059000
     32 C33         3.3580   -0.9130    0.3250 c2        1 H59     -0.033000
     33 C34        -3.3890   -1.3750   -2.1880 c3        1 H59     -0.107000
     34 C35        -6.4540   -3.3260   -3.7820 c2        1 H59     -0.222000
     35 C36        -6.9500   -2.2200   -3.2430 c2        1 H59     -0.222000
     36 C37        -4.1910   -0.5520   -1.2020 c3        1 H59     -0.213500
     37 C38        -2.5010   -0.4840   -3.0260 c3        1 H59     -0.213500
     38 H2          1.0220   -0.5730    2.3330 hc        1 H59      0.125500
     39 H5          1.7810    2.1940    2.8130 hc        1 H59      0.174500
     40 H6          2.2060    3.3710    1.4890 hc        1 H59      0.174500
     41 H9         -3.2840   -2.8980   -0.6410 h1        1 H59      0.126000
     42 H14         3.5410   -6.0430   -1.5190 ha        1 H59      0.153000
     43 H15         4.0580   -8.3860   -2.8550 ha        1 H59      0.183000
     44 H17         4.9500   -5.8150   -4.4390 h4        1 H59      0.151000
     45 HN19        1.3820   -4.8110   -1.5700 hn        1 H59      0.277000
     46 H21        -1.2840   -4.7250   -4.7420 h4        1 H59      0.185000
     47 HN24        6.3790   -7.1420   -5.5320 hn        1 H59      0.254000
     48 H26         5.0410   -9.8180   -7.0550 h1        1 H59      0.176667
     49 H26A        3.7860   -9.2160   -5.9280 h1        1 H59      0.176667
     50 H26B        4.4180  -10.8760   -5.7510 h1        1 H59      0.176667
     51 HO29       -2.8110   -5.0380   -3.4940 ho        1 H59      0.258000
     52 H31        -1.2250   -1.0830   -0.3730 hn        1 H59      0.343000
     53 H31A       -1.7160    1.2040   -0.0490 ha        1 H59      0.075000
     54 H33         0.8310   -1.3510    0.7040 hc        1 H59      0.125500
     55 H33A        4.4070   -0.6760    0.0940 ha        1 H59      0.153000
     56 H33B        3.0060   -1.9270    0.0620 ha        1 H59      0.153000
     57 H35        -4.1090   -1.9150   -2.8720 hc        1 H59      0.106000
     58 H35A       -7.0300   -3.9610   -4.4680 ha        1 H59      0.111250
     59 H36        -5.4330   -3.6820   -3.5770 ha        1 H59      0.111250
     60 H36A       -7.9690   -1.8650   -3.4460 ha        1 H59      0.111250
     61 H36B       -6.3710   -1.5850   -2.5560 ha        1 H59      0.111250
     62 H37        -4.7590    0.2420   -1.7450 hc        1 H59      0.080833
     63 H37A       -3.5140   -0.0630   -0.4590 hc        1 H59      0.080833
     64 H37B       -4.9190   -1.1950   -0.6520 hc        1 H59      0.080833
     65 H38        -3.1280    0.1750   -3.6750 hc        1 H59      0.080833
     66 H38A       -1.8340   -1.0960   -3.6800 hc        1 H59      0.080833
     67 H38B       -1.8650    0.1670   -2.3760 hc        1 H59      0.080833
     68 N24         5.7980   -7.6750   -4.9190 n7        1 H59     -0.802000
@<TRIPOS>BOND
     1    1    2 1   
     2    1    6 1   
     3    1   30 1   
     4    2    3 1   
     5    2   38 1   
     6    2   54 1   
     7    3    4 1   
     8    3   32 1   
     9    4    5 1   
    10    4   31 1   
    11    5    6 1   
    12    5   39 1   
    13    5   40 1   
    14    7    8 1   
    15    7   11 1   
    16    7   18 1   
    17    8    9 1   
    18    8   28 1   
    19    9   10 1   
    20    9   33 1   
    21    9   41 1   
    22   10   11 1   
    23   10   52 1   
    24   11   29 1   
    25   12   13 1   
    26   12   17 1   
    27   12   20 1   
    28   13   14 1   
    29   13   19 1   
    30   14   15 1   
    31   14   42 1   
    32   15   16 1   
    33   15   43 1   
    34   16   44 1   
    35   16   68 1   
    36   18   19 1   
    37   18   21 1   
    38   19   45 1   
    39   20   21 1   
    40   20   22 1   
    41   20   23 1   
    42   21   46 1   
    43   24   25 1   
    44   24   26 1   
    45   24   27 1   
    46   24   68 1   
    47   25   48 1   
    48   25   49 1   
    49   25   50 1   
    50   28   51 1   
    51   30   53 1   
    52   32   55 1   
    53   32   56 1   
    54   33   36 1   
    55   33   37 1   
    56   33   57 1   
    57   34   35 1   
    58   34   58 1   
    59   34   59 1   
    60   35   60 1   
    61   35   61 1   
    62   36   62 1   
    63   36   63 1   
    64   36   64 1   
    65   37   65 1   
    66   37   66 1   
    67   37   67 1   
    68   47   68 1   
@<TRIPOS>SUBSTRUCTURE
     1 H59         1 TEMP              0 ****  ****    0 ROOT
