@<TRIPOS>MOLECULE
H5K
   35    37     1     0     0
SMALL
bcc


@<TRIPOS>ATOM
      1 N5         -1.0340    1.5720   -1.8200 n1        1 H5K     -0.359800
      2 C13        -0.4510    1.1590   -0.9030 cg        1 H5K      0.151800
      3 C11         0.2520    0.6580    0.2310 ca        1 H5K      0.291000
      4 N3          1.3870   -0.0800    0.0500 nb        1 H5K     -0.561000
      5 C10         1.9990   -0.5190    1.1450 ca        1 H5K      0.222900
      6 C12        -0.2390    0.9350    1.5340 ca        1 H5K      0.386900
      7 N4          0.3660    0.5010    2.6500 nb        1 H5K     -0.721000
      8 C9          1.5100   -0.2420    2.4920 ca        1 H5K      0.480900
      9 N2          2.2220   -0.7420    3.5610 n         1 H5K     -0.550400
     10 C8          1.9660   -0.6700    4.9710 c         1 H5K      0.777100
     11 O3          2.7330   -1.3970    5.6430 o         1 H5K     -0.611100
     12 N1          1.0270    0.1980    5.4920 n         1 H5K     -0.424100
     13 C7          0.5840    0.1370    6.8400 ca        1 H5K      0.003600
     14 C6          1.4000   -0.2490    7.8910 ca        1 H5K     -0.114000
     15 C14        -0.7630    0.5560    7.1070 ca        1 H5K     -0.183000
     16 C15        -1.2320    0.5820    8.3920 ca        1 H5K     -0.088000
     17 C16        -0.4150    0.1940    9.4880 ca        1 H5K     -0.055000
     18 C5          0.9150   -0.2290    9.2260 ca        1 H5K     -0.034000
     19 C4          1.7370   -0.6220   10.3160 ca        1 H5K     -0.168000
     20 C3          1.2500   -0.5890   11.6020 ca        1 H5K     -0.077000
     21 C17        -0.8900    0.2170   10.8240 ca        1 H5K     -0.111000
     22 C2         -0.0760   -0.1650   11.8680 ca        1 H5K     -0.117600
     23 C1         -0.5810   -0.1390   13.3070 c         1 H5K      0.908200
     24 O2         -1.7680    0.2420   13.5070 o         1 H5K     -0.825300
     25 O1          0.2190   -0.4990   14.2150 o         1 H5K     -0.825300
     26 H7          2.9150   -1.1150    0.9860 h4        1 H5K      0.040100
     27 H8         -1.1580    1.5310    1.6880 h4        1 H5K      0.045100
     28 H6          3.0110   -1.3170    3.3390 hn        1 H5K      0.345500
     29 H5          0.4080    0.6810    4.8770 hn        1 H5K      0.340500
     30 H4          2.4340   -0.5890    7.7190 ha        1 H5K      0.154000
     31 H9         -1.4160    0.8590    6.2760 ha        1 H5K      0.116000
     32 H10        -2.2640    0.9060    8.6000 ha        1 H5K      0.130000
     33 H3          2.7640   -0.9530   10.1080 ha        1 H5K      0.116000
     34 H2          1.8670   -0.8880   12.4660 ha        1 H5K      0.159000
     35 H11        -1.9200    0.5440   11.0390 ha        1 H5K      0.155000
@<TRIPOS>BOND
     1    1    2 3   
     2    2    3 1   
     3    3    4 ar  
     4    3    6 ar  
     5    4    5 ar  
     6    5    8 ar  
     7    5   26 1   
     8    6    7 ar  
     9    6   27 1   
    10    7    8 ar  
    11    8    9 1   
    12    9   10 1   
    13    9   28 1   
    14   10   11 2   
    15   10   12 1   
    16   12   13 1   
    17   12   29 1   
    18   13   14 ar  
    19   13   15 ar  
    20   14   18 ar  
    21   14   30 1   
    22   15   16 ar  
    23   15   31 1   
    24   16   17 ar  
    25   16   32 1   
    26   17   18 ar  
    27   17   21 ar  
    28   18   19 ar  
    29   19   20 ar  
    30   19   33 1   
    31   20   22 ar  
    32   20   34 1   
    33   21   22 ar  
    34   21   35 1   
    35   22   23 1   
    36   23   24 1   
    37   23   25 1   
@<TRIPOS>SUBSTRUCTURE
     1 H5K         1 TEMP              0 ****  ****    0 ROOT
