@<TRIPOS>MOLECULE
H5K
   35    37     1     0     0
SMALL
bcc


@<TRIPOS>ATOM
      1 N5         -9.2760    0.7920   -0.4270 n1        1 H5K     -0.365800
      2 C13        -8.1740    0.4650   -0.2570 cg        1 H5K      0.153800
      3 C11        -6.8170    0.0770   -0.0600 ca        1 H5K      0.292000
      4 N3         -6.5270   -0.9740    0.7610 nb        1 H5K     -0.565000
      5 C10        -5.2400   -1.2830    0.9080 ca        1 H5K      0.214900
      6 C12        -5.7840    0.7930   -0.7250 ca        1 H5K      0.375900
      7 N4         -4.4830    0.4940   -0.5930 nb        1 H5K     -0.661000
      8 C9         -4.1750   -0.5540    0.2400 ca        1 H5K      0.488900
      9 N2         -2.8660   -0.9620    0.4280 n         1 H5K     -0.579400
     10 C8         -1.7160   -0.1500    0.1130 c         1 H5K      0.779100
     11 O3         -1.7560    1.0740    0.3220 o         1 H5K     -0.548100
     12 N1         -0.6360   -0.8250   -0.4640 n         1 H5K     -0.435100
     13 C7          0.7040   -0.3730   -0.3380 ca        1 H5K      0.010600
     14 C6          1.7200   -1.3110   -0.1850 ca        1 H5K     -0.160000
     15 C14         1.0320    1.0140   -0.4210 ca        1 H5K     -0.152000
     16 C15         2.3430    1.4110   -0.3530 ca        1 H5K     -0.093000
     17 C16         3.3990    0.4740   -0.2060 ca        1 H5K     -0.050000
     18 C5          3.0760   -0.9070   -0.1240 ca        1 H5K     -0.029000
     19 C4          4.1280   -1.8530    0.0230 ca        1 H5K     -0.178000
     20 C3          5.4340   -1.4350    0.0870 ca        1 H5K     -0.072000
     21 C17         4.7600    0.8750   -0.1370 ca        1 H5K     -0.109000
     22 C2          5.7630   -0.0570    0.0070 ca        1 H5K     -0.119600
     23 C1          7.2270    0.3650    0.0830 c         1 H5K      0.908200
     24 O2          7.4890    1.5970    0.0060 o         1 H5K     -0.824300
     25 O1          8.0910   -0.5460    0.2190 o         1 H5K     -0.824300
     26 H7         -5.0190   -2.1330    1.5760 h4        1 H5K      0.034100
     27 H8         -6.0140    1.6420   -1.3950 h4        1 H5K      0.045100
     28 H6         -2.7280   -1.8000    0.9440 hn        1 H5K      0.327500
     29 H5         -0.7220   -1.8100   -0.5930 hn        1 H5K      0.303500
     30 H4          1.5030   -2.3890   -0.1200 ha        1 H5K      0.115000
     31 H9          0.2270    1.7570   -0.5330 ha        1 H5K      0.154000
     32 H10         2.5990    2.4800   -0.4160 ha        1 H5K      0.135000
     33 H3          3.8710   -2.9200    0.0840 ha        1 H5K      0.109000
     34 H2          6.2700   -2.1460    0.2010 ha        1 H5K      0.160000
     35 H11         5.0240    1.9440   -0.1990 ha        1 H5K      0.157000
@<TRIPOS>BOND
     1    1    2 3   
     2    2    3 1   
     3    3    4 ar  
     4    3    6 ar  
     5    4    5 ar  
     6    5    8 ar  
     7    5   26 1   
     8    6    7 ar  
     9    6   27 1   
    10    7    8 ar  
    11    8    9 1   
    12    9   10 1   
    13    9   28 1   
    14   10   11 2   
    15   10   12 1   
    16   12   13 1   
    17   12   29 1   
    18   13   14 ar  
    19   13   15 ar  
    20   14   18 ar  
    21   14   30 1   
    22   15   16 ar  
    23   15   31 1   
    24   16   17 ar  
    25   16   32 1   
    26   17   18 ar  
    27   17   21 ar  
    28   18   19 ar  
    29   19   20 ar  
    30   19   33 1   
    31   20   22 ar  
    32   20   34 1   
    33   21   22 ar  
    34   21   35 1   
    35   22   23 1   
    36   23   24 1   
    37   23   25 1   
@<TRIPOS>SUBSTRUCTURE
     1 H5K         1 TEMP              0 ****  ****    0 ROOT
