@<TRIPOS>MOLECULE
H5K
   35    37     1     0     0
SMALL
bcc


@<TRIPOS>ATOM
      1 N5          0.0490    0.7500   -2.9320 n1        1 H5K     -0.365800
      2 C13         0.2980    0.5040   -1.8230 cg        1 H5K      0.153800
      3 C11         0.5920    0.2150   -0.4600 ca        1 H5K      0.292000
      4 N3          1.5230   -0.7340   -0.1550 nb        1 H5K     -0.565000
      5 C10         1.7470   -0.9620    1.1380 ca        1 H5K      0.214900
      6 C12        -0.0920    0.9250    0.5660 ca        1 H5K      0.375900
      7 N4          0.1230    0.7130    1.8720 nb        1 H5K     -0.661000
      8 C9          1.0490   -0.2490    2.1950 ca        1 H5K      0.488900
      9 N2          1.3650   -0.5300    3.5120 n         1 H5K     -0.579400
     10 C8          0.5400   -0.1600    4.6360 c         1 H5K      0.779100
     11 O3         -0.6970   -0.2160    4.5310 o         1 H5K     -0.548100
     12 N1          1.2230    0.2910    5.7690 n         1 H5K     -0.435100
     13 C7          0.6930    0.1700    7.0800 ca        1 H5K      0.010600
     14 C6          1.5530   -0.1350    8.1310 ca        1 H5K     -0.160000
     15 C14        -0.6890    0.4100    7.3480 ca        1 H5K     -0.152000
     16 C15        -1.1570    0.3420    8.6360 ca        1 H5K     -0.093000
     17 C16        -0.2990    0.0410    9.7260 ca        1 H5K     -0.050000
     18 C5          1.0770   -0.1970    9.4630 ca        1 H5K     -0.029000
     19 C4          1.9440   -0.4990   10.5490 ca        1 H5K     -0.178000
     20 C3          1.4560   -0.5600   11.8310 ca        1 H5K     -0.072000
     21 C17        -0.7730   -0.0300   11.0620 ca        1 H5K     -0.109000
     22 C2          0.0820   -0.3250   12.1000 ca        1 H5K     -0.119600
     23 C1         -0.4190   -0.4040   13.5380 c         1 H5K      0.908200
     24 O2         -1.6440   -0.1870   13.7470 o         1 H5K     -0.824300
     25 O1          0.4250   -0.6830   14.4360 o         1 H5K     -0.824300
     26 H7          2.5010   -1.7340    1.3710 h4        1 H5K      0.034100
     27 H8         -0.8440    1.7000    0.3240 h4        1 H5K      0.045100
     28 H6          2.1300   -1.1450    3.6670 hn        1 H5K      0.327500
     29 H5          2.2200    0.3010    5.7340 hn        1 H5K      0.303500
     30 H4          2.6240   -0.3230    7.9600 ha        1 H5K      0.115000
     31 H9         -1.3710    0.6430    6.5160 ha        1 H5K      0.154000
     32 H10        -2.2230    0.5250    8.8450 ha        1 H5K      0.135000
     33 H3          3.0070   -0.6800   10.3390 ha        1 H5K      0.109000
     34 H2          2.1050   -0.7930   12.6920 ha        1 H5K      0.160000
     35 H11        -1.8390    0.1520   11.2800 ha        1 H5K      0.157000
@<TRIPOS>BOND
     1    1    2 3   
     2    2    3 1   
     3    3    4 ar  
     4    3    6 ar  
     5    4    5 ar  
     6    5    8 ar  
     7    5   26 1   
     8    6    7 ar  
     9    6   27 1   
    10    7    8 ar  
    11    8    9 1   
    12    9   10 1   
    13    9   28 1   
    14   10   11 2   
    15   10   12 1   
    16   12   13 1   
    17   12   29 1   
    18   13   14 ar  
    19   13   15 ar  
    20   14   18 ar  
    21   14   30 1   
    22   15   16 ar  
    23   15   31 1   
    24   16   17 ar  
    25   16   32 1   
    26   17   18 ar  
    27   17   21 ar  
    28   18   19 ar  
    29   19   20 ar  
    30   19   33 1   
    31   20   22 ar  
    32   20   34 1   
    33   21   22 ar  
    34   21   35 1   
    35   22   23 1   
    36   23   24 1   
    37   23   25 1   
@<TRIPOS>SUBSTRUCTURE
     1 H5K         1 TEMP              0 ****  ****    0 ROOT
