@<TRIPOS>MOLECULE
H5K
   35    37     1     0     0
SMALL
bcc


@<TRIPOS>ATOM
      1 N5          0.0020    0.8140   -2.8870 n1        1 H5K     -0.365800
      2 C13         0.2750    0.5950   -1.7790 cg        1 H5K      0.153800
      3 C11         0.5970    0.3380   -0.4150 ca        1 H5K      0.292000
      4 N3          1.6380   -0.4900   -0.1110 nb        1 H5K     -0.565000
      5 C10         1.8830   -0.6950    1.1830 ca        1 H5K      0.214900
      6 C12        -0.1750    0.9520    0.6110 ca        1 H5K      0.375900
      7 N4          0.0600    0.7620    1.9170 nb        1 H5K     -0.661000
      8 C9          1.0980   -0.0800    2.2390 ca        1 H5K      0.488900
      9 N2          1.4420   -0.3240    3.5570 ns        1 H5K     -0.579400
     10 C8          0.5710   -0.0660    4.6780 c         1 H5K      0.779100
     11 O3         -0.6470   -0.2800    4.5680 o         1 H5K     -0.548100
     12 N1          1.1870    0.4650    5.8150 ns        1 H5K     -0.435100
     13 C7          0.6710    0.2780    7.1240 ca        1 H5K      0.010600
     14 C6          1.5580    0.0860    8.1780 ca        1 H5K     -0.160000
     15 C14        -0.7320    0.3390    7.3850 ca        1 H5K     -0.152000
     16 C15        -1.1930    0.2110    8.6710 ca        1 H5K     -0.093000
     17 C16        -0.3080    0.0220    9.7650 ca        1 H5K     -0.050000
     18 C5          1.0880   -0.0370    9.5080 ca        1 H5K     -0.029000
     19 C4          1.9810   -0.2250   10.5980 ca        1 H5K     -0.178000
     20 C3          1.5000   -0.3480   11.8780 ca        1 H5K     -0.072000
     21 C17        -0.7760   -0.1090   11.1000 ca        1 H5K     -0.109000
     22 C2          0.1060   -0.2910   12.1410 ca        1 H5K     -0.119600
     23 C1         -0.3870   -0.4340   13.5770 c         1 H5K      0.908200
     24 O2         -1.6310   -0.3760   13.7800 o         1 H5K     -0.824300
     25 O1          0.4810   -0.6030   14.4790 o         1 H5K     -0.824300
     26 H7          2.7260   -1.3680    1.4150 h4        1 H5K      0.034100
     27 H8         -1.0150    1.6280    0.3690 h4        1 H5K      0.045100
     28 H6          2.2750   -0.8430    3.7130 hn        1 H5K      0.327500
     29 H5          2.1750    0.6030    5.7840 hn        1 H5K      0.303500
     30 H4          2.6460    0.0370    8.0120 ha        1 H5K      0.115000
     31 H9         -1.4350    0.4810    6.5500 ha        1 H5K      0.154000
     32 H10        -2.2740    0.2560    8.8760 ha        1 H5K      0.135000
     33 H3          3.0600   -0.2680   10.3930 ha        1 H5K      0.109000
     34 H2          2.1690   -0.4950   12.7430 ha        1 H5K      0.160000
     35 H11        -1.8570   -0.0650   11.3120 ha        1 H5K      0.157000
@<TRIPOS>BOND
     1    1    2 3   
     2    2    3 1   
     3    3    4 ar  
     4    3    6 ar  
     5    4    5 ar  
     6    5    8 ar  
     7    5   26 1   
     8    6    7 ar  
     9    6   27 1   
    10    7    8 ar  
    11    8    9 1   
    12    9   10 1   
    13    9   28 1   
    14   10   11 2   
    15   10   12 1   
    16   12   13 1   
    17   12   29 1   
    18   13   14 ar  
    19   13   15 ar  
    20   14   18 ar  
    21   14   30 1   
    22   15   16 ar  
    23   15   31 1   
    24   16   17 ar  
    25   16   32 1   
    26   17   18 ar  
    27   17   21 ar  
    28   18   19 ar  
    29   19   20 ar  
    30   19   33 1   
    31   20   22 ar  
    32   20   34 1   
    33   21   22 ar  
    34   21   35 1   
    35   22   23 1   
    36   23   24 1   
    37   23   25 1   
@<TRIPOS>SUBSTRUCTURE
     1 H5K         1 TEMP              0 ****  ****    0 ROOT
