@<TRIPOS>MOLECULE
H5K
   35    26     1     0     0
SMALL
bcc


@<TRIPOS>ATOM
      1 N5          6.2840    3.8410   -5.1480 n1        1 H5K     -0.110000
      2 C13         5.4060    3.1660   -4.8220 c1        1 H5K      0.025000
      3 C11         4.2360    2.2700   -4.3930 c1        1 H5K     -0.076500
      4 N3          3.0500    2.3540   -5.0410 n1        1 H5K     -0.050000
      5 C10         2.0080    1.6100   -4.6360 c1        1 H5K     -0.120000
      6 C12         4.3760    1.4130   -3.3060 c1        1 H5K     -0.059000
      7 N4          3.3260    0.6630   -2.8990 n1        1 H5K     -0.110000
      8 C9          2.1460    0.7480   -3.5450 c1        1 H5K      0.025000
      9 N2          1.0630   -0.1040   -3.1710 n2        1 H5K     -0.316000
     10 C8          0.4750    0.0190   -1.8800 c2        1 H5K      0.390000
     11 O3          0.8900    0.8390   -1.1060 o         1 H5K     -0.359000
     12 N1         -0.5660   -0.8500   -1.4960 n         1 H5K     -0.280000
     13 C7         -1.1330   -0.7560   -0.1790 c1        1 H5K     -0.004000
     14 C6         -0.5420   -1.2480    0.9840 c1        1 H5K     -0.116000
     15 C14        -2.4020   -0.1820   -0.1250 c1        1 H5K     -0.186000
     16 C15        -3.0790   -0.1000    1.0890 c1        1 H5K     -0.116000
     17 C16        -2.4810   -0.5980    2.2640 c1        1 H5K     -0.044000
     18 C5         -1.2270   -1.1650    2.2110 c1        1 H5K     -0.044000
     19 C4         -0.6190   -1.6650    3.3940 c1        1 H5K     -0.116000
     20 C3         -1.2930   -1.5810    4.6150 c1        1 H5K     -0.059000
     21 C17        -3.1700   -0.5100    3.5030 c1        1 H5K     -0.116000
     22 C2         -2.5730   -1.0020    4.6720 c1        1 H5K     -0.076500
     23 C1         -3.0740   -0.8310    6.1150 c1        1 H5K      0.357000
     24 O2         -2.6480    0.1310    6.8230 o         1 H5K     -0.558500
     25 O1         -3.8940   -1.6450    6.5930 o         1 H5K     -0.558500
     26 H7          1.1550    1.6500   -5.1250 ha        1 H5K      0.223000
     27 H8          5.2600    1.3510   -2.8220 ha        1 H5K      0.167500
     28 H6          0.8120   -0.7930   -3.7240 hn        1 H5K      0.238000
     29 H5         -0.8780   -1.5040   -2.0980 hn        1 H5K      0.214000
     30 H4          0.3520   -1.5630    0.9630 ha        1 H5K      0.139000
     31 H9         -2.8140    0.1820   -0.9450 ha        1 H5K      0.111000
     32 H10        -4.0030    0.2030    1.1080 ha        1 H5K      0.139000
     33 H3          0.2620   -2.1740    3.3710 ha        1 H5K      0.139000
     34 H2         -0.6190   -2.0590    5.1630 ha        1 H5K      0.167500
     35 H11        -4.0840   -0.1150    3.5920 ha        1 H5K      0.139000
@<TRIPOS>BOND
     1    1    2 1   
     2    3    6 1   
     3    4    5 1   
     4    5   26 1   
     5    6   27 1   
     6    7    8 1   
     7    9   10 1   
     8    9   28 1   
     9   10   11 1   
    10   10   12 1   
    11   12   13 1   
    12   12   29 1   
    13   13   15 1   
    14   14   18 1   
    15   14   30 1   
    16   15   31 1   
    17   16   17 1   
    18   16   32 1   
    19   17   21 1   
    20   18   19 1   
    21   19   33 1   
    22   20   22 1   
    23   20   34 1   
    24   21   35 1   
    25   23   24 1   
    26   23   25 1   
@<TRIPOS>SUBSTRUCTURE
     1 H5K         1 TEMP              0 ****  ****    0 ROOT
