@<TRIPOS>MOLECULE
H5M
   20    20     1     0     0
SMALL
bcc


@<TRIPOS>ATOM
      1 N           0.9420   -0.6430    0.6530 n3        1 H5M     -0.782200
      2 CA         -0.1230   -0.4330   -0.3250 c3        1 H5M      0.007500
      3 C           0.2990   -0.0000   -1.7540 c         1 H5M      0.931600
      4 O          -0.5470    0.7260   -2.3590 o         1 H5M     -0.839300
      5 OXT         1.3650   -0.4390   -2.2560 o         1 H5M     -0.839300
      6 CB         -1.0610    0.6200    0.3200 c3        1 H5M      0.161100
      7 CG         -0.9500    0.3510    1.8260 c3        1 H5M     -0.089400
      8 CD          0.3240   -0.5190    1.9850 c3        1 H5M      0.163500
      9 OB         -2.3960    0.4590   -0.1170 oh        1 H5M     -0.642800
     10 CD1         1.2750    0.0890    3.0070 c3        1 H5M     -0.079100
     11 H           1.3770   -1.5330    0.5270 hn        1 H5M      0.355800
     12 HA         -0.7280   -1.3790   -0.4770 h1        1 H5M      0.010700
     13 HB         -0.7120    1.6570    0.0620 h1        1 H5M      0.054700
     14 HG2        -1.8490   -0.1980    2.1960 hc        1 H5M      0.036700
     15 HG3        -0.8590    1.3050    2.3950 hc        1 H5M      0.036700
     16 HD          0.0070   -1.5310    2.3840 h1        1 H5M     -0.004300
     17 HOB        -2.3430    0.5260   -1.0870 ho        1 H5M      0.443000
     18 HD11        2.1740   -0.5580    3.1420 hc        1 H5M      0.025033
     19 HD12        1.6140    1.1010    2.6810 hc        1 H5M      0.025033
     20 HD13        0.7500    0.1830    3.9880 hc        1 H5M      0.025033
@<TRIPOS>BOND
     1    1    2 1   
     2    1    8 1   
     3    1   11 1   
     4    2    3 1   
     5    2    6 1   
     6    2   12 1   
     7    3    4 1   
     8    3    5 1   
     9    6    7 1   
    10    6    9 1   
    11    6   13 1   
    12    7    8 1   
    13    7   14 1   
    14    7   15 1   
    15    8   10 1   
    16    8   16 1   
    17    9   17 1   
    18   10   18 1   
    19   10   19 1   
    20   10   20 1   
@<TRIPOS>SUBSTRUCTURE
     1 H5M         1 TEMP              0 ****  ****    0 ROOT
