@<TRIPOS>MOLECULE
H5P
   28    29     1     0     0
SMALL
bcc


@<TRIPOS>ATOM
      1 C2          0.0440   -0.8890   -3.1950 c         1 H5P      0.713500
      2 O2          0.6580   -1.9490   -3.3130 o         1 H5P     -0.587500
      3 N3         -0.8140   -0.3620   -4.1810 n         1 H5P     -0.633500
      4 C4         -1.3690    0.8720   -3.7500 c         1 H5P      0.784500
      5 O4         -2.1930    1.5230   -4.4250 o         1 H5P     -0.671500
      6 N5         -0.7870    1.2600   -2.5170 n         1 H5P     -0.506900
      7 C1'         0.0280    0.1260   -1.9960 c3        1 H5P      0.178200
      8 C2'         1.4620    0.5550   -1.5460 c3        1 H5P      0.135100
      9 O2'         2.4370   -0.1400   -2.2810 oh        1 H5P     -0.606800
     10 C3'         1.4760    0.2890   -0.0230 c3        1 H5P      0.130100
     11 O3'         2.5900   -0.5180    0.2800 oh        1 H5P     -0.675800
     12 C4'         0.1630   -0.4450    0.2980 c3        1 H5P      0.063100
     13 O4'        -0.6410   -0.4870   -0.9130 os        1 H5P     -0.433600
     14 C5'        -0.6620    0.2200    1.4290 c3        1 H5P      0.233400
     15 O5'        -0.3830   -0.3660    2.6310 os        1 H5P     -0.555200
     16 P           0.7050    0.5660    3.6320 p5        1 H5P      1.333900
     17 O1P        -0.0020    1.8880    3.6920 o         1 H5P     -0.930500
     18 O2P         0.8140   -0.2430    4.8860 o         1 H5P     -0.930500
     19 O3P         1.8990    0.5480    2.6950 o         1 H5P     -0.930500
     20 HN3        -1.0110   -0.7650   -5.0580 hn        1 H5P      0.329500
     21 HN5        -1.3920    1.6960   -1.8560 hn        1 H5P      0.325500
     22 H2'         1.6440    1.6400   -1.7720 h1        1 H5P      0.081700
     23 HO2'        2.5870   -0.9900   -1.8400 ho        1 H5P      0.436000
     24 H3'         1.5440    1.2590    0.5470 h1        1 H5P      0.124700
     25 HO3'        2.7130   -0.4250    1.2560 ho        1 H5P      0.511000
     26 H4'         0.3660   -1.5180    0.5610 h1        1 H5P      0.081700
     27 H5'1       -0.4500    1.3270    1.4550 h1        1 H5P      0.000200
     28 H5'2       -1.7510    0.0620    1.1710 h1        1 H5P      0.000200
@<TRIPOS>BOND
     1    1    2 2   
     2    1    3 1   
     3    1    7 1   
     4    3    4 1   
     5    3   20 1   
     6    4    5 2   
     7    4    6 1   
     8    6    7 1   
     9    6   21 1   
    10    7    8 1   
    11    7   13 1   
    12    8    9 1   
    13    8   10 1   
    14    8   22 1   
    15    9   23 1   
    16   10   11 1   
    17   10   12 1   
    18   10   24 1   
    19   11   25 1   
    20   12   13 1   
    21   12   14 1   
    22   12   26 1   
    23   14   15 1   
    24   14   27 1   
    25   14   28 1   
    26   15   16 1   
    27   16   17 1   
    28   16   18 1   
    29   16   19 1   
@<TRIPOS>SUBSTRUCTURE
     1 H5P         1 TEMP              0 ****  ****    0 ROOT
