@<TRIPOS>MOLECULE
H5P
   28    28     1     0     0
SMALL
bcc


@<TRIPOS>ATOM
      1 C2          1.7220   -0.5280   -1.8630 c1        1 H5P      0.321000
      2 O2          1.0020   -0.4590   -2.8480 o         1 H5P     -0.312000
      3 N3          3.0950   -0.5600   -1.8640 n2        1 H5P     -0.413000
      4 C4          3.5280   -0.5700   -0.5240 c2        1 H5P      0.375000
      5 O4          4.7150   -0.7320   -0.1370 o         1 H5P     -0.396000
      6 N5          2.3540   -0.5870    0.3180 n         1 H5P     -0.316000
      7 C1'         1.2760   -0.5330   -0.4750 c3        1 H5P      0.119000
      8 C2'         0.3480   -1.7330   -0.2180 c3        1 H5P      0.024000
      9 O2'        -0.0570   -2.3500   -1.4920 oh        1 H5P     -0.334000
     10 C3'        -0.7040   -1.2210    0.4050 c3        1 H5P      0.019000
     11 O3'        -1.8850   -1.9170    0.0150 oh        1 H5P     -0.403000
     12 C4'        -0.7970    0.3300   -0.0680 c3        1 H5P     -0.048000
     13 O4'         0.4220    0.7550   -0.1670 os        1 H5P     -0.290000
     14 C5'        -1.5380    1.1280    0.9540 c3        1 H5P      0.083000
     15 O5'        -1.6410    2.4710    0.5190 os        1 H5P     -0.717000
     16 P          -2.6070    3.4470    1.3040 p5        1 H5P      1.567500
     17 O1P        -2.2550    3.4200    2.8030 o         1 H5P     -0.930500
     18 O2P        -4.0270    3.0050    1.1150 o         1 H5P     -0.930500
     19 O3P        -2.4410    4.8480    0.7770 o         1 H5P     -0.930500
     20 HN3         3.6340   -0.5760   -2.6050 hn        1 H5P      0.243000
     21 HN5         2.3480   -0.5980    1.1880 hn        1 H5P      0.239000
     22 H2'         0.8220   -2.4340    0.3880 h1        1 H5P      0.121000
     23 HO2'        0.1920   -3.2230   -1.4990 ho        1 H5P      0.235000
     24 H3'        -0.5820   -1.2730    1.3890 h1        1 H5P      0.164000
     25 HO3'       -2.1850   -2.3590    0.6740 ho        1 H5P      0.310000
     26 H4'        -1.2480    0.3930   -0.9380 h1        1 H5P      0.121000
     27 H5'1       -2.4200    0.7580    1.0690 h1        1 H5P      0.039500
     28 H5'2       -1.0720    1.0960    1.7800 h1        1 H5P      0.039500
@<TRIPOS>BOND
     1    1    2 1   
     2    1    7 1   
     3    3    4 1   
     4    3   20 1   
     5    4    5 1   
     6    4    6 1   
     7    6    7 1   
     8    6   21 1   
     9    7    8 1   
    10    7   13 1   
    11    8    9 1   
    12    8   10 1   
    13    8   22 1   
    14    9   23 1   
    15   10   11 1   
    16   10   12 1   
    17   10   24 1   
    18   11   25 1   
    19   12   13 1   
    20   12   14 1   
    21   12   26 1   
    22   14   15 1   
    23   14   27 1   
    24   14   28 1   
    25   15   16 1   
    26   16   17 1   
    27   16   18 1   
    28   16   19 1   
@<TRIPOS>SUBSTRUCTURE
     1 H5P         1 TEMP              0 ****  ****    0 ROOT
