@<TRIPOS>MOLECULE
H5P
   28    29     1     0     0
SMALL
bcc


@<TRIPOS>ATOM
      1 C2          0.3750   -0.5830   -0.0650 c         1 H5P      0.713500
      2 O2         -0.0450   -0.8340   -1.1940 o         1 H5P     -0.587500
      3 N3          1.7330   -0.6560    0.3040 ns        1 H5P     -0.633500
      4 C4          1.8960   -0.3140    1.6730 c         1 H5P      0.784500
      5 O4          3.0090   -0.2620    2.2360 o         1 H5P     -0.671500
      6 N5          0.6270   -0.1330    2.2800 ns        1 H5P     -0.506900
      7 C1'        -0.4160   -0.1380    1.2160 c3        1 H5P      0.178200
      8 C2'        -1.6210   -1.0780    1.5420 c3        1 H5P      0.135100
      9 O2'        -1.7570   -2.0660    0.5520 oh        1 H5P     -0.606800
     10 C3'        -2.8250   -0.1180    1.6790 c3        1 H5P      0.130100
     11 O3'        -3.8550   -0.5670    0.8300 oh        1 H5P     -0.675800
     12 C4'        -2.3220    1.2690    1.2430 c3        1 H5P      0.063100
     13 O4'        -0.8900    1.1770    1.0030 os        1 H5P     -0.433600
     14 C5'        -2.5870    2.3850    2.2850 c3        1 H5P      0.233400
     15 O5'        -3.7500    3.0410    1.9960 os        1 H5P     -0.555200
     16 P          -5.1000    2.5540    2.9920 p5        1 H5P      1.333900
     17 O1P        -4.5480    2.7690    4.3700 o         1 H5P     -0.930500
     18 O2P        -6.2190    3.4300    2.5260 o         1 H5P     -0.930500
     19 O3P        -5.1430    1.0970    2.5670 o         1 H5P     -0.930500
     20 HN3         2.4830   -0.9160   -0.2790 hn        1 H5P      0.329500
     21 HN5         0.5550    0.6000    2.9520 hn        1 H5P      0.325500
     22 H2'        -1.4420   -1.6430    2.4960 h1        1 H5P      0.081700
     23 HO2'       -2.2860   -1.6900   -0.1680 ho        1 H5P      0.436000
     24 H3'        -3.1950   -0.0940    2.7430 h1        1 H5P      0.124700
     25 HO3'       -4.6690   -0.1100    1.1520 ho        1 H5P      0.511000
     26 H4'        -2.7720    1.5600    0.2560 h1        1 H5P      0.081700
     27 H5'1       -2.6160    1.9390    3.3200 h1        1 H5P      0.000200
     28 H5'2       -1.7160    3.1030    2.2200 h1        1 H5P      0.000200
@<TRIPOS>BOND
     1    1    2 2   
     2    1    3 1   
     3    1    7 1   
     4    3    4 1   
     5    3   20 1   
     6    4    5 2   
     7    4    6 1   
     8    6    7 1   
     9    6   21 1   
    10    7    8 1   
    11    7   13 1   
    12    8    9 1   
    13    8   10 1   
    14    8   22 1   
    15    9   23 1   
    16   10   11 1   
    17   10   12 1   
    18   10   24 1   
    19   11   25 1   
    20   12   13 1   
    21   12   14 1   
    22   12   26 1   
    23   14   15 1   
    24   14   27 1   
    25   14   28 1   
    26   15   16 1   
    27   16   17 1   
    28   16   18 1   
    29   16   19 1   
@<TRIPOS>SUBSTRUCTURE
     1 H5P         1 TEMP              0 ****  ****    0 ROOT
