@<TRIPOS>MOLECULE
H5P
   28    29     1     0     0
SMALL
bcc


@<TRIPOS>ATOM
      1 C2          0.4220   -0.6570    0.0490 c         1 H5P      0.713500
      2 O2          0.0180   -1.0330   -1.0510 o         1 H5P     -0.587500
      3 N3          1.7810   -0.6420    0.4250 n         1 H5P     -0.633500
      4 C4          1.9230   -0.1610    1.7540 c         1 H5P      0.784500
      5 O4          3.0300   -0.0120    2.3110 o         1 H5P     -0.671500
      6 N5          0.6460    0.0290    2.3390 n         1 H5P     -0.506900
      7 C1'        -0.3920   -0.1200    1.2800 c3        1 H5P      0.178200
      8 C2'        -1.5620   -1.0700    1.6950 c3        1 H5P      0.135100
      9 O2'        -1.6550   -2.1540    0.8050 oh        1 H5P     -0.606800
     10 C3'        -2.8020   -0.1480    1.7360 c3        1 H5P      0.130100
     11 O3'        -3.8100   -0.7170    0.9340 oh        1 H5P     -0.675800
     12 C4'        -2.3490    1.2080    1.1680 c3        1 H5P      0.063100
     13 O4'        -0.9140    1.1490    0.9390 os        1 H5P     -0.433600
     14 C5'        -2.6620    2.4090    2.0960 c3        1 H5P      0.233400
     15 O5'        -3.8480    2.9890    1.7440 os        1 H5P     -0.555200
     16 P          -5.1830    2.5480    2.7830 p5        1 H5P      1.333900
     17 O1P        -4.6440    2.9180    4.1340 o         1 H5P     -0.930500
     18 O2P        -6.3320    3.3320    2.2340 o         1 H5P     -0.930500
     19 O3P        -5.1680    1.0570    2.5010 o         1 H5P     -0.930500
     20 HN3         2.5420   -0.9280   -0.1290 hn        1 H5P      0.329500
     21 HN5         0.5430    0.8210    2.9360 hn        1 H5P      0.325500
     22 H2'        -1.3650   -1.5320    2.7000 h1        1 H5P      0.081700
     23 HO2'       -2.1940   -1.8700    0.0520 ho        1 H5P      0.436000
     24 H3'        -3.1770   -0.0350    2.7930 h1        1 H5P      0.124700
     25 HO3'       -4.6420   -0.2620    1.2100 ho        1 H5P      0.511000
     26 H4'        -2.8060    1.3840    0.1570 h1        1 H5P      0.081700
     27 H5'1       -1.8200    3.1510    1.9610 h1        1 H5P      0.000200
     28 H5'2       -2.6780    2.0660    3.1690 h1        1 H5P      0.000200
@<TRIPOS>BOND
     1    1    2 2   
     2    1    3 1   
     3    1    7 1   
     4    3    4 1   
     5    3   20 1   
     6    4    5 2   
     7    4    6 1   
     8    6    7 1   
     9    6   21 1   
    10    7    8 1   
    11    7   13 1   
    12    8    9 1   
    13    8   10 1   
    14    8   22 1   
    15    9   23 1   
    16   10   11 1   
    17   10   12 1   
    18   10   24 1   
    19   11   25 1   
    20   12   13 1   
    21   12   14 1   
    22   12   26 1   
    23   14   15 1   
    24   14   27 1   
    25   14   28 1   
    26   15   16 1   
    27   16   17 1   
    28   16   18 1   
    29   16   19 1   
@<TRIPOS>SUBSTRUCTURE
     1 H5P         1 TEMP              0 ****  ****    0 ROOT
