@<TRIPOS>MOLECULE
H5P
   28    29     1     0     0
SMALL
bcc


@<TRIPOS>ATOM
      1 C2          0.4110   -0.6110    0.0010 c         1 H5P      0.713500
      2 O2          0.0230   -0.8600   -1.1390 o         1 H5P     -0.587500
      3 N3          1.7570   -0.6990    0.4110 n         1 H5P     -0.633500
      4 C4          1.8820   -0.3550    1.7840 c         1 H5P      0.784500
      5 O4          2.9780   -0.3150    2.3810 o         1 H5P     -0.671500
      6 N5          0.5980   -0.1580    2.3520 n         1 H5P     -0.506900
      7 C1'        -0.4130   -0.1540    1.2570 c3        1 H5P      0.178200
      8 C2'        -1.6380   -1.0800    1.5490 c3        1 H5P      0.135100
      9 O2'        -1.7550   -2.0680    0.5560 oh        1 H5P     -0.606800
     10 C3'        -2.8350   -0.1060    1.6470 c3        1 H5P      0.130100
     11 O3'        -3.8430   -0.5450    0.7680 oh        1 H5P     -0.675800
     12 C4'        -2.3020    1.2740    1.2240 c3        1 H5P      0.063100
     13 O4'        -0.8650    1.1650    1.0280 os        1 H5P     -0.433600
     14 C5'        -2.5860    2.3960    2.2560 c3        1 H5P      0.233400
     15 O5'        -3.7320    3.0640    1.9310 os        1 H5P     -0.555200
     16 P          -5.1170    2.5940    2.8870 p5        1 H5P      1.333900
     17 O1P        -4.6030    2.8060    4.2810 o         1 H5P     -0.930500
     18 O2P        -6.2110    3.4820    2.3860 o         1 H5P     -0.930500
     19 O3P        -5.1640    1.1370    2.4640 o         1 H5P     -0.930500
     20 HN3         2.5210   -0.9680   -0.1480 hn        1 H5P      0.329500
     21 HN5         0.5140    0.5770    3.0200 hn        1 H5P      0.325500
     22 H2'        -1.4940   -1.6450    2.5090 h1        1 H5P      0.081700
     23 HO2'       -2.2580   -1.6870   -0.1790 ho        1 H5P      0.436000
     24 H3'        -3.2360   -0.0750    2.7000 h1        1 H5P      0.124700
     25 HO3'       -4.6620   -0.0770    1.0650 ho        1 H5P      0.511000
     26 H4'        -2.7200    1.5690    0.2240 h1        1 H5P      0.081700
     27 H5'1       -1.7060    3.1040    2.2150 h1        1 H5P      0.000200
     28 H5'2       -2.6510    1.9520    3.2900 h1        1 H5P      0.000200
@<TRIPOS>BOND
     1    1    2 2   
     2    1    3 1   
     3    1    7 1   
     4    3    4 1   
     5    3   20 1   
     6    4    5 2   
     7    4    6 1   
     8    6    7 1   
     9    6   21 1   
    10    7    8 1   
    11    7   13 1   
    12    8    9 1   
    13    8   10 1   
    14    8   22 1   
    15    9   23 1   
    16   10   11 1   
    17   10   12 1   
    18   10   24 1   
    19   11   25 1   
    20   12   13 1   
    21   12   14 1   
    22   12   26 1   
    23   14   15 1   
    24   14   27 1   
    25   14   28 1   
    26   15   16 1   
    27   16   17 1   
    28   16   18 1   
    29   16   19 1   
@<TRIPOS>SUBSTRUCTURE
     1 H5P         1 TEMP              0 ****  ****    0 ROOT
