@<TRIPOS>MOLECULE
H5S
   69    65     1     0     0
SMALL
bcc


@<TRIPOS>ATOM
      1 C1         -2.8650   -0.1540   -1.6790 c3        1 H5S      0.022000
      2 C3         -1.8320   -0.1500    0.6400 c1        1 H5S      0.357000
      3 C4         -0.8920   -0.1980   -0.4300 c1        1 H5S     -0.321000
      4 C5         -1.4450   -0.1620   -1.6670 c2        1 H5S      0.207000
      5 C6         -4.3730    0.6840    0.5120 c3        1 H5S     -0.003000
      6 C7         -4.6840    0.0650    1.8880 c2        1 H5S     -0.143000
      7 C8         -5.3480    0.8160    2.8460 c2        1 H5S     -0.102000
      8 C9         -5.7980    0.2120    4.0170 c1        1 H5S     -0.103000
      9 C10        -5.5840   -1.1340    4.2240 c1        1 H5S      0.098000
     10 O13        -0.7100   -0.6740   -2.8110 oh        1 H5S     -0.200000
     11 N2         -3.1920    0.0360   -0.0580 n3        1 H5S     -0.296000
     12 C11        -4.9190   -1.8870    3.2650 c1        1 H5S     -0.160000
     13 C12        -4.4700   -1.2860    2.0970 c1        1 H5S     -0.093000
     14 O14        -1.5820    0.1120    1.8020 o         1 H5S     -0.336000
     15 C15         0.5130   -0.8600   -0.2130 c2        1 H5S      0.283000
     16 S16         2.2500   -2.2940   -0.9720 ss        1 H5S      2.745000
     17 N17         0.7900   -2.0260   -0.7660 n1        1 H5S     -0.790000
     18 C18         2.9550   -0.7590   -0.3110 c1        1 H5S     -0.765000
     19 C19         1.7750    0.0460    0.1310 c2        1 H5S     -0.086000
     20 C20         1.9640    1.2190    0.8030 c1        1 H5S     -0.055000
     21 C21         3.2760    1.6710    1.0810 c1        1 H5S     -0.098000
     22 O22         2.5790   -2.4940   -2.3660 o         1 H5S     -0.911000
     23 O23         2.6760   -3.4280   -0.1960 o         1 H5S     -0.911000
     24 C24        -3.4690    0.8770   -2.5580 c3        1 H5S     -0.037000
     25 C25        -2.8960    0.7300   -4.0080 c3        1 H5S     -0.212333
     26 C26        -5.0180    0.6960   -2.5950 c3        1 H5S     -0.212333
     27 C27        -3.1350    2.2760   -2.0180 c3        1 H5S     -0.212333
     28 F28        -6.0620   -1.9560    5.1730 f         1 H5S     -0.101000
     29 C29        -6.4870    1.0660    5.1150 c3        1 H5S     -0.180000
     30 C30         4.2370   -0.3130   -0.0370 c1        1 H5S      0.059000
     31 C31         4.4240    0.8880    0.6510 c1        1 H5S     -0.051000
     32 C32         5.8330    1.3750    0.9550 c3        1 H5S     -0.144000
     33 C33         7.0160    0.5940    0.3960 c3        1 H5S     -0.017000
     34 N34         6.7670   -0.4710   -0.5220 n3        1 H5S     -0.836000
     35 C35         5.4600   -1.1000   -0.5620 c3        1 H5S     -0.008000
     36 S36         7.9340   -0.9160   -1.6080 s4        1 H5S      2.036800
     37 O37         7.3640   -1.6090   -2.7390 o         1 H5S     -0.536900
     38 O38         8.5200    0.2410   -2.2550 o         1 H5S     -0.536900
     39 C39         9.1810   -1.9090   -0.7980 c2        1 H5S     -0.943000
     40 H1         -3.2420   -0.9820   -2.0440 h1        1 H5S      0.134000
     41 H6         -4.2030    1.6430    0.6170 h1        1 H5S      0.119000
     42 H6A        -5.1330    0.5530   -0.0830 h1        1 H5S      0.119000
     43 H8         -5.4970    1.7520    2.7030 ha        1 H5S      0.135000
     44 HO13       -1.0320   -1.4840   -3.0370 ho        1 H5S      0.285000
     45 H11        -4.7680   -2.8330    3.4110 ha        1 H5S      0.155000
     46 H12        -4.0080   -1.8100    1.4310 ha        1 H5S      0.157000
     47 H20         1.1900    1.7040    1.1730 ha        1 H5S      0.174000
     48 H21         3.4110    2.4930    1.6130 ha        1 H5S      0.145000
     49 H25        -2.8110   -0.2240   -4.2330 hc        1 H5S      0.083778
     50 H25A       -2.0110    1.1580   -4.0570 hc        1 H5S      0.083778
     51 H25B       -3.5050    1.1630   -4.6460 hc        1 H5S      0.083778
     52 H26        -5.2470   -0.1900   -2.2880 hc        1 H5S      0.083778
     53 H26A       -5.4380    1.3600   -2.0130 hc        1 H5S      0.083778
     54 H26B       -5.3440    0.8200   -3.5330 hc        1 H5S      0.083778
     55 H27        -3.4150    2.3410   -1.0670 hc        1 H5S      0.083778
     56 H27A       -2.1900    2.4270   -2.0840 hc        1 H5S      0.083778
     57 H27B       -3.6130    2.9520   -2.5460 hc        1 H5S      0.083778
     58 H29        -5.8670    1.1850    5.8800 hc        1 H5S      0.091333
     59 H29A       -6.7230    1.9400    4.7470 hc        1 H5S      0.091333
     60 H29B       -7.3050    0.6080    5.4220 hc        1 H5S      0.091333
     61 H32         5.9310    1.3990    1.9350 hc        1 H5S      0.108500
     62 H32A        5.9030    2.2960    0.6250 hc        1 H5S      0.108500
     63 H33         7.6100    1.2370   -0.0510 h1        1 H5S      0.105000
     64 H33A        7.5050    0.2180    1.1570 h1        1 H5S      0.105000
     65 H35         5.5190   -1.9550   -0.0320 h1        1 H5S      0.122500
     66 H35A        5.2790   -1.3380   -1.4890 h1        1 H5S      0.122500
     67 H39         8.8990   -2.8410   -0.7910 ha        1 H5S      0.156667
     68 H39A        9.3030   -1.5900    0.1450 ha        1 H5S      0.156667
     69 H39B       10.0510   -1.8260   -1.2940 ha        1 H5S      0.156667
@<TRIPOS>BOND
     1    1    4 1   
     2    1   11 1   
     3    1   24 1   
     4    1   40 1   
     5    2   11 1   
     6    2   14 1   
     7    3    4 1   
     8    3   15 1   
     9    4   10 1   
    10    5    6 1   
    11    5   11 1   
    12    5   41 1   
    13    5   42 1   
    14    6    7 1   
    15    6   13 1   
    16    7    8 1   
    17    7   43 1   
    18    8   29 1   
    19    9   12 1   
    20    9   28 1   
    21   10   44 1   
    22   12   45 1   
    23   13   46 1   
    24   15   17 1   
    25   15   19 1   
    26   16   22 1   
    27   16   23 1   
    28   18   19 1   
    29   18   30 1   
    30   19   20 1   
    31   20   47 1   
    32   21   31 1   
    33   21   48 1   
    34   24   25 1   
    35   24   26 1   
    36   24   27 1   
    37   25   49 1   
    38   25   50 1   
    39   25   51 1   
    40   26   52 1   
    41   26   53 1   
    42   26   54 1   
    43   27   55 1   
    44   27   56 1   
    45   27   57 1   
    46   29   58 1   
    47   29   59 1   
    48   29   60 1   
    49   30   35 1   
    50   31   32 1   
    51   32   33 1   
    52   32   61 1   
    53   32   62 1   
    54   33   34 1   
    55   33   63 1   
    56   33   64 1   
    57   34   35 1   
    58   34   36 1   
    59   35   65 1   
    60   35   66 1   
    61   36   37 1   
    62   36   38 1   
    63   39   67 1   
    64   39   68 1   
    65   39   69 1   
@<TRIPOS>SUBSTRUCTURE
     1 H5S         1 TEMP              0 ****  ****    0 ROOT
