@<TRIPOS>MOLECULE
H5S
   69    73     1     0     0
SMALL
bcc


@<TRIPOS>ATOM
      1 C1          3.8470   -1.7300   -0.1490 c3        1 H5S      0.104900
      2 C3          2.2960   -0.3720    1.0350 c         1 H5S      0.722700
      3 C4          1.5280   -1.0870   -0.0230 ce        1 H5S     -0.427800
      4 C5          2.4260   -1.8830   -0.7160 c2        1 H5S      0.247900
      5 C7          5.0360    1.1420    0.2120 ca        1 H5S     -0.147300
      6 C8          4.2820    2.3100    0.0780 ca        1 H5S     -0.093000
      7 C9          4.5940    3.2630   -0.8930 ca        1 H5S     -0.106300
      8 C10         5.6940    3.0210   -1.7480 ca        1 H5S      0.131900
      9 O13         2.2540   -2.6810   -1.7700 oh        1 H5S     -0.446100
     10 N2          3.6580   -0.8000    0.9750 n         1 H5S     -0.440800
     11 C11         6.4540    1.8440   -1.6180 ca        1 H5S     -0.164000
     12 C12         6.1200    0.9130   -0.6410 ca        1 H5S     -0.104000
     13 O14         1.8920    0.4300    1.8850 o         1 H5S     -0.608500
     14 C15         0.1120   -1.0560   -0.2720 ce        1 H5S      0.745200
     15 S16        -2.1290   -1.8680   -1.0800 sy        1 H5S      1.472700
     16 N17        -0.4870   -2.0220   -0.9200 nf        1 H5S     -0.814300
     17 C18        -2.1640   -0.3360   -0.2750 ca        1 H5S     -0.321500
     18 C19        -0.8430    0.0380    0.1140 ca        1 H5S     -0.166900
     19 C20        -0.6010    1.2670    0.6900 ca        1 H5S     -0.057000
     20 C21        -1.6850    2.1330    0.9190 ca        1 H5S     -0.099000
     21 O22        -2.5360   -1.7020   -2.4180 o         1 H5S     -0.632300
     22 O23        -2.8560   -2.8270   -0.3570 o         1 H5S     -0.632300
     23 C24         4.4610   -3.1040    0.2340 c3        1 H5S     -0.036000
     24 C25         4.8720   -3.8220   -1.0470 c3        1 H5S     -0.095100
     25 C26         5.7070   -2.9170    1.0880 c3        1 H5S     -0.095100
     26 C27         3.4570   -3.9520    0.9980 c3        1 H5S     -0.095100
     27 F28         6.0230    3.9220   -2.7040 f         1 H5S     -0.135900
     28 C29         3.8030    4.5070   -1.0230 c3        1 H5S     -0.054800
     29 C30        -3.2250    0.5150   -0.0280 ca        1 H5S      0.052700
     30 C31        -2.9820    1.7740    0.5730 ca        1 H5S     -0.058300
     31 C32        -4.1110    2.7070    0.8250 c3        1 H5S     -0.058100
     32 C33        -5.2980    2.4080   -0.0940 c3        1 H5S      0.219800
     33 N34        -5.6670    1.0180   -0.1110 n3        1 H5S     -0.816500
     34 C35        -4.6120    0.0920   -0.4280 c3        1 H5S      0.235100
     35 S36        -7.1700    0.5000    0.2640 s6        1 H5S      1.464900
     36 O37        -7.1140   -0.6210    1.1110 o         1 H5S     -0.648800
     37 O38        -7.9500    1.5900    0.7070 o         1 H5S     -0.648800
     38 C39        -7.7790   -0.0120   -1.2400 c3        1 H5S     -0.364300
     39 H1          4.5090   -1.2600   -0.9380 h1        1 H5S      0.089700
     40 H6          5.6240   -0.4280    1.5630 h1        1 H5S      0.081200
     41 H6A         4.3500    0.7140    2.2090 h1        1 H5S      0.081200
     42 H8          3.4260    2.4810    0.7540 ha        1 H5S      0.150000
     43 HO13        1.3020   -2.7580   -1.9900 ho        1 H5S      0.486000
     44 H11         7.3070    1.6740   -2.2910 ha        1 H5S      0.152000
     45 H12         6.7200   -0.0040   -0.5350 ha        1 H5S      0.137000
     46 H20         0.4120    1.5900    0.9760 ha        1 H5S      0.174000
     47 H21        -1.4940    3.1140    1.3820 ha        1 H5S      0.144000
     48 H25         5.6190   -3.2160   -1.6130 hc        1 H5S      0.045256
     49 H25A        5.3340   -4.8060   -0.7910 hc        1 H5S      0.045256
     50 H25B        3.9900   -4.0110   -1.7040 hc        1 H5S      0.045256
     51 H26         5.4440   -2.5370    2.1040 hc        1 H5S      0.045256
     52 H26A        6.2260   -3.9000    1.2110 hc        1 H5S      0.045256
     53 H26B        6.4150   -2.2060    0.5970 hc        1 H5S      0.045256
     54 H27         2.5650   -4.1690    0.3620 hc        1 H5S      0.045256
     55 H27A        3.9270   -4.9230    1.2890 hc        1 H5S      0.045256
     56 H27B        3.1230   -3.4290    1.9250 hc        1 H5S      0.045256
     57 H29         4.3730    5.3680   -0.5900 hc        1 H5S      0.052700
     58 H29A        3.6050    4.7320   -2.1010 hc        1 H5S      0.052700
     59 H29B        2.8260    4.4230   -0.4880 hc        1 H5S      0.052700
     60 H32        -4.4240    2.6180    1.9010 hc        1 H5S      0.069200
     61 H32A       -3.7890    3.7680    0.6530 hc        1 H5S      0.069200
     62 H33        -6.1840    3.0220    0.2460 h1        1 H5S      0.065200
     63 H33A       -5.0290    2.7320   -1.1420 h1        1 H5S      0.065200
     64 H35        -4.5970   -0.0860   -1.5490 h1        1 H5S      0.083700
     65 H35A       -4.8340   -0.8970    0.0840 h1        1 H5S      0.083700
     66 H39        -7.1230   -0.7470   -1.7680 h1        1 H5S      0.117367
     67 H39A       -8.7660   -0.5230   -1.1020 h1        1 H5S      0.117367
     68 H39B       -7.9590    0.8290   -1.9530 h1        1 H5S      0.117367
     69 C6          4.6960    0.1520    1.2910 c3        1 H5S      0.122300
@<TRIPOS>BOND
     1    1    4 1   
     2    1   10 1   
     3    1   23 1   
     4    1   39 1   
     5    2    3 1   
     6    2   10 1   
     7    2   13 2   
     8    3    4 2   
     9    3   14 1   
    10    4    9 1   
    11    5    6 ar  
    12    5   12 ar  
    13    5   69 1   
    14    6    7 ar  
    15    6   42 1   
    16    7    8 ar  
    17    7   28 1   
    18    8   11 ar  
    19    8   27 1   
    20    9   43 1   
    21   10   69 1   
    22   11   12 ar  
    23   11   44 1   
    24   12   45 1   
    25   14   16 2   
    26   14   18 1   
    27   15   16 1   
    28   15   17 1   
    29   15   21 2   
    30   15   22 2   
    31   17   18 ar  
    32   17   29 ar  
    33   18   19 ar  
    34   19   20 ar  
    35   19   46 1   
    36   20   30 ar  
    37   20   47 1   
    38   23   24 1   
    39   23   25 1   
    40   23   26 1   
    41   24   48 1   
    42   24   49 1   
    43   24   50 1   
    44   25   51 1   
    45   25   52 1   
    46   25   53 1   
    47   26   54 1   
    48   26   55 1   
    49   26   56 1   
    50   28   57 1   
    51   28   58 1   
    52   28   59 1   
    53   29   30 ar  
    54   29   34 1   
    55   30   31 1   
    56   31   32 1   
    57   31   60 1   
    58   31   61 1   
    59   32   33 1   
    60   32   62 1   
    61   32   63 1   
    62   33   34 1   
    63   33   35 1   
    64   34   64 1   
    65   34   65 1   
    66   35   36 2   
    67   35   37 2   
    68   35   38 1   
    69   38   66 1   
    70   38   67 1   
    71   38   68 1   
    72   40   69 1   
    73   41   69 1   
@<TRIPOS>SUBSTRUCTURE
     1 H5S         1 TEMP              0 ****  ****    0 ROOT
