@<TRIPOS>MOLECULE
H5S
   69    72     1     0     0
SMALL
bcc


@<TRIPOS>ATOM
      1 C1          0.3290    0.8590   -0.9430 c1        1 H5S     -0.001000
      2 C3          0.5290    0.1160    1.9640 c2        1 H5S      0.346000
      3 C4          1.6830    0.2910    1.0380 c2        1 H5S     -0.191000
      4 C5          1.5760    0.6300   -0.2840 c2        1 H5S      0.097000
      5 C7         -2.0110   -2.1430    2.3690 ca        1 H5S     -0.125000
      6 C8         -1.8200   -2.7970    3.5870 ca        1 H5S     -0.091000
      7 C9         -2.0480   -4.1710    3.7110 ca        1 H5S     -0.101000
      8 C10        -2.4710   -4.8910    2.5710 ca        1 H5S      0.091000
      9 O13         2.7290    0.5640   -1.0410 oh        1 H5S     -0.228000
     10 N2         -0.6840   -0.2800    1.4270 n         1 H5S     -0.370000
     11 C11        -2.6600   -4.2350    1.3400 ca        1 H5S     -0.164000
     12 C12        -2.4300   -2.8670    1.2490 ca        1 H5S     -0.106000
     13 O14         0.6480    0.3570    3.1830 o         1 H5S     -0.352000
     14 C15         3.0080    0.1700    1.6560 c2        1 H5S      0.252000
     15 S16         5.3530    0.6340    2.4070 s6        1 H5S      2.715000
     16 N17         3.9270    1.0810    1.6430 n2        1 H5S     -0.668000
     17 C18         4.7600   -0.9450    2.8310 ca        1 H5S     -0.755000
     18 C19         3.4280   -1.0890    2.3570 ca        1 H5S     -0.079000
     19 C20         2.7130   -2.2530    2.5420 ca        1 H5S     -0.068000
     20 C21         3.3400   -3.3210    3.2040 ca        1 H5S     -0.093000
     21 O22         6.4340    0.4980    1.5160 o         1 H5S     -0.904500
     22 O23         5.6300    1.3820    3.5620 o         1 H5S     -0.904500
     23 C24        -0.0720    2.0580   -1.6730 c3        1 H5S     -0.095000
     24 C25         0.0440    1.7030   -3.1640 c3        1 H5S     -0.203000
     25 C26        -1.5390    2.3490   -1.3470 c3        1 H5S     -0.203000
     26 C27         0.7610    3.2980   -1.3780 c3        1 H5S     -0.203000
     27 F28        -2.6960   -6.2250    2.6520 f         1 H5S     -0.104000
     28 C29        -1.8620   -4.8540    5.0100 c3        1 H5S     -0.181000
     29 C30         5.3620   -1.9980    3.4970 ca        1 H5S      0.064000
     30 C31         4.6460   -3.2070    3.6720 ca        1 H5S     -0.056000
     31 C32         5.2940   -4.3550    4.3590 c3        1 H5S     -0.143000
     32 C33         6.8200   -4.2600    4.2850 c3        1 H5S     -0.017000
     33 N34         7.3280   -2.9740    4.6840 n3        1 H5S     -0.837000
     34 C35         6.7680   -1.8360    4.0030 c3        1 H5S     -0.008000
     35 S36         8.4340   -2.7940    5.8710 s6        1 H5S      2.820000
     36 O37         8.0790   -1.7380    6.7280 o         1 H5S     -0.928500
     37 O38         8.6850   -4.0430    6.4790 o         1 H5S     -0.928500
     38 C39         9.8310   -2.3280    5.0200 c3        1 H5S     -0.943000
     39 H1         -0.7070   -0.5980    0.4820 hn        1 H5S      0.243000
     40 H6         -2.7200   -0.1920    1.8290 h1        1 H5S      0.112000
     41 H6A        -1.6300   -0.2250    3.2980 h1        1 H5S      0.112000
     42 H8         -1.4820   -2.2270    4.4680 ha        1 H5S      0.150000
     43 HO13        2.6380    1.1790   -1.7870 ho        1 H5S      0.227000
     44 H11        -2.5850   -2.3520    0.2880 ha        1 H5S      0.135000
     45 H12        -2.9900   -4.8120    0.4650 ha        1 H5S      0.149000
     46 H20         1.6760   -2.3480    2.1870 ha        1 H5S      0.150000
     47 H21         2.7870   -4.2610    3.3530 ha        1 H5S      0.143000
     48 H25        -0.5590    0.7940   -3.3990 hc        1 H5S      0.091667
     49 H25A       -0.3420    2.5620   -3.7630 hc        1 H5S      0.091667
     50 H25B        1.1100    1.5220   -3.4410 hc        1 H5S      0.091667
     51 H26        -2.1680    1.4540   -1.5640 hc        1 H5S      0.091667
     52 H26A       -1.8910    3.2060   -1.9700 hc        1 H5S      0.091667
     53 H26B       -1.6480    2.6180   -0.2690 hc        1 H5S      0.091667
     54 H27         0.6840    3.5700   -0.2970 hc        1 H5S      0.091667
     55 H27A        1.8360    3.1250   -1.6250 hc        1 H5S      0.091667
     56 H27B        0.3940    4.1590   -1.9860 hc        1 H5S      0.091667
     57 H29        -1.4360   -5.8780    4.8580 hc        1 H5S      0.092000
     58 H29A       -2.8490   -4.9630    5.5270 hc        1 H5S      0.092000
     59 H29B       -1.1770   -4.2750    5.6760 hc        1 H5S      0.092000
     60 H32         4.9600   -4.3760    5.4320 hc        1 H5S      0.107500
     61 H32A        4.9780   -5.3230    3.8880 hc        1 H5S      0.107500
     62 H33         7.2660   -5.0560    4.9510 h1        1 H5S      0.104000
     63 H33A        7.1400   -4.4700    3.2230 h1        1 H5S      0.104000
     64 H35         7.4180   -1.5800    3.1090 h1        1 H5S      0.122500
     65 H35A        6.7790   -0.9500    4.7140 h1        1 H5S      0.122500
     66 H39         9.6820   -1.4440    4.3530 h1        1 H5S      0.156667
     67 H39A       10.2520   -3.1430    4.3830 h1        1 H5S      0.156667
     68 H39B       10.6420   -2.0400    5.7370 h1        1 H5S      0.156667
     69 C6         -1.7890   -0.6590    2.2670 c3        1 H5S      0.008000
@<TRIPOS>BOND
     1    1    4 1   
     2    1   23 1   
     3    2    3 1   
     4    2   10 1   
     5    2   13 1   
     6    3    4 1   
     7    3   14 1   
     8    4    9 1   
     9    5    6 1   
    10    5   12 1   
    11    5   69 1   
    12    6    7 1   
    13    6   42 1   
    14    7    8 1   
    15    7   28 1   
    16    8   11 1   
    17    8   27 1   
    18    9   43 1   
    19   10   39 1   
    20   10   69 1   
    21   11   12 1   
    22   11   45 1   
    23   12   44 1   
    24   14   16 1   
    25   14   18 1   
    26   15   16 1   
    27   15   17 1   
    28   15   21 1   
    29   15   22 1   
    30   17   18 1   
    31   17   29 1   
    32   18   19 1   
    33   19   20 1   
    34   19   46 1   
    35   20   30 1   
    36   20   47 1   
    37   23   24 1   
    38   23   25 1   
    39   23   26 1   
    40   24   48 1   
    41   24   49 1   
    42   24   50 1   
    43   25   51 1   
    44   25   52 1   
    45   25   53 1   
    46   26   54 1   
    47   26   55 1   
    48   26   56 1   
    49   28   57 1   
    50   28   58 1   
    51   28   59 1   
    52   29   30 1   
    53   29   34 1   
    54   30   31 1   
    55   31   32 1   
    56   31   60 1   
    57   31   61 1   
    58   32   33 1   
    59   32   62 1   
    60   32   63 1   
    61   33   34 1   
    62   33   35 1   
    63   34   64 1   
    64   34   65 1   
    65   35   36 1   
    66   35   37 1   
    67   35   38 1   
    68   38   66 1   
    69   38   67 1   
    70   38   68 1   
    71   40   69 1   
    72   41   69 1   
@<TRIPOS>SUBSTRUCTURE
     1 H5S         1 TEMP              0 ****  ****    0 ROOT
