@<TRIPOS>MOLECULE
H5S
   69    72     1     0     0
SMALL
bcc


@<TRIPOS>ATOM
      1 C1          0.0160    0.2270    0.1190 c3        1 H5S      0.075900
      2 C3          0.5610   -0.0430    2.4130 c         1 H5S      0.713700
      3 C4          1.8200   -0.2220    1.6320 ce        1 H5S     -0.358800
      4 C5          1.5050   -0.1100    0.2970 c2        1 H5S      0.198900
      5 C7         -2.0610   -1.6850    1.4850 c2        1 H5S     -0.163400
      6 C8         -1.7600   -2.6240    2.5960 c3        1 H5S     -0.004000
      7 C9         -1.8170   -4.0750    2.2470 ce        1 H5S     -0.113200
      8 C10        -2.4360   -4.4360    0.9640 ce        1 H5S      0.176500
      9 O13         2.3710   -0.3280   -0.7050 oh        1 H5S     -0.424100
     10 N2         -0.4950    0.2650    1.5000 n         1 H5S     -0.436800
     11 C11        -2.7860   -3.4990    0.0400 cf        1 H5S     -0.189000
     12 C12        -2.5550   -2.1030    0.3030 cf        1 H5S     -0.105000
     13 O14         0.4000   -0.1150    3.6370 o         1 H5S     -0.595500
     14 C15         3.1400   -0.4190    2.1800 ce        1 H5S      0.732200
     15 S16         5.6220   -0.2720    2.4660 sy        1 H5S      1.442700
     16 N17         4.2110    0.1320    1.6860 nf        1 H5S     -0.709300
     17 C18         4.8320   -1.3080    3.6110 ca        1 H5S     -0.304500
     18 C19         3.4320   -1.3090    3.3520 ca        1 H5S     -0.186900
     19 C20         2.5680   -2.0750    4.1060 ca        1 H5S     -0.046000
     20 C21         3.0990   -2.8560    5.1440 ca        1 H5S     -0.109000
     21 O22         6.5170   -1.0320    1.6800 o         1 H5S     -0.642300
     22 O23         6.2420    0.8000    3.1380 o         1 H5S     -0.642300
     23 C24        -0.1840    1.5560   -0.6630 c3        1 H5S     -0.043000
     24 C25         0.2460    1.3570   -2.1130 c3        1 H5S     -0.100100
     25 C26        -1.6570    1.9440   -0.6510 c3        1 H5S     -0.100100
     26 C27         0.6340    2.6800   -0.0470 c3        1 H5S     -0.100100
     27 F28        -2.6360   -5.7540    0.7210 f         1 H5S     -0.165500
     28 C29        -1.3310   -5.0020    3.0860 c2        1 H5S     -0.182000
     29 C30         5.3430   -2.0780    4.6390 ca        1 H5S      0.060700
     30 C31         4.4650   -2.8710    5.4200 ca        1 H5S     -0.016300
     31 C32         4.9870   -3.7320    6.5080 c3        1 H5S     -0.071800
     32 C33         7.0280   -4.2340    4.0210 c1        1 H5S     -0.033500
     33 N34         7.6060   -3.0910    4.3140 n3        1 H5S     -0.422300
     34 C35         6.8160   -2.0360    4.9430 c3        1 H5S      0.227100
     35 S36         9.2780   -2.7610    4.1340 s6        1 H5S      1.304900
     36 O37         9.7520   -2.1610    5.3220 o         1 H5S     -0.632300
     37 O38         9.8990   -3.9700    3.7420 o         1 H5S     -0.632300
     38 C39         9.3440   -1.6470    2.8790 c3        1 H5S     -0.392300
     39 H1         -0.4920   -0.6020   -0.4600 h1        1 H5S      0.079700
     40 H6         -2.5500    0.3890    1.1750 h1        1 H5S      0.079700
     41 H6A        -2.0160   -0.0360    2.8740 h1        1 H5S      0.079700
     42 H8         -2.5010   -2.4310    3.4260 hc        1 H5S      0.071200
     43 HO13        1.8790   -0.3430   -1.5460 ho        1 H5S      0.443000
     44 H11        -2.8070   -1.3930   -0.5010 ha        1 H5S      0.131000
     45 H12        -3.2440   -3.7860   -0.9170 ha        1 H5S      0.151000
     46 H20         1.4830   -2.0720    3.9180 ha        1 H5S      0.157000
     47 H21         2.4150   -3.4710    5.7500 ha        1 H5S      0.142000
     48 H25        -0.0910    0.3670   -2.5030 hc        1 H5S      0.046811
     49 H25A       -0.2060    2.1540   -2.7540 hc        1 H5S      0.046811
     50 H25B        1.3560    1.4440   -2.2160 hc        1 H5S      0.046811
     51 H26        -2.2910    1.0840   -0.9760 hc        1 H5S      0.046811
     52 H26A       -1.9740    2.2730    0.3670 hc        1 H5S      0.046811
     53 H26B       -1.8290    2.7960   -1.3530 hc        1 H5S      0.046811
     54 H27         0.2970    2.8890    0.9960 hc        1 H5S      0.046811
     55 H27A        0.5100    3.6100   -0.6530 hc        1 H5S      0.046811
     56 H27B        1.7180    2.4100   -0.0260 hc        1 H5S      0.046811
     57 H29        -0.7420   -2.3780    3.0160 hc        1 H5S      0.071200
     58 H29A       -0.8590   -4.7340    4.0400 ha        1 H5S      0.128000
     59 H29B       -1.3820   -6.0760    2.8640 ha        1 H5S      0.128000
     60 H32         4.1690   -4.3270    6.9820 hc        1 H5S      0.060033
     61 H32A        5.7460   -4.4430    6.0870 hc        1 H5S      0.060033
     62 H33         5.4740   -3.1120    7.3020 hc        1 H5S      0.060033
     63 H33A        7.6780   -5.0050    3.5510 ha        1 H5S      0.029500
     64 H35         7.2340   -1.0420    4.5950 h1        1 H5S      0.078200
     65 H35A        6.9670   -2.1000    6.0610 h1        1 H5S      0.078200
     66 H39         9.2610   -0.5860    3.2290 h1        1 H5S      0.143700
     67 H39A        8.5530   -1.7570    2.0850 h1        1 H5S      0.143700
     68 H39B       10.3180   -1.7180    2.3280 h1        1 H5S      0.143700
     69 C6         -1.8230   -0.2290    1.7770 c3        1 H5S      0.113200
@<TRIPOS>BOND
     1    1    4 1   
     2    1   10 1   
     3    1   23 1   
     4    1   39 1   
     5    2    3 1   
     6    2   10 1   
     7    2   13 2   
     8    3    4 2   
     9    3   14 1   
    10    4    9 1   
    11    5    6 1   
    12    5   12 2   
    13    5   69 1   
    14    6    7 1   
    15    6   42 1   
    16    6   57 1   
    17    7    8 1   
    18    7   28 2   
    19    8   11 2   
    20    8   27 1   
    21    9   43 1   
    22   10   69 1   
    23   11   12 1   
    24   11   45 1   
    25   12   44 1   
    26   14   16 2   
    27   14   18 1   
    28   15   16 1   
    29   15   17 1   
    30   15   21 2   
    31   15   22 2   
    32   17   18 ar  
    33   17   29 ar  
    34   18   19 ar  
    35   19   20 ar  
    36   19   46 1   
    37   20   30 ar  
    38   20   47 1   
    39   23   24 1   
    40   23   25 1   
    41   23   26 1   
    42   24   48 1   
    43   24   49 1   
    44   24   50 1   
    45   25   51 1   
    46   25   52 1   
    47   25   53 1   
    48   26   54 1   
    49   26   55 1   
    50   26   56 1   
    51   28   58 1   
    52   28   59 1   
    53   29   30 ar  
    54   29   34 1   
    55   30   31 1   
    56   31   60 1   
    57   31   61 1   
    58   31   62 1   
    59   32   33 3   
    60   32   63 1   
    61   33   34 1   
    62   33   35 1   
    63   34   64 1   
    64   34   65 1   
    65   35   36 2   
    66   35   37 2   
    67   35   38 1   
    68   38   66 1   
    69   38   67 1   
    70   38   68 1   
    71   40   69 1   
    72   41   69 1   
@<TRIPOS>SUBSTRUCTURE
     1 H5S         1 TEMP              0 ****  ****    0 ROOT
