@<TRIPOS>MOLECULE
H5S
   69    72     1     0     0
SMALL
bcc


@<TRIPOS>ATOM
      1 C1          0.5480    1.2960   -0.1240 cc        1 H5S      0.189000
      2 C3          0.7950   -0.0900    1.6480 cc        1 H5S      0.584600
      3 C4          2.0950    0.2380    1.2100 cd        1 H5S     -0.436200
      4 C5          1.9050    1.1110    0.0590 cd        1 H5S      0.069800
      5 C7         -1.3310   -2.5450    1.9240 ca        1 H5S     -0.155300
      6 C8         -1.3490   -3.8010    2.5330 ca        1 H5S     -0.093000
      7 C9         -1.6530   -4.9520    1.8010 ca        1 H5S     -0.107300
      8 C10        -1.9440   -4.8190    0.4240 ca        1 H5S      0.136900
      9 O13         2.8580    1.7190   -0.6960 oh        1 H5S     -0.472100
     10 N2          0.3470   -0.8700    2.6840 nu        1 H5S     -0.823900
     11 C11        -1.9230   -3.5540   -0.1930 ca        1 H5S     -0.162000
     12 C12        -1.6170   -2.4270    0.5600 ca        1 H5S     -0.090000
     13 O14        -0.1580    0.5510    0.8540 os        1 H5S     -0.363800
     14 C15         3.3460   -0.2390    1.7090 cf        1 H5S      0.737500
     15 S16         5.6600   -1.1910    1.7870 sy        1 H5S      1.450700
     16 N17         4.3650   -0.5730    0.9640 ne        1 H5S     -0.756300
     17 C18         4.9100   -1.0060    3.3460 ca        1 H5S     -0.298500
     18 C19         3.6270   -0.4150    3.1750 ca        1 H5S     -0.204900
     19 C20         2.8750   -0.0240    4.2630 ca        1 H5S     -0.068000
     20 C21         3.3620   -0.3070    5.5490 ca        1 H5S     -0.112000
     21 O22         5.9020   -2.5590    1.5410 o         1 H5S     -0.642800
     22 O23         6.8200   -0.3940    1.7320 o         1 H5S     -0.642800
     23 C24        -0.2670    2.0990   -1.0700 c3        1 H5S     -0.062300
     24 C25         0.1380    1.7360   -2.4970 c3        1 H5S     -0.087433
     25 C26        -1.7530    1.8250   -0.8790 c3        1 H5S     -0.087433
     26 C27         0.0140    3.5800   -0.8310 c3        1 H5S     -0.087433
     27 F28        -2.2470   -5.9130   -0.3150 f         1 H5S     -0.134900
     28 C29        -1.6610   -6.2830    2.4470 c3        1 H5S     -0.055800
     29 C30         5.3760   -1.2900    4.6160 ca        1 H5S      0.064700
     30 C31         4.5830   -0.9510    5.7410 ca        1 H5S     -0.015300
     31 C32         5.0340   -1.2810    7.1130 c3        1 H5S     -0.071800
     32 C33         5.6380   -3.9680    5.3440 c1        1 H5S     -0.038500
     33 N34         6.7250   -3.3700    4.9100 n3        1 H5S     -0.423300
     34 C35         6.7340   -1.9140    4.7910 c3        1 H5S      0.227100
     35 S36         8.2110   -4.1520    4.5690 s6        1 H5S      1.308900
     36 O37         9.2540   -3.4180    5.1770 o         1 H5S     -0.631300
     37 O38         8.0670   -5.5020    4.9650 o         1 H5S     -0.631300
     38 C39         8.3570   -4.0530    2.8990 c3        1 H5S     -0.396300
     39 H1          1.0280   -1.5270    3.0130 hn        1 H5S      0.437800
     40 H6         -1.6900   -0.4720    2.3860 h1        1 H5S      0.077700
     41 H6A        -1.2510   -1.5190    3.8210 h1        1 H5S      0.077700
     42 H8         -1.1260   -3.8940    3.6070 ha        1 H5S      0.138000
     43 HO13        3.6670    1.1840   -0.6380 ho        1 H5S      0.451000
     44 H11        -1.5950   -1.4330    0.0810 ha        1 H5S      0.150000
     45 H12        -2.1500   -3.4720   -1.2660 ha        1 H5S      0.154000
     46 H20         1.9270    0.5230    4.1490 ha        1 H5S      0.158000
     47 H21         2.7580   -0.0120    6.4230 ha        1 H5S      0.145000
     48 H25        -0.1180    0.6720   -2.7150 hc        1 H5S      0.042589
     49 H25A        1.2390    1.8760   -2.6270 hc        1 H5S      0.042589
     50 H25B       -0.4010    2.3920   -3.2210 hc        1 H5S      0.042589
     51 H26        -2.3440    2.4110   -1.6220 hc        1 H5S      0.042589
     52 H26A       -1.9670    0.7380   -1.0210 hc        1 H5S      0.042589
     53 H26B       -2.0720    2.1170    0.1500 hc        1 H5S      0.042589
     54 H27        -0.3070    3.8760    0.1960 hc        1 H5S      0.042589
     55 H27A       -0.5470    4.1960   -1.5750 hc        1 H5S      0.042589
     56 H27B        1.1070    3.7820   -0.9410 hc        1 H5S      0.042589
     57 H29        -1.7620   -6.1930    3.5560 hc        1 H5S      0.053700
     58 H29A       -0.7060   -6.8220    2.2200 hc        1 H5S      0.053700
     59 H29B       -2.5080   -6.9020    2.0580 hc        1 H5S      0.053700
     60 H32         4.2650   -0.9990    7.8730 hc        1 H5S      0.061033
     61 H32A        5.9830   -0.7400    7.3580 hc        1 H5S      0.061033
     62 H33         5.2200   -2.3850    7.1870 hc        1 H5S      0.061033
     63 H33A        5.6890   -5.0770    5.4230 ha        1 H5S      0.029500
     64 H35         7.3800   -1.6470    3.8990 h1        1 H5S      0.078700
     65 H35A        7.2260   -1.4880    5.7150 h1        1 H5S      0.078700
     66 H39         8.9770   -3.1800    2.5690 h1        1 H5S      0.145033
     67 H39A        8.8580   -4.9660    2.4830 h1        1 H5S      0.145033
     68 H39B        7.3950   -3.9650    2.3210 h1        1 H5S      0.145033
     69 C6         -1.0280   -1.3170    2.7320 c3        1 H5S      0.241100
@<TRIPOS>BOND
     1    1    4 2   
     2    1   13 1   
     3    1   23 1   
     4    2    3 2   
     5    2   10 1   
     6    2   13 1   
     7    3    4 1   
     8    3   14 1   
     9    4    9 1   
    10    5    6 ar  
    11    5   12 ar  
    12    5   69 1   
    13    6    7 ar  
    14    6   42 1   
    15    7    8 ar  
    16    7   28 1   
    17    8   11 ar  
    18    8   27 1   
    19    9   43 1   
    20   10   39 1   
    21   10   69 1   
    22   11   12 ar  
    23   11   45 1   
    24   12   44 1   
    25   14   16 2   
    26   14   18 1   
    27   15   16 1   
    28   15   17 1   
    29   15   21 2   
    30   15   22 2   
    31   17   18 ar  
    32   17   29 ar  
    33   18   19 ar  
    34   19   20 ar  
    35   19   46 1   
    36   20   30 ar  
    37   20   47 1   
    38   23   24 1   
    39   23   25 1   
    40   23   26 1   
    41   24   48 1   
    42   24   49 1   
    43   24   50 1   
    44   25   51 1   
    45   25   52 1   
    46   25   53 1   
    47   26   54 1   
    48   26   55 1   
    49   26   56 1   
    50   28   57 1   
    51   28   58 1   
    52   28   59 1   
    53   29   30 ar  
    54   29   34 1   
    55   30   31 1   
    56   31   60 1   
    57   31   61 1   
    58   31   62 1   
    59   32   33 3   
    60   32   63 1   
    61   33   34 1   
    62   33   35 1   
    63   34   64 1   
    64   34   65 1   
    65   35   36 2   
    66   35   37 2   
    67   35   38 1   
    68   38   66 1   
    69   38   67 1   
    70   38   68 1   
    71   40   69 1   
    72   41   69 1   
@<TRIPOS>SUBSTRUCTURE
     1 H5S         1 TEMP              0 ****  ****    0 ROOT
