@<TRIPOS>MOLECULE
H5U
   63    62     1     0     0
SMALL
bcc


@<TRIPOS>ATOM
      1 C1         -0.3030    0.2440   -0.0310 c2        1 H5U     -0.340000
      2 C2          0.5370   -0.8040   -0.4010 c2        1 H5U      0.227000
      3 C3          1.2970   -1.3420    0.8240 c3        1 H5U      0.037000
      4 N4          0.7210   -0.5700    1.9170 ns        1 H5U     -0.375000
      5 C5         -0.1660    0.4060    1.4550 c2        1 H5U      0.373000
      6 O6         -0.7670    1.1920    2.2040 o         1 H5U     -0.369000
      7 O7          0.7450   -1.3930   -1.5740 oh        1 H5U     -0.185000
      8 C8          2.0740   -0.0350    4.6630 c1        1 H5U      0.156000
      9 C9          2.4300    0.2730    5.8910 c2        1 H5U     -0.309000
     10 C10         2.8380   -1.2830    0.6830 c3        1 H5U     -0.054000
     11 C11        -1.5670    3.1900    0.2920 c2        1 H5U     -0.011000
     12 C12        -2.1570    4.5550    0.2050 c3        1 H5U     -0.203000
     13 C13        -2.9390    4.7780   -0.9890 c1        1 H5U      0.005000
     14 C14        -3.4380    3.7210   -1.7800 c2        1 H5U     -0.001000
     15 C15        -1.7680    2.3000   -0.7020 c2        1 H5U     -0.163000
     16 C16        -2.6800    2.5870   -1.8230 c2        1 H5U     -0.816000
     17 S17        -2.6130    1.3050   -2.9230 s6        1 H5U      2.755000
     18 N18        -1.5500    0.4230   -2.0740 n2        1 H5U     -0.829000
     19 C19        -1.1830    0.9400   -0.9120 c2        1 H5U      0.332000
     20 C22         3.2760   -2.3430   -0.3200 c3        1 H5U     -0.216000
     21 C23         3.2900    0.0870    0.2110 c3        1 H5U     -0.216000
     22 C24         3.4780   -1.5990    2.0290 c3        1 H5U     -0.216000
     23 C25        -3.1550    2.2560    4.4700 c3        1 H5U     -0.112000
     24 C26        -3.6740    3.4320    3.8560 c1        1 H5U     -0.137000
     25 C27        -4.0950    4.4150    3.3220 c1        1 H5U     -0.074000
     26 C28         4.6740   -0.1940    7.1050 c1        1 H5U     -0.150000
     27 C29         3.6420    0.0180    6.5360 c1        1 H5U     -0.136000
     28 F30        -4.5640    5.4860    2.7590 f         1 H5U     -0.001000
     29 C31        -3.2160    1.1150   -6.8020 c2        1 H5U      0.166000
     30 N32        -4.2290    0.8560   -6.0370 n7        1 H5U     -0.578000
     31 S33        -5.6670   -0.1400   -6.4030 s6        1 H5U      2.794000
     32 C34        -5.7160   -1.1070   -5.0690 c3        1 H5U     -1.035000
     33 O35        -6.7200    0.7560   -6.4570 o         1 H5U     -0.867000
     34 O36        -5.2820   -0.8230   -7.5500 o         1 H5U     -0.867000
     35 H3          1.0030   -2.4280    0.9620 h1        1 H5U      0.147000
     36 HO7         0.1610   -1.0140   -2.2610 ho        1 H5U      0.278000
     37 H8          1.6670    0.8090    6.5110 ha        1 H5U      0.215000
     38 H8A         1.1890   -0.4960    2.7990 hn        1 H5U      0.292000
     39 H11        -0.9800    2.9710    1.2010 ha        1 H5U      0.198000
     40 H12        -2.7910    4.7700    1.1250 hc        1 H5U      0.191000
     41 H13        -1.3240    5.3240    0.2350 hc        1 H5U      0.191000
     42 H22         2.8230   -2.1570   -1.3230 hc        1 H5U      0.087778
     43 H22A        2.9750   -3.3600    0.0290 hc        1 H5U      0.087778
     44 H22B        4.3880   -2.3200   -0.4270 hc        1 H5U      0.087778
     45 H23         4.4040    0.1090    0.1270 hc        1 H5U      0.087778
     46 H23A        2.8560    0.3160   -0.7920 hc        1 H5U      0.087778
     47 H23B        2.9770    0.8800    0.9310 hc        1 H5U      0.087778
     48 H24         3.3540   -0.7510    2.7480 hc        1 H5U      0.087778
     49 H24A        4.5730   -1.7740    1.8900 hc        1 H5U      0.087778
     50 H24B        3.0250   -2.5180    2.4720 hc        1 H5U      0.087778
     51 H25        -3.9660    1.4940    4.6000 hc        1 H5U      0.108667
     52 H26        -2.3410    1.8100    3.8370 hc        1 H5U      0.108667
     53 H28         5.5880   -0.3810    7.6110 ha        1 H5U      0.237000
     54 H29        -2.7310    2.5000    5.4800 hc        1 H5U      0.108667
     55 H31        -4.3190    3.8890   -2.4190 ha        1 H5U      0.170000
     56 H31A       -2.3600    1.7400   -6.4430 h4        1 H5U      0.209500
     57 HN32       -3.1820    0.6970   -7.8360 h4        1 H5U      0.209500
     58 H34        -5.1570   -2.0750   -5.1840 h1        1 H5U      0.216667
     59 H34A       -5.3250   -0.6690   -4.0980 h1        1 H5U      0.216667
     60 H34B       -6.7720   -1.4040   -4.8040 h1        1 H5U      0.216667
     61 O20        -3.8900    0.6930   -3.1440 o         1 H5U     -0.992500
     62 H322       -4.2000    1.2490   -5.0970 hn        1 H5U      0.298000
     63 O21        -2.1740    1.7120   -4.2250 o         1 H5U     -0.992500
@<TRIPOS>BOND
     1    1    2 1   
     2    1    5 1   
     3    1   19 1   
     4    2    3 1   
     5    2    7 1   
     6    3    4 1   
     7    3   10 1   
     8    3   35 1   
     9    4    5 1   
    10    4   38 1   
    11    5    6 1   
    12    7   36 1   
    13    8    9 1   
    14    9   27 1   
    15    9   37 1   
    16   10   20 1   
    17   10   21 1   
    18   10   22 1   
    19   11   12 1   
    20   11   15 1   
    21   11   39 1   
    22   12   13 1   
    23   12   40 1   
    24   12   41 1   
    25   13   14 1   
    26   14   16 1   
    27   14   55 1   
    28   15   16 1   
    29   15   19 1   
    30   16   17 1   
    31   17   18 1   
    32   17   61 1   
    33   17   63 1   
    34   18   19 1   
    35   20   42 1   
    36   20   43 1   
    37   20   44 1   
    38   21   45 1   
    39   21   46 1   
    40   21   47 1   
    41   22   48 1   
    42   22   49 1   
    43   22   50 1   
    44   23   24 1   
    45   23   51 1   
    46   23   52 1   
    47   23   54 1   
    48   24   25 1   
    49   25   28 1   
    50   26   27 1   
    51   26   53 1   
    52   29   30 1   
    53   29   56 1   
    54   29   57 1   
    55   30   31 1   
    56   30   62 1   
    57   31   32 1   
    58   31   33 1   
    59   31   34 1   
    60   32   58 1   
    61   32   59 1   
    62   32   60 1   
@<TRIPOS>SUBSTRUCTURE
     1 H5U         1 TEMP              0 ****  ****    0 ROOT
