@<TRIPOS>MOLECULE
H5U
   62    65     1     0     0
SMALL
bcc


@<TRIPOS>ATOM
      1 C1          1.3430    0.7480    0.0870 ce        1 H5U     -0.428800
      2 C2          2.2060    1.6780    0.6470 c2        1 H5U      0.249900
      3 C3          3.6110    1.5630    0.0330 c3        1 H5U      0.104900
      4 N4          3.4480    0.5020   -0.9740 n         1 H5U     -0.441800
      5 C5          2.1210   -0.0240   -0.9220 c         1 H5U      0.722700
      6 O6          1.7450   -0.9430   -1.6610 o         1 H5U     -0.607500
      7 O7          2.0180    2.5730    1.6150 oh        1 H5U     -0.445100
      8 C8          4.5410   -0.4040   -1.2350 c3        1 H5U      0.122300
      9 C9          4.9920   -1.2470   -0.0760 ca        1 H5U     -0.152300
     10 C10         4.1040    2.9250   -0.5270 c3        1 H5U     -0.036000
     11 C11        -0.6550   -1.8020   -0.3100 ca        1 H5U     -0.055000
     12 C12        -1.7010   -2.7370   -0.4370 ca        1 H5U     -0.096000
     13 C13        -2.9990   -2.4120   -0.0780 ca        1 H5U     -0.108000
     14 C14        -3.2900   -1.1380    0.4510 ca        1 H5U      0.026700
     15 C15        -0.9450   -0.5440    0.1770 ca        1 H5U     -0.167900
     16 C16        -2.2700   -0.2180    0.5980 ca        1 H5U     -0.321500
     17 S17        -2.3040    1.3730    1.2670 sy        1 H5U      1.477700
     18 N18        -0.6950    1.6320    0.9840 nf        1 H5U     -0.816300
     19 C19        -0.0550    0.6440    0.4070 ce        1 H5U      0.749200
     20 O21        -2.6130    1.3190    2.6390 o         1 H5U     -0.638800
     21 C22         4.5100    3.8080    0.6480 c3        1 H5U     -0.095100
     22 C23         5.3270    2.7320   -1.4130 c3        1 H5U     -0.095100
     23 C24         3.0110    3.6100   -1.3300 c3        1 H5U     -0.095100
     24 C25         4.3280   -2.4440    0.2140 ca        1 H5U     -0.093000
     25 C26         4.7520   -3.2530    1.2630 ca        1 H5U     -0.167000
     26 C27         5.8590   -2.8570    2.0370 ca        1 H5U      0.136900
     27 C28         6.5300   -1.6530    1.7520 ca        1 H5U     -0.167000
     28 C29         6.0890   -0.8590    0.6980 ca        1 H5U     -0.093000
     29 F30         6.2800   -3.6370    3.0600 f         1 H5U     -0.135900
     30 C31        -4.7000   -0.7950    0.8630 c3        1 H5U      0.246100
     31 N32        -5.3550    0.1100   -0.0340 n3        1 H5U     -0.927100
     32 S33        -6.6920   -0.2450   -0.8680 s6        1 H5U      1.468900
     33 C34        -7.8960    0.6470   -0.0590 c3        1 H5U     -0.362300
     34 O35        -6.6030    0.2520   -2.1810 o         1 H5U     -0.658300
     35 O36        -6.9960   -1.6190   -0.7290 o         1 H5U     -0.658300
     36 H3          4.3370    1.2310    0.8350 h1        1 H5U      0.089700
     37 HO7         1.0730    2.6050    1.8740 ho        1 H5U      0.486000
     38 H8          4.2030   -1.0830   -2.0740 h1        1 H5U      0.081200
     39 H8A         5.4130    0.2070   -1.6070 h1        1 H5U      0.081200
     40 H11         0.3640   -2.0940   -0.6090 ha        1 H5U      0.175000
     41 H12        -1.4740   -3.7370   -0.8400 ha        1 H5U      0.148000
     42 H13        -3.8120   -3.1450   -0.2040 ha        1 H5U      0.156000
     43 H22         5.3220    3.3240    1.2410 hc        1 H5U      0.045478
     44 H22A        4.8870    4.7880    0.2650 hc        1 H5U      0.045478
     45 H22B        3.6420    4.0090    1.3220 hc        1 H5U      0.045478
     46 H23         5.0540    2.2220   -2.3680 hc        1 H5U      0.045478
     47 H23A        5.7640    3.7290   -1.6670 hc        1 H5U      0.045478
     48 H23B        6.1050    2.1330   -0.8810 hc        1 H5U      0.045478
     49 H24         2.1290    3.8330   -0.6800 hc        1 H5U      0.045478
     50 H24A        3.3940    4.5730   -1.7460 hc        1 H5U      0.045478
     51 H24B        2.6810    2.9640   -2.1780 hc        1 H5U      0.045478
     52 H25         3.4620   -2.7460   -0.3980 ha        1 H5U      0.144000
     53 H26         4.2360   -4.1970    1.4930 ha        1 H5U      0.153500
     54 H28         7.3960   -1.3540    2.3610 ha        1 H5U      0.153500
     55 H29         6.6170    0.0810    0.4690 ha        1 H5U      0.144000
     56 H31        -5.3070   -1.7480    0.9330 h1        1 H5U      0.077200
     57 H31A       -4.6560   -0.3370    1.8980 h1        1 H5U      0.077200
     58 HN32       -4.8810    0.9820   -0.1490 hn        1 H5U      0.477800
     59 H34        -7.6720    1.7390    0.0180 h1        1 H5U      0.114700
     60 H34A       -8.8690    0.5680   -0.6080 h1        1 H5U      0.114700
     61 H34B       -8.0920    0.2850    0.9790 h1        1 H5U      0.114700
     62 O20        -3.1660    2.1870    0.5050 o         1 H5U     -0.638800
@<TRIPOS>BOND
     1    1    2 2   
     2    1    5 1   
     3    1   19 1   
     4    2    3 1   
     5    2    7 1   
     6    3    4 1   
     7    3   10 1   
     8    3   36 1   
     9    4    5 1   
    10    4    8 1   
    11    5    6 2   
    12    7   37 1   
    13    8    9 1   
    14    8   38 1   
    15    8   39 1   
    16    9   24 ar  
    17    9   28 ar  
    18   10   21 1   
    19   10   22 1   
    20   10   23 1   
    21   11   12 ar  
    22   11   15 ar  
    23   11   40 1   
    24   12   13 ar  
    25   12   41 1   
    26   13   14 ar  
    27   13   42 1   
    28   14   16 ar  
    29   14   30 1   
    30   15   16 ar  
    31   15   19 1   
    32   16   17 1   
    33   17   18 1   
    34   17   20 2   
    35   17   62 2   
    36   18   19 2   
    37   21   43 1   
    38   21   44 1   
    39   21   45 1   
    40   22   46 1   
    41   22   47 1   
    42   22   48 1   
    43   23   49 1   
    44   23   50 1   
    45   23   51 1   
    46   24   25 ar  
    47   24   52 1   
    48   25   26 ar  
    49   25   53 1   
    50   26   27 ar  
    51   26   29 1   
    52   27   28 ar  
    53   27   54 1   
    54   28   55 1   
    55   30   31 1   
    56   30   56 1   
    57   30   57 1   
    58   31   32 1   
    59   31   58 1   
    60   32   33 1   
    61   32   34 2   
    62   32   35 2   
    63   33   59 1   
    64   33   60 1   
    65   33   61 1   
@<TRIPOS>SUBSTRUCTURE
     1 H5U         1 TEMP              0 ****  ****    0 ROOT
