@<TRIPOS>MOLECULE
H5U
   63    61     1     0     0
SMALL
bcc


@<TRIPOS>ATOM
      1 C1         -0.6820    0.1730    0.2070 c2        1 H5U     -0.375000
      2 C2          0.3550   -0.7790   -0.2110 c2        1 H5U      0.228000
      3 C3          0.9790   -1.3450    0.8850 c2        1 H5U     -0.293000
      4 N4          0.3860   -0.8040    2.1130 n4        1 H5U     -0.092000
      5 C5         -0.6950    0.1690    1.6470 c2        1 H5U      0.343000
      6 O6         -1.3520    0.7240    2.5290 o         1 H5U     -0.310000
      7 O7          0.7020   -1.0860   -1.4770 oh        1 H5U     -0.217000
      8 C8          2.0910    0.4910    3.8480 c1        1 H5U      0.190000
      9 C9          2.8620    1.1270    4.6910 c2        1 H5U     -0.362500
     10 C10         2.0880   -2.3390    0.9900 c3        1 H5U      0.030000
     11 C11        -2.3560    2.7780    0.7980 c2        1 H5U     -0.090000
     12 C12        -6.3380    4.0110    0.0140 c1        1 H5U      0.311000
     13 C13        -5.3300    3.1630   -0.0890 c2        1 H5U     -0.513000
     14 C14        -4.6790    2.6850   -1.2760 c2        1 H5U      0.144000
     15 C15        -2.4910    1.9690   -0.2540 c2        1 H5U     -0.132000
     16 C16        -3.4540    2.1410   -1.3520 c2        1 H5U     -0.819000
     17 S17        -2.7540    1.4190   -2.7370 s6        1 H5U      2.748000
     18 N18        -1.6050    0.6300   -1.9660 n2        1 H5U     -0.876000
     19 C19        -1.5350    0.8700   -0.6530 c2        1 H5U      0.311000
     20 C22         2.3990   -2.9180   -0.3860 c3        1 H5U     -0.208667
     21 C23         3.3450   -1.6650    1.5330 c3        1 H5U     -0.208667
     22 C24         1.6870   -3.4800    1.9220 c3        1 H5U     -0.208667
     23 C25        -0.8620    3.3620    4.6620 c2        1 H5U     -0.131000
     24 C26        -0.2160    4.3240    4.0830 c1        1 H5U     -0.263000
     25 C27         0.4560    5.3000    3.5150 c2        1 H5U      0.059000
     26 C28         3.1980    2.8160    6.4730 c1        1 H5U      0.190000
     27 C29         2.4910    2.2550    5.5070 c2        1 H5U     -0.362500
     28 F30        -0.1100    6.2290    2.7140 f         1 H5U     -0.102000
     29 C31        -2.5830    2.4110   -6.5240 c2        1 H5U      0.167000
     30 N32        -3.5580    1.6380   -6.1620 n3        1 H5U     -0.581000
     31 S33        -4.4630    0.4590   -7.1410 s6        1 H5U      2.794000
     32 C34        -4.3600   -0.8810   -6.1860 c3        1 H5U     -1.034000
     33 O35        -5.7500    0.9640   -7.2210 o         1 H5U     -0.871000
     34 O36        -3.6930    0.3570   -8.2950 o         1 H5U     -0.871000
     35 H3         -0.0260   -1.5570    2.6620 hn        1 H5U      0.272500
     36 HO7         0.1170   -0.6070   -2.0930 ho        1 H5U      0.270000
     37 H8          3.9150    0.7680    4.7960 ha        1 H5U      0.212000
     38 H8A         1.1200   -0.2940    2.7210 hn        1 H5U      0.272500
     39 H11        -1.5660    2.6620    1.5540 ha        1 H5U      0.143000
     40 H12        -3.0280    3.6350    0.9600 ha        1 H5U      0.143000
     41 H13        -4.9500    2.7450    0.8770 ha        1 H5U      0.217000
     42 H22         2.7580   -2.1150   -1.0750 hc        1 H5U      0.081889
     43 H22A        1.4840   -3.3800   -0.8280 hc        1 H5U      0.081889
     44 H22B        3.1940   -3.6970   -0.2970 hc        1 H5U      0.081889
     45 H23         3.6590   -0.8320    0.8600 hc        1 H5U      0.081889
     46 H23A        4.1750   -2.4090    1.5950 hc        1 H5U      0.081889
     47 H23B        3.1670   -1.2510    2.5560 hc        1 H5U      0.081889
     48 H24         2.4490   -4.2950    1.8690 hc        1 H5U      0.081889
     49 H24A        1.6290   -3.1350    2.9820 hc        1 H5U      0.081889
     50 H24B        0.6980   -3.9000    1.6200 hc        1 H5U      0.081889
     51 H25        -1.3050    3.4720    5.6660 ha        1 H5U      0.141500
     52 H26        -1.0230    2.3830    4.1790 ha        1 H5U      0.141500
     53 H28         1.5450    5.4380    3.6470 h4        1 H5U      0.158000
     54 H29         1.4910    2.7140    5.3030 ha        1 H5U      0.212000
     55 H31        -2.2240    2.3930   -7.5800 h4        1 H5U      0.209000
     56 H31A       -5.2840    2.7600   -2.2040 ha        1 H5U      0.134000
     57 HN32       -2.0800    3.0920   -5.7910 h4        1 H5U      0.209000
     58 H34        -3.4670   -1.5290   -6.3980 h1        1 H5U      0.216333
     59 H34A       -4.3260   -0.7100   -5.0650 h1        1 H5U      0.216333
     60 H34B       -5.2550   -1.5560   -6.3130 h1        1 H5U      0.216333
     61 O20        -3.7160    0.6160   -3.4510 o         1 H5U     -1.010000
     62 H322       -3.8290    1.6870   -5.1770 hn        1 H5U      0.305000
     63 O21        -2.3290    2.3870   -3.7100 o         1 H5U     -1.010000
@<TRIPOS>BOND
     1    1    2 1   
     2    1    5 1   
     3    1   19 1   
     4    2    3 1   
     5    2    7 1   
     6    3    4 1   
     7    3   10 1   
     8    4    5 1   
     9    4   35 1   
    10    4   38 1   
    11    5    6 1   
    12    7   36 1   
    13    8    9 1   
    14    9   27 1   
    15    9   37 1   
    16   10   20 1   
    17   10   21 1   
    18   10   22 1   
    19   11   15 1   
    20   11   39 1   
    21   11   40 1   
    22   12   13 1   
    23   13   14 1   
    24   13   41 1   
    25   14   16 1   
    26   14   56 1   
    27   15   16 1   
    28   15   19 1   
    29   16   17 1   
    30   17   18 1   
    31   17   61 1   
    32   17   63 1   
    33   18   19 1   
    34   20   42 1   
    35   20   43 1   
    36   20   44 1   
    37   21   45 1   
    38   21   46 1   
    39   21   47 1   
    40   22   48 1   
    41   22   49 1   
    42   22   50 1   
    43   23   24 1   
    44   23   51 1   
    45   23   52 1   
    46   24   25 1   
    47   25   28 1   
    48   25   53 1   
    49   26   27 1   
    50   27   54 1   
    51   29   30 1   
    52   29   55 1   
    53   29   57 1   
    54   30   31 1   
    55   30   62 1   
    56   31   32 1   
    57   31   33 1   
    58   31   34 1   
    59   32   58 1   
    60   32   59 1   
    61   32   60 1   
@<TRIPOS>SUBSTRUCTURE
     1 H5U         1 TEMP              0 ****  ****    0 ROOT
