@<TRIPOS>MOLECULE
H5U
   62    56     1     0     0
SMALL
bcc


@<TRIPOS>ATOM
      1 C1          1.2850    0.0120    0.1510 c1        1 H5U     -0.291000
      2 C2          2.6050    0.0220    0.1360 c1        1 H5U      0.144000
      3 C3          3.2180    0.0590    1.4370 c2        1 H5U      0.039000
      4 N4          1.9400   -0.1640    2.3810 n3        1 H5U     -0.297000
      5 C5          0.7210   -0.0400    1.4320 c1        1 H5U      0.355000
      6 O6         -0.4240   -0.3490    1.6960 o         1 H5U     -0.291000
      7 O7          3.2960    0.5300   -0.9870 oh        1 H5U     -0.209000
      8 C8          1.9140   -0.0400    3.8310 c3        1 H5U     -0.004000
      9 C9          0.5740    0.6040    4.2720 c2        1 H5U     -0.147000
     10 C10         4.3140   -0.9310    1.6330 c3        1 H5U     -0.038000
     11 C11        -0.2810    1.7930   -2.2490 c1        1 H5U     -0.096000
     12 C12        -1.2440    2.3710   -3.1080 c1        1 H5U     -0.099000
     13 C13        -2.2660    1.5470   -3.7060 c1        1 H5U     -0.099000
     14 C14        -2.3080    0.1600   -3.4350 c1        1 H5U      0.039000
     15 C15        -0.3170    0.4480   -1.9820 c1        1 H5U     -0.110000
     16 C16        -1.3740   -0.4050   -2.6010 c1        1 H5U     -0.750000
     17 S17        -1.0920   -2.0540   -1.9220 s4        1 H5U      1.933800
     18 N18         0.0930   -1.7810   -1.0460 n1        1 H5U     -0.643000
     19 C19         0.5090   -0.5390   -1.0500 c2        1 H5U      0.245000
     20 O20        -0.8050   -3.0200   -2.9410 o         1 H5U     -0.513900
     21 O21        -2.2160   -2.4820   -1.1390 o         1 H5U     -0.513900
     22 C22         5.2000   -0.9670    0.3830 c3        1 H5U     -0.211333
     23 C23         5.1530   -0.5270    2.8380 c3        1 H5U     -0.211333
     24 C24         3.7160   -2.3100    1.8700 c3        1 H5U     -0.211333
     25 C25        -0.3610   -0.2680    4.8130 c1        1 H5U     -0.088000
     26 C26        -1.4780    0.2330    5.4750 c1        1 H5U     -0.165000
     27 C27        -1.6560    1.6030    5.5950 c1        1 H5U      0.099000
     28 C28        -0.7210    2.4740    5.0550 c1        1 H5U     -0.171000
     29 C29         0.3950    1.9740    4.3930 c2        1 H5U     -0.099000
     30 F30        -2.7080    2.0860    6.2780 f         1 H5U     -0.102000
     31 C31        -3.0970   -0.3570   -4.6540 c3        1 H5U      0.003000
     32 N32        -4.5150   -0.2040   -4.4120 n3        1 H5U     -0.899000
     33 S33        -5.5420    0.1390   -5.6740 s4        1 H5U      2.039800
     34 C34        -7.2330   -0.1890   -5.2040 c2        1 H5U     -0.942000
     35 O35        -5.3800    1.4930   -6.1240 o         1 H5U     -0.545900
     36 O36        -5.1800   -0.5920   -6.8550 o         1 H5U     -0.545900
     37 H3          3.6740    0.9060    1.6140 h4        1 H5U      0.125000
     38 HO7         3.1190    1.3930   -1.0770 ho        1 H5U      0.244000
     39 H8          1.9970   -0.9300    4.2360 h1        1 H5U      0.120000
     40 H8A         2.6580    0.5220    4.1240 h1        1 H5U      0.120000
     41 H11         0.4100    2.3520   -1.8450 ha        1 H5U      0.147000
     42 H12        -1.2170    3.3300   -3.2970 ha        1 H5U      0.154500
     43 H13        -2.9280    1.9470   -4.2970 ha        1 H5U      0.154500
     44 H22         4.7140   -1.4010   -0.3510 hc        1 H5U      0.083444
     45 H22A        5.4360   -0.0510    0.1230 hc        1 H5U      0.083444
     46 H22B        6.0200   -1.4730    0.5770 hc        1 H5U      0.083444
     47 H23         5.2190    0.4530    2.8780 hc        1 H5U      0.083444
     48 H23A        4.7290   -0.8600    3.6570 hc        1 H5U      0.083444
     49 H23B        6.0500   -0.9110    2.7550 hc        1 H5U      0.083444
     50 H24         3.1080   -2.2740    2.6360 hc        1 H5U      0.083444
     51 H24A        4.4370   -2.9540    2.0530 hc        1 H5U      0.083444
     52 H24B        3.2200   -2.5930    1.0730 hc        1 H5U      0.083444
     53 H25        -0.2360   -1.2280    4.7290 ha        1 H5U      0.160000
     54 H26        -2.1360   -0.3790    5.8550 ha        1 H5U      0.156000
     55 H28        -0.8470    3.4350    5.1400 ha        1 H5U      0.151000
     56 H29         1.0480    2.5830    4.0150 ha        1 H5U      0.136000
     57 H31        -2.8440    0.1590   -5.4500 h1        1 H5U      0.118000
     58 H31A       -2.8900   -1.3050   -4.8000 h1        1 H5U      0.118000
     59 HN32       -4.8450   -0.2990   -3.5710 hn        1 H5U      0.273000
     60 H34        -7.3140   -1.1180   -4.9040 ha        1 H5U      0.156000
     61 H34A       -7.8220   -0.0420   -5.9760 ha        1 H5U      0.156000
     62 H34B       -7.4920    0.4130   -4.4750 ha        1 H5U      0.156000
@<TRIPOS>BOND
     1    1    2 1   
     2    1   19 1   
     3    2    7 1   
     4    3    4 1   
     5    3   10 1   
     6    3   37 1   
     7    4    5 1   
     8    4    8 1   
     9    5    6 1   
    10    7   38 1   
    11    8    9 1   
    12    8   39 1   
    13    8   40 1   
    14    9   25 1   
    15    9   29 1   
    16   10   22 1   
    17   10   23 1   
    18   10   24 1   
    19   11   15 1   
    20   11   41 1   
    21   12   13 1   
    22   12   42 1   
    23   13   43 1   
    24   14   16 1   
    25   14   31 1   
    26   15   19 1   
    27   16   17 1   
    28   17   20 1   
    29   17   21 1   
    30   18   19 1   
    31   22   44 1   
    32   22   45 1   
    33   22   46 1   
    34   23   47 1   
    35   23   48 1   
    36   23   49 1   
    37   24   50 1   
    38   24   51 1   
    39   24   52 1   
    40   25   53 1   
    41   26   27 1   
    42   26   54 1   
    43   27   30 1   
    44   28   29 1   
    45   28   55 1   
    46   29   56 1   
    47   31   32 1   
    48   31   57 1   
    49   31   58 1   
    50   32   33 1   
    51   32   59 1   
    52   33   35 1   
    53   33   36 1   
    54   34   60 1   
    55   34   61 1   
    56   34   62 1   
@<TRIPOS>SUBSTRUCTURE
     1 H5U         1 TEMP              0 ****  ****    0 ROOT
