@<TRIPOS>MOLECULE
H5U
   63    61     1     0     0
SMALL
bcc


@<TRIPOS>ATOM
      1 C1         -0.1620    0.4620   -0.0230 c2        1 H5U     -0.438000
      2 C2          0.5580   -0.8030   -0.4310 c3        1 H5U      0.132000
      3 C3          1.4260   -1.1130    0.8260 c2        1 H5U      0.158000
      4 N4          1.1880   -0.2350    1.7750 n         1 H5U     -0.217000
      5 C5          0.1980    0.7920    1.3300 c2        1 H5U      0.373000
      6 O6         -0.1250    1.6530    2.1480 o         1 H5U     -0.302000
      7 O7          1.4050   -0.7070   -1.5490 oh        1 H5U     -0.310000
      8 C8          2.3270   -0.0440    4.3280 c1        1 H5U      0.113000
      9 C9          2.8100    0.1230    5.5340 c2        1 H5U     -0.248000
     10 C10         2.3900   -2.2670    0.8820 c3        1 H5U     -0.043000
     11 C11        -1.4330    3.3430    0.1770 c2        1 H5U     -0.102000
     12 C12        -5.3310    4.9620   -0.3010 c1        1 H5U      0.304000
     13 C13        -4.4600    3.9680   -0.3210 c2        1 H5U     -0.510000
     14 C14        -4.0990    3.1200   -1.4220 c2        1 H5U      0.137000
     15 C15        -1.8430    2.3440   -0.6080 c2        1 H5U     -0.127000
     16 C16        -2.9770    2.3940   -1.5420 c2        1 H5U     -0.811000
     17 S17        -2.6390    1.2570   -2.7820 s6        1 H5U      2.731000
     18 N18        -1.4490    0.5180   -2.0380 n2        1 H5U     -0.863000
     19 C19        -1.0980    1.0550   -0.8600 c2        1 H5U      0.299000
     20 C22         3.7180   -1.7720    0.3080 c3        1 H5U     -0.219000
     21 C23         2.5930   -2.7570    2.3080 c3        1 H5U     -0.219000
     22 C24         1.8590   -3.4100    0.0250 c3        1 H5U     -0.219000
     23 C25        -1.4930    4.1100    4.1670 c3        1 H5U     -0.101000
     24 C26        -1.9620    5.3560    3.6610 c1        1 H5U     -0.177000
     25 C27        -2.3530    6.4070    3.2460 c1        1 H5U     -0.034000
     26 C28         2.7130    2.2270    7.0470 c1        1 H5U     -0.112000
     27 C29         2.7520    1.2620    6.3410 c1        1 H5U     -0.156000
     28 F30        -2.7760    7.5450    2.7930 f         1 H5U      0.009000
     29 C31        -3.1400    1.2980   -6.6620 c2        1 H5U      0.168000
     30 N32        -4.0940    0.7840   -5.9520 n3        1 H5U     -0.583000
     31 S33        -5.2860   -0.4490   -6.4210 s6        1 H5U      2.794000
     32 C34        -5.1320   -1.5220   -5.1780 c3        1 H5U     -1.034000
     33 O35        -6.5090    0.2030   -6.4190 o         1 H5U     -0.873000
     34 O36        -4.7740   -0.9390   -7.6190 o         1 H5U     -0.873000
     35 H3         -0.1460   -1.6660   -0.6020 h1        1 H5U      0.147000
     36 HO7         1.2430    0.1460   -1.9760 ho        1 H5U      0.243000
     37 H8          3.3420   -0.7530    5.9920 ha        1 H5U      0.224000
     38 H8A         1.6080   -0.2070    2.7290 hn        1 H5U      0.329000
     39 H11        -0.5310    3.2880    0.8030 ha        1 H5U      0.143500
     40 H12        -1.9720    4.3010    0.2250 ha        1 H5U      0.143500
     41 H13        -3.9550    3.7470    0.6520 ha        1 H5U      0.217000
     42 H22         4.1530   -0.9720    0.9530 hc        1 H5U      0.098667
     43 H22A        3.5650   -1.3710   -0.7250 hc        1 H5U      0.098667
     44 H22B        4.4350   -2.6260    0.2610 hc        1 H5U      0.098667
     45 H23         3.2790   -3.6390    2.3010 hc        1 H5U      0.098667
     46 H23A        3.0550   -1.9640    2.9460 hc        1 H5U      0.098667
     47 H23B        1.6210   -3.0690    2.7610 hc        1 H5U      0.098667
     48 H24         2.5790   -4.2640    0.0630 hc        1 H5U      0.098667
     49 H24A        0.8700   -3.7600    0.4040 hc        1 H5U      0.098667
     50 H24B        1.7520   -3.0810   -1.0380 hc        1 H5U      0.098667
     51 H25        -0.6660    4.2760    4.9050 hc        1 H5U      0.101000
     52 H26        -2.3230    3.5610    4.6830 hc        1 H5U      0.101000
     53 H28         2.6800    3.0840    7.6750 ha        1 H5U      0.243000
     54 H29        -1.1030    3.4660    3.3330 hc        1 H5U      0.101000
     55 H31        -3.0040    0.9790   -7.7220 h4        1 H5U      0.208500
     56 H31A       -4.8580    3.0550   -2.2300 ha        1 H5U      0.132000
     57 HN32       -2.4350    2.0510   -6.2250 h4        1 H5U      0.208500
     58 H34        -4.3730   -2.3300   -5.3610 h1        1 H5U      0.216000
     59 H34A       -4.8520   -1.0950   -4.1640 h1        1 H5U      0.216000
     60 H34B       -6.1000   -2.0620   -4.9680 h1        1 H5U      0.216000
     61 O20        -3.8090    0.4650   -3.0910 o         1 H5U     -1.015500
     62 H322       -4.1520    1.1010   -4.9800 hn        1 H5U      0.308000
     63 O21        -2.3290    1.8950   -4.0360 o         1 H5U     -1.015500
@<TRIPOS>BOND
     1    1    2 1   
     2    1    5 1   
     3    1   19 1   
     4    2    3 1   
     5    2    7 1   
     6    2   35 1   
     7    3    4 1   
     8    3   10 1   
     9    4    5 1   
    10    4   38 1   
    11    5    6 1   
    12    7   36 1   
    13    8    9 1   
    14    9   27 1   
    15    9   37 1   
    16   10   20 1   
    17   10   21 1   
    18   10   22 1   
    19   11   15 1   
    20   11   39 1   
    21   11   40 1   
    22   12   13 1   
    23   13   14 1   
    24   13   41 1   
    25   14   16 1   
    26   14   56 1   
    27   15   16 1   
    28   15   19 1   
    29   16   17 1   
    30   17   18 1   
    31   17   61 1   
    32   17   63 1   
    33   18   19 1   
    34   20   42 1   
    35   20   43 1   
    36   20   44 1   
    37   21   45 1   
    38   21   46 1   
    39   21   47 1   
    40   22   48 1   
    41   22   49 1   
    42   22   50 1   
    43   23   24 1   
    44   23   51 1   
    45   23   52 1   
    46   23   54 1   
    47   24   25 1   
    48   25   28 1   
    49   26   27 1   
    50   26   53 1   
    51   29   30 1   
    52   29   55 1   
    53   29   57 1   
    54   30   31 1   
    55   30   62 1   
    56   31   32 1   
    57   31   33 1   
    58   31   34 1   
    59   32   58 1   
    60   32   59 1   
    61   32   60 1   
@<TRIPOS>SUBSTRUCTURE
     1 H5U         1 TEMP              0 ****  ****    0 ROOT
