@<TRIPOS>MOLECULE
H5W
   52    54     1     0     0
SMALL
bcc


@<TRIPOS>ATOM
      1 F23         0.8150   -1.0830   -0.3770 f         1 H5W     -0.142900
      2 C23         2.0600   -0.5710   -0.5370 ca        1 H5W      0.123900
      3 C24         2.5300    0.4150    0.3500 ca        1 H5W     -0.168000
      4 C25         3.8130    0.9260    0.1740 ca        1 H5W     -0.104000
      5 C26         4.6240    0.4730   -0.8640 ca        1 H5W     -0.138000
      6 C22         2.8700   -1.0300   -1.5910 ca        1 H5W     -0.163000
      7 C21         4.1550   -0.5030   -1.7560 ca        1 H5W     -0.024800
      8 C13         5.0330   -0.9820   -2.8170 ce        1 H5W     -0.139200
      9 C12         4.7790   -0.9680   -4.1290 c2        1 H5W     -0.136200
     10 C11         3.5650   -0.4230   -4.7790 c3        1 H5W     -0.059200
     11 C10         3.0610   -1.3350   -5.8880 c3        1 H5W      0.132400
     12 O09         4.0100   -1.2610   -6.9530 os        1 H5W     -0.425600
     13 C3'         3.6900   -2.1150   -8.0470 c3        1 H5W      0.113100
     14 C2'         2.7190   -1.4050   -9.0260 c3        1 H5W      0.117800
     15 N1'         3.4490   -1.0050  -10.2220 n3        1 H5W     -0.788200
     16 C5'         4.6970   -1.7620  -10.2540 c3        1 H5W      0.140800
     17 C4'         4.9710   -2.3900   -8.8670 c3        1 H5W     -0.081700
     18 C08         6.2190   -1.8300   -8.2140 c3        1 H5W     -0.116700
     19 C06         7.4730   -2.2250   -8.9490 ca        1 H5W      0.451600
     20 N01         7.8700   -3.5150   -8.8960 nb        1 H5W     -0.731000
     21 C02         9.0280   -3.8550   -9.5440 ca        1 H5W      0.632200
     22 N02         9.5220   -5.1630   -9.4120 nh        1 H5W     -0.924500
     23 C03         9.7870   -2.9010  -10.2880 ca        1 H5W     -0.301300
     24 C05         8.1780   -1.2290   -9.6540 ca        1 H5W     -0.295300
     25 C04         9.3510   -1.5790  -10.3330 ca        1 H5W     -0.005300
     26 C07        10.1040   -0.5580  -11.0960 c3        1 H5W     -0.060800
     27 H1          1.8860    0.7660    1.1680 ha        1 H5W      0.148000
     28 H2          4.1880    1.6960    0.8660 ha        1 H5W      0.137000
     29 H3          5.6370    0.8820   -0.9900 ha        1 H5W      0.139000
     30 H4          2.4920   -1.8070   -2.2700 ha        1 H5W      0.150000
     31 H5          6.0000   -1.3750   -2.4520 ha        1 H5W      0.133000
     32 H6          5.5280   -1.3650   -4.8400 ha        1 H5W      0.138000
     33 H7          3.8170    0.5810   -5.2180 hc        1 H5W      0.065200
     34 H8          2.7340   -0.2770   -4.0390 hc        1 H5W      0.065200
     35 H9          2.9730   -2.3950   -5.5300 h1        1 H5W      0.031700
     36 H10         2.0600   -0.9850   -6.2560 h1        1 H5W      0.031700
     37 H11         3.2460   -3.0750   -7.6720 h1        1 H5W      0.051700
     38 H12         1.9180   -2.1270   -9.3430 h1        1 H5W      0.055200
     39 H13         2.2290   -0.5280   -8.5260 h1        1 H5W      0.055200
     40 H14         3.6450   -0.0210  -10.1900 hn        1 H5W      0.348800
     41 H16         4.5720   -2.5790  -11.0160 h1        1 H5W      0.053200
     42 H17         5.5600   -1.1190  -10.5750 h1        1 H5W      0.053200
     43 H18         5.0830   -3.5010   -8.9790 hc        1 H5W      0.075700
     44 H19         6.1520   -0.7110   -8.1710 hc        1 H5W      0.066200
     45 H20         6.2700   -2.1980   -7.1520 hc        1 H5W      0.066200
     46 H21        10.0250   -5.4800  -10.2100 hn        1 H5W      0.400300
     47 H22         8.8820   -5.8340   -9.0470 hn        1 H5W      0.400300
     48 H23        10.7090   -3.2020  -10.8040 ha        1 H5W      0.141000
     49 H24         7.8120   -0.1940   -9.6680 ha        1 H5W      0.141000
     50 H25        11.1450   -0.9020  -11.3160 hc        1 H5W      0.049367
     51 H26         9.5880   -0.3520  -12.0680 hc        1 H5W      0.049367
     52 H27        10.1610    0.3990  -10.5210 hc        1 H5W      0.049367
@<TRIPOS>BOND
     1    1    2 1   
     2    2    3 ar  
     3    2    6 ar  
     4    3    4 ar  
     5    3   27 1   
     6    4    5 ar  
     7    4   28 1   
     8    5    7 ar  
     9    5   29 1   
    10    6    7 ar  
    11    6   30 1   
    12    7    8 1   
    13    8    9 2   
    14    8   31 1   
    15    9   10 1   
    16    9   32 1   
    17   10   11 1   
    18   10   33 1   
    19   10   34 1   
    20   11   12 1   
    21   11   35 1   
    22   11   36 1   
    23   12   13 1   
    24   13   14 1   
    25   13   17 1   
    26   13   37 1   
    27   14   15 1   
    28   14   38 1   
    29   14   39 1   
    30   15   16 1   
    31   15   40 1   
    32   16   17 1   
    33   16   41 1   
    34   16   42 1   
    35   17   18 1   
    36   17   43 1   
    37   18   19 1   
    38   18   44 1   
    39   18   45 1   
    40   19   20 ar  
    41   19   24 ar  
    42   20   21 ar  
    43   21   22 1   
    44   21   23 ar  
    45   22   46 1   
    46   22   47 1   
    47   23   25 ar  
    48   23   48 1   
    49   24   25 ar  
    50   24   49 1   
    51   25   26 1   
    52   26   50 1   
    53   26   51 1   
    54   26   52 1   
@<TRIPOS>SUBSTRUCTURE
     1 H5W         1 TEMP              0 ****  ****    0 ROOT
