@<TRIPOS>MOLECULE
H5W
   53    55     1     0     0
SMALL
bcc


@<TRIPOS>ATOM
      1 F23         0.3840   -0.6920   -0.8760 f         1 H5W     -0.138900
      2 C23         1.7030   -0.4090   -0.7510 ca        1 H5W      0.127900
      3 C24         2.1510    0.3920    0.3150 ca        1 H5W     -0.159000
      4 C25         3.5110    0.6670    0.4310 ca        1 H5W     -0.101000
      5 C26         4.4210    0.1600   -0.4940 ca        1 H5W     -0.135000
      6 C22         2.6150   -0.9200   -1.6920 ca        1 H5W     -0.164000
      7 C21         3.9770   -0.6310   -1.5640 ca        1 H5W     -0.038800
      8 C13         4.9500   -1.1740   -2.5040 ce        1 H5W     -0.114200
      9 C12         4.9280   -1.0510   -3.8350 c2        1 H5W     -0.156200
     10 C11         3.9340   -0.2930   -4.6280 c3        1 H5W     -0.057200
     11 C10         3.3220   -1.1410   -5.7330 c3        1 H5W      0.132400
     12 O09         4.3310   -1.3230   -6.7320 os        1 H5W     -0.430600
     13 C3'         3.8720   -2.0770   -7.8450 c3        1 H5W      0.121100
     14 C2'         2.9610   -1.2270   -8.7680 c3        1 H5W      0.114800
     15 N1'         3.3960   -1.3870  -10.1490 n3        1 H5W     -0.790200
     16 C5'         4.7090   -2.0170  -10.1490 c3        1 H5W      0.147800
     17 C4'         5.0820   -2.4790   -8.7200 c3        1 H5W     -0.080700
     18 C08         6.3680   -1.8430   -8.2270 c3        1 H5W     -0.129700
     19 C06         7.5550   -2.2110   -9.0740 ca        1 H5W      0.473600
     20 N01         8.0660   -3.4570   -8.9850 nb        1 H5W     -0.670000
     21 C02         9.1540   -3.7350   -9.7560 ca        1 H5W      0.444200
     22 N02         9.6990   -5.1070   -9.6270 n4        1 H5W     -0.817300
     23 C03         9.7760   -2.8310  -10.6330 ca        1 H5W     -0.217300
     24 C05         8.1140   -1.2280   -9.9340 ca        1 H5W     -0.198300
     25 C04         9.2260   -1.5360  -10.7180 ca        1 H5W     -0.000300
     26 C07         9.8190   -0.5360  -11.6320 c3        1 H5W     -0.080800
     27 H1          1.4280    0.7860    1.0430 ha        1 H5W      0.155000
     28 H2          3.8690    1.2910    1.2640 ha        1 H5W      0.143000
     29 H3          5.4930    0.3810   -0.3890 ha        1 H5W      0.139000
     30 H4          2.2510   -1.5530   -2.5140 ha        1 H5W      0.145000
     31 H5          5.7770   -1.7270   -2.0210 ha        1 H5W      0.131000
     32 H6          5.7200   -1.5230   -4.4430 ha        1 H5W      0.121000
     33 H7          3.1000    0.0870   -3.9800 hc        1 H5W      0.070700
     34 H8          4.4440    0.5970   -5.0880 hc        1 H5W      0.070700
     35 H9          2.4420   -0.6140   -6.1890 h1        1 H5W      0.038700
     36 H10         2.9970   -2.1420   -5.3440 h1        1 H5W      0.038700
     37 H11         3.3310   -2.9940   -7.4860 h1        1 H5W      0.051700
     38 H12         1.8850   -1.5140   -8.6350 h1        1 H5W      0.066700
     39 H13         3.0720   -0.1400   -8.4960 h1        1 H5W      0.066700
     40 H14         2.7380   -1.9400  -10.6660 hn        1 H5W      0.361800
     41 H16         4.7510   -2.8860  -10.8600 h1        1 H5W      0.041700
     42 H17         5.4480   -1.2470  -10.5090 h1        1 H5W      0.041700
     43 H18         5.1890   -3.5950   -8.6980 hc        1 H5W      0.061700
     44 H19         6.2540   -0.7250   -8.2250 hc        1 H5W      0.093700
     45 H20         6.5430   -2.1590   -7.1610 hc        1 H5W      0.093700
     46 H21         9.9910   -5.2750   -8.6560 hn        1 H5W      0.469133
     47 H22         8.9760   -5.7940   -9.8780 hn        1 H5W      0.469133
     48 H23        10.6560   -3.0940  -11.2390 ha        1 H5W      0.165000
     49 H24         7.6600   -0.2240   -9.9750 ha        1 H5W      0.186000
     50 H25         9.2870   -0.5640  -12.6190 hc        1 H5W      0.075700
     51 H26        10.9030   -0.7410  -11.8120 hc        1 H5W      0.075700
     52 H27         9.7180    0.4960  -11.2120 hc        1 H5W      0.075700
     53 H023       10.5030   -5.2110  -10.2520 hn        1 H5W      0.469133
@<TRIPOS>BOND
     1    1    2 1   
     2    2    3 ar  
     3    2    6 ar  
     4    3    4 ar  
     5    3   27 1   
     6    4    5 ar  
     7    4   28 1   
     8    5    7 ar  
     9    5   29 1   
    10    6    7 ar  
    11    6   30 1   
    12    7    8 1   
    13    8    9 2   
    14    8   31 1   
    15    9   10 1   
    16    9   32 1   
    17   10   11 1   
    18   10   33 1   
    19   10   34 1   
    20   11   12 1   
    21   11   35 1   
    22   11   36 1   
    23   12   13 1   
    24   13   14 1   
    25   13   17 1   
    26   13   37 1   
    27   14   15 1   
    28   14   38 1   
    29   14   39 1   
    30   15   16 1   
    31   15   40 1   
    32   16   17 1   
    33   16   41 1   
    34   16   42 1   
    35   17   18 1   
    36   17   43 1   
    37   18   19 1   
    38   18   44 1   
    39   18   45 1   
    40   19   20 ar  
    41   19   24 ar  
    42   20   21 ar  
    43   21   22 1   
    44   21   23 ar  
    45   22   46 1   
    46   22   47 1   
    47   22   53 1   
    48   23   25 ar  
    49   23   48 1   
    50   24   25 ar  
    51   24   49 1   
    52   25   26 1   
    53   26   50 1   
    54   26   51 1   
    55   26   52 1   
@<TRIPOS>SUBSTRUCTURE
     1 H5W         1 TEMP              0 ****  ****    0 ROOT
