@<TRIPOS>MOLECULE
H5W
   52    54     1     0     0
SMALL
bcc


@<TRIPOS>ATOM
      1 F23         8.3810    1.1810   -0.6540 f         1 H5W     -0.141900
      2 C23         7.6320    0.0960   -0.3390 ca        1 H5W      0.124900
      3 C24         8.2510   -1.0510    0.1880 ca        1 H5W     -0.165000
      4 C25         7.4670   -2.1590    0.5020 ca        1 H5W     -0.105000
      5 C26         6.0900   -2.1350    0.3000 ca        1 H5W     -0.136000
      6 C22         6.2410    0.1280   -0.5440 ca        1 H5W     -0.160000
      7 C21         5.4650   -0.9890   -0.2200 ca        1 H5W     -0.026800
      8 C13         4.0240   -1.0000   -0.4170 ce        1 H5W     -0.121200
      9 C12         3.2550    0.0950   -0.4920 c2        1 H5W     -0.149200
     10 C11         1.7920    0.0400   -0.7200 c3        1 H5W     -0.057200
     11 C10         1.0650    0.9900    0.2190 c3        1 H5W      0.133400
     12 O09        -0.3200    0.9010   -0.1170 os        1 H5W     -0.425600
     13 C3'        -1.1370    1.7680    0.6660 c3        1 H5W      0.113100
     14 C2'        -1.1690    3.1910    0.0480 c3        1 H5W      0.116800
     15 N1'        -2.4570    3.4050   -0.5990 n3        1 H5W     -0.788200
     16 C5'        -3.3830    2.3970   -0.0880 c3        1 H5W      0.139800
     17 C4'        -2.5980    1.2680    0.6210 c3        1 H5W     -0.080700
     18 C08        -2.7440   -0.0670   -0.0800 c3        1 H5W     -0.116700
     19 C06        -4.1530   -0.5950   -0.0070 ca        1 H5W      0.451600
     20 N01        -4.6160   -1.0270    1.1870 nb        1 H5W     -0.731000
     21 C02        -5.8990   -1.5050    1.2400 ca        1 H5W      0.632200
     22 N02        -6.4420   -1.8570    2.4870 nh        1 H5W     -0.923500
     23 C03        -6.7240   -1.5890    0.0780 ca        1 H5W     -0.302300
     24 C05        -4.9160   -0.6340   -1.1910 ca        1 H5W     -0.295300
     25 C04        -6.2200   -1.1420   -1.1420 ca        1 H5W     -0.005300
     26 C07        -7.0510   -1.1910   -2.3660 c3        1 H5W     -0.060800
     27 H1          9.3390   -1.0630    0.3440 ha        1 H5W      0.149000
     28 H2          7.9450   -3.0610    0.9140 ha        1 H5W      0.138000
     29 H3          5.4840   -3.0180    0.5510 ha        1 H5W      0.137000
     30 H4          5.7800    1.0330   -0.9660 ha        1 H5W      0.149000
     31 H5          3.5730   -2.0060   -0.4940 ha        1 H5W      0.130000
     32 H6          3.6800    1.1080   -0.3980 ha        1 H5W      0.125000
     33 H7          1.5710    0.3340   -1.7830 hc        1 H5W      0.064200
     34 H8          1.3910   -0.9990   -0.5760 hc        1 H5W      0.064200
     35 H9          1.2140    0.6890    1.2900 h1        1 H5W      0.030700
     36 H10         1.4220    2.0450    0.0810 h1        1 H5W      0.030700
     37 H11        -0.7610    1.8010    1.7220 h1        1 H5W      0.051700
     38 H12        -1.0720    3.9530    0.8680 h1        1 H5W      0.054700
     39 H13        -0.3180    3.3280   -0.6680 h1        1 H5W      0.054700
     40 H14        -2.3600    3.3070   -1.5940 hn        1 H5W      0.348800
     41 H16        -4.0550    2.9090    0.6550 h1        1 H5W      0.054700
     42 H17        -4.0290    1.9780   -0.9050 h1        1 H5W      0.054700
     43 H18        -2.9670    1.1700    1.6770 hc        1 H5W      0.077700
     44 H19        -2.4430    0.0360   -1.1560 hc        1 H5W      0.066200
     45 H20        -2.0380   -0.8040    0.3920 hc        1 H5W      0.066200
     46 H21        -5.7870   -1.9640    3.2300 hn        1 H5W      0.400300
     47 H22        -7.1110   -2.5920    2.4340 hn        1 H5W      0.400300
     48 H23        -7.7450   -1.9870    0.1450 ha        1 H5W      0.141000
     49 H24        -4.4920   -0.2750   -2.1370 ha        1 H5W      0.141000
     50 H25        -7.5280   -0.1930   -2.5380 hc        1 H5W      0.049367
     51 H26        -6.4260   -1.4380   -3.2600 hc        1 H5W      0.049367
     52 H27        -7.8610   -1.9560   -2.2750 hc        1 H5W      0.049367
@<TRIPOS>BOND
     1    1    2 1   
     2    2    3 ar  
     3    2    6 ar  
     4    3    4 ar  
     5    3   27 1   
     6    4    5 ar  
     7    4   28 1   
     8    5    7 ar  
     9    5   29 1   
    10    6    7 ar  
    11    6   30 1   
    12    7    8 1   
    13    8    9 2   
    14    8   31 1   
    15    9   10 1   
    16    9   32 1   
    17   10   11 1   
    18   10   33 1   
    19   10   34 1   
    20   11   12 1   
    21   11   35 1   
    22   11   36 1   
    23   12   13 1   
    24   13   14 1   
    25   13   17 1   
    26   13   37 1   
    27   14   15 1   
    28   14   38 1   
    29   14   39 1   
    30   15   16 1   
    31   15   40 1   
    32   16   17 1   
    33   16   41 1   
    34   16   42 1   
    35   17   18 1   
    36   17   43 1   
    37   18   19 1   
    38   18   44 1   
    39   18   45 1   
    40   19   20 ar  
    41   19   24 ar  
    42   20   21 ar  
    43   21   22 1   
    44   21   23 ar  
    45   22   46 1   
    46   22   47 1   
    47   23   25 ar  
    48   23   48 1   
    49   24   25 ar  
    50   24   49 1   
    51   25   26 1   
    52   26   50 1   
    53   26   51 1   
    54   26   52 1   
@<TRIPOS>SUBSTRUCTURE
     1 H5W         1 TEMP              0 ****  ****    0 ROOT
