@<TRIPOS>MOLECULE
H5W
   52    54     1     0     0
SMALL
bcc


@<TRIPOS>ATOM
      1 F23         0.8000   -1.0850   -0.3850 f         1 H5W     -0.142900
      2 C23         2.0470   -0.5770   -0.5420 ca        1 H5W      0.123900
      3 C24         2.5180    0.4050    0.3470 ca        1 H5W     -0.168000
      4 C25         3.8030    0.9130    0.1760 ca        1 H5W     -0.104000
      5 C26         4.6150    0.4590   -0.8610 ca        1 H5W     -0.138000
      6 C22         2.8580   -1.0380   -1.5940 ca        1 H5W     -0.163000
      7 C21         4.1450   -0.5140   -1.7550 ca        1 H5W     -0.024800
      8 C13         5.0240   -0.9950   -2.8160 ce        1 H5W     -0.139200
      9 C12         4.7730   -0.9770   -4.1280 c2        1 H5W     -0.136200
     10 C11         3.5630   -0.4260   -4.7800 c3        1 H5W     -0.059200
     11 C10         3.0600   -1.3320   -5.8940 c3        1 H5W      0.132400
     12 O09         4.0110   -1.2570   -6.9550 os        1 H5W     -0.425600
     13 C3'         3.6920   -2.1050   -8.0540 c3        1 H5W      0.113100
     14 C2'         2.7260   -1.3870   -9.0330 c3        1 H5W      0.117800
     15 N1'         3.4610   -0.9840  -10.2250 n7        1 H5W     -0.788200
     16 C5'         4.7070   -1.7450  -10.2560 c3        1 H5W      0.140800
     17 C4'         4.9740   -2.3810   -8.8720 c3        1 H5W     -0.080700
     18 C08         6.2230   -1.8300   -8.2130 c3        1 H5W     -0.116700
     19 C06         7.4760   -2.2250   -8.9470 ca        1 H5W      0.451600
     20 N01         7.8680   -3.5180   -8.8990 nb        1 H5W     -0.731000
     21 C02         9.0270   -3.8580   -9.5460 ca        1 H5W      0.632200
     22 N02         9.5150   -5.1700   -9.4190 nv        1 H5W     -0.924500
     23 C03         9.7920   -2.9040  -10.2820 ca        1 H5W     -0.301300
     24 C05         8.1880   -1.2290   -9.6440 ca        1 H5W     -0.295300
     25 C04         9.3610   -1.5800  -10.3220 ca        1 H5W     -0.005300
     26 C07        10.1210   -0.5580  -11.0770 c3        1 H5W     -0.060800
     27 H1          1.8730    0.7580    1.1650 ha        1 H5W      0.148000
     28 H2          4.1800    1.6810    0.8690 ha        1 H5W      0.137000
     29 H3          5.6300    0.8640   -0.9840 ha        1 H5W      0.139000
     30 H4          2.4790   -1.8120   -2.2760 ha        1 H5W      0.150000
     31 H5          5.9880   -1.3920   -2.4490 ha        1 H5W      0.133000
     32 H6          5.5220   -1.3750   -4.8380 ha        1 H5W      0.138000
     33 H7          2.7310   -0.2800   -4.0420 hc        1 H5W      0.065200
     34 H8          3.8190    0.5790   -5.2150 hc        1 H5W      0.065200
     35 H9          2.0610   -0.9780   -6.2640 h1        1 H5W      0.031700
     36 H10         2.9680   -2.3930   -5.5400 h1        1 H5W      0.031700
     37 H11         3.2430   -3.0650   -7.6850 h1        1 H5W      0.051700
     38 H12         2.2380   -0.5100   -8.5300 h1        1 H5W      0.055200
     39 H13         1.9240   -2.1040   -9.3560 h1        1 H5W      0.055200
     40 H14         3.6610   -0.0010  -10.1870 hn        1 H5W      0.348800
     41 H16         4.5800   -2.5580  -11.0230 h1        1 H5W      0.053200
     42 H17         5.5730   -1.1040  -10.5720 h1        1 H5W      0.053200
     43 H18         5.0820   -3.4920   -8.9900 hc        1 H5W      0.075700
     44 H19         6.2690   -2.2020   -7.1530 hc        1 H5W      0.066200
     45 H20         6.1600   -0.7100   -8.1650 hc        1 H5W      0.066200
     46 H21         8.8710   -5.8400   -9.0600 hn        1 H5W      0.400300
     47 H22        10.0190   -5.4840  -10.2170 hn        1 H5W      0.400300
     48 H23        10.7140   -3.2060  -10.7970 ha        1 H5W      0.141000
     49 H24         7.8270   -0.1920   -9.6540 ha        1 H5W      0.141000
     50 H25        10.1840    0.3950  -10.4950 hc        1 H5W      0.049367
     51 H26         9.6060   -0.3420  -12.0470 hc        1 H5W      0.049367
     52 H27        11.1590   -0.9060  -11.3000 hc        1 H5W      0.049367
@<TRIPOS>BOND
     1    1    2 1   
     2    2    3 ar  
     3    2    6 ar  
     4    3    4 ar  
     5    3   27 1   
     6    4    5 ar  
     7    4   28 1   
     8    5    7 ar  
     9    5   29 1   
    10    6    7 ar  
    11    6   30 1   
    12    7    8 1   
    13    8    9 2   
    14    8   31 1   
    15    9   10 1   
    16    9   32 1   
    17   10   11 1   
    18   10   33 1   
    19   10   34 1   
    20   11   12 1   
    21   11   35 1   
    22   11   36 1   
    23   12   13 1   
    24   13   14 1   
    25   13   17 1   
    26   13   37 1   
    27   14   15 1   
    28   14   38 1   
    29   14   39 1   
    30   15   16 1   
    31   15   40 1   
    32   16   17 1   
    33   16   41 1   
    34   16   42 1   
    35   17   18 1   
    36   17   43 1   
    37   18   19 1   
    38   18   44 1   
    39   18   45 1   
    40   19   20 ar  
    41   19   24 ar  
    42   20   21 ar  
    43   21   22 1   
    44   21   23 ar  
    45   22   46 1   
    46   22   47 1   
    47   23   25 ar  
    48   23   48 1   
    49   24   25 ar  
    50   24   49 1   
    51   25   26 1   
    52   26   50 1   
    53   26   51 1   
    54   26   52 1   
@<TRIPOS>SUBSTRUCTURE
     1 H5W         1 TEMP              0 ****  ****    0 ROOT
