@<TRIPOS>MOLECULE
H5W
   52    45     1     0     0
SMALL
bcc


@<TRIPOS>ATOM
      1 F23        -3.1070    1.0540    7.6150 f         1 H5W     -0.108000
      2 C23        -2.0820    0.5370    6.9470 c1        1 H5W      0.089000
      3 C24        -0.7890    1.0290    7.1570 c1        1 H5W     -0.137250
      4 C25         0.2760    0.5150    6.4330 c1        1 H5W     -0.137250
      5 C26         0.0600   -0.4890    5.4990 c1        1 H5W     -0.186000
      6 C22        -2.2980   -0.4630    6.0160 c1        1 H5W     -0.159000
      7 C21        -1.2280   -0.9810    5.2880 c1        1 H5W     -0.008000
      8 C13        -1.4360   -2.2110    4.4030 c1        1 H5W     -0.137250
      9 C12        -1.5550   -2.0680    3.0580 c1        1 H5W     -0.137250
     10 C11        -1.4820   -0.6690    2.4250 c2        1 H5W     -0.144000
     11 C10        -2.2140   -0.6810    1.0400 c3        1 H5W     -0.018000
     12 O09        -1.2860   -0.2840   -0.0040 os        1 H5W     -0.273000
     13 C3'        -1.7920   -0.5450   -1.4000 c3        1 H5W      0.005000
     14 C2'        -2.7100    0.2820   -1.6940 c3        1 H5W     -0.124000
     15 N1'        -2.5630    0.5810   -3.2620 n3        1 H5W     -0.266000
     16 C5'        -1.2970    0.6090   -3.5040 c3        1 H5W     -0.096000
     17 C4'        -0.6690   -0.2850   -2.4390 c3        1 H5W     -0.118000
     18 C08         0.4560    0.3920   -1.8070 c3        1 H5W     -0.098000
     19 C06         1.6770    0.3450   -2.7400 c1        1 H5W      0.028000
     20 N01         1.9310   -0.7670   -3.4700 n1        1 H5W     -0.206000
     21 C02         2.9950   -0.7960   -4.3200 c1        1 H5W      0.108000
     22 N02         3.3060   -1.9940   -5.0400 n3        1 H5W     -0.320000
     23 C03         3.8170    0.3110   -4.4360 c1        1 H5W     -0.186000
     24 C05         2.5030    1.4570   -2.8560 c1        1 H5W     -0.226000
     25 C04         3.5610    1.4300   -3.7000 c1        1 H5W     -0.008000
     26 C07         4.3740    2.6950   -3.9350 c2        1 H5W     -0.186000
     27 H1         -0.6390    1.7270    7.8050 ha        1 H5W      0.134500
     28 H2          1.1670    0.8550    6.5800 ha        1 H5W      0.134500
     29 H3          0.7980   -0.8450    4.9980 ha        1 H5W      0.141000
     30 H4         -3.1880   -0.8030    5.8710 ha        1 H5W      0.149000
     31 H5         -1.4810   -3.0980    4.8050 ha        1 H5W      0.134500
     32 H6         -1.6880   -2.8560    2.4910 ha        1 H5W      0.134500
     33 H7         -0.5450   -0.4180    2.2960 ha        1 H5W      0.107500
     34 H8         -1.9160   -0.0190    3.0190 ha        1 H5W      0.107500
     35 H9         -2.9800   -0.0410    1.0640 h1        1 H5W      0.069500
     36 H10        -2.5510   -1.5890    0.8520 h1        1 H5W      0.069500
     37 H11        -2.1250   -1.4710   -1.4780 h1        1 H5W      0.081000
     38 H12        -2.5930    1.1130   -1.1790 h1        1 H5W      0.095000
     39 H13        -3.5950   -0.1130   -1.5060 h1        1 H5W      0.095000
     40 H14        -2.9430   -0.0860   -3.7310 hn        1 H5W      0.141000
     41 H16        -0.9580    1.5200   -3.4230 h1        1 H5W      0.095000
     42 H17        -1.1100    0.2500   -4.4110 h1        1 H5W      0.095000
     43 H18        -0.3730   -1.1340   -2.8390 hc        1 H5W      0.110000
     44 H19         0.6700   -0.0510   -0.9720 hc        1 H5W      0.108000
     45 H20         0.2120    1.3440   -1.6260 hc        1 H5W      0.108000
     46 H21         3.9550   -1.9830   -5.7010 hn        1 H5W      0.194000
     47 H22         2.8760   -2.7650   -4.8440 hn        1 H5W      0.194000
     48 H23         4.5930    0.2900   -5.0550 ha        1 H5W      0.141000
     49 H24         2.3170    2.2710   -2.3200 ha        1 H5W      0.144000
     50 H25         3.9240    3.2540   -4.6090 ha        1 H5W      0.088667
     51 H26         4.4500    3.1920   -3.1000 ha        1 H5W      0.088667
     52 H27         5.2780    2.4520   -4.2580 ha        1 H5W      0.088667
@<TRIPOS>BOND
     1    1    2 1   
     2    2    6 1   
     3    3    4 1   
     4    3   27 1   
     5    4   28 1   
     6    5    7 1   
     7    5   29 1   
     8    6   30 1   
     9    8    9 1   
    10    8   31 1   
    11    9   32 1   
    12   10   11 1   
    13   10   33 1   
    14   10   34 1   
    15   11   12 1   
    16   11   35 1   
    17   11   36 1   
    18   12   13 1   
    19   13   14 1   
    20   13   17 1   
    21   13   37 1   
    22   14   15 1   
    23   14   38 1   
    24   14   39 1   
    25   15   16 1   
    26   15   40 1   
    27   16   17 1   
    28   16   41 1   
    29   16   42 1   
    30   17   18 1   
    31   17   43 1   
    32   18   19 1   
    33   18   44 1   
    34   18   45 1   
    35   19   24 1   
    36   20   21 1   
    37   21   22 1   
    38   22   46 1   
    39   22   47 1   
    40   23   25 1   
    41   23   48 1   
    42   24   49 1   
    43   26   50 1   
    44   26   51 1   
    45   26   52 1   
@<TRIPOS>SUBSTRUCTURE
     1 H5W         1 TEMP              0 ****  ****    0 ROOT
