@<TRIPOS>MOLECULE
H64
   49    52     1     0     0
SMALL
bcc


@<TRIPOS>ATOM
      1 C97        -6.0780    3.4320    0.4830 c3        1 H64     -0.094600
      2 C95        -6.3800    1.9480    0.6950 c3        1 H64      0.176500
      3 C96        -7.8300    1.6800    0.2890 c3        1 H64     -0.094600
      4 N94        -5.4440    1.0930   -0.0350 n3        1 H64     -0.822200
      5 C93        -4.1690    0.9330    0.6330 c3        1 H64      0.167800
      6 C92        -3.2770   -0.1090   -0.0420 c3        1 H64     -0.106400
      7 C91        -1.9370   -0.1520    0.6950 c3        1 H64      0.037300
      8 N9         -1.0050   -1.1210    0.1910 na        1 H64     -0.223000
      9 C4         -1.1060   -2.5060    0.3270 ca        1 H64      0.464800
     10 N3         -1.9850   -3.2780    1.0430 nb        1 H64     -0.739000
     11 C2         -1.7230   -4.5990    0.9350 ca        1 H64      0.697900
     12 N1         -0.7510   -5.2530    0.2400 nb        1 H64     -0.804000
     13 C6          0.1350   -4.4910   -0.4820 ca        1 H64      0.774200
     14 N6          1.1490   -5.0700   -1.1940 nh        1 H64     -0.955500
     15 C5         -0.0130   -3.0580   -0.4690 ca        1 H64     -0.244200
     16 N7          0.6910   -2.0290   -1.0850 nc        1 H64     -0.486100
     17 C8          0.0880   -0.8820   -0.6970 cd        1 H64      0.304700
     18 S           0.4920    0.6830   -1.2270 ss        1 H64      0.025900
     19 C1'         1.9560    1.0810   -0.4680 ca        1 H64     -0.008100
     20 C6'         2.6420    0.2650    0.4550 ca        1 H64     -0.108000
     21 C5'         3.8180    0.7660    0.9690 ca        1 H64      0.084100
     22 O3'         4.6820    0.1800    1.8840 os        1 H64     -0.327900
     23 C'2         5.7690    1.1140    2.0920 c3        1 H64      0.320200
     24 O1'         5.5150    2.2790    1.2720 os        1 H64     -0.328900
     25 C4'         4.3230    2.0410    0.5980 ca        1 H64      0.046100
     26 C3'         3.6620    2.8520   -0.3000 ca        1 H64     -0.071000
     27 C2'         2.4610    2.3410   -0.8270 ca        1 H64     -0.040900
     28 BR          1.4860    3.3720   -2.0510 br        1 H64     -0.055100
     29 H971       -6.1600    3.7030   -0.5970 hc        1 H64      0.039200
     30 H972       -6.8130    4.0390    1.0630 hc        1 H64      0.039200
     31 H973       -5.0500    3.6850    0.8360 hc        1 H64      0.039200
     32 H95        -6.3040    1.7480    1.8120 h1        1 H64      0.016700
     33 H961       -7.9820    1.8830   -0.7980 hc        1 H64      0.039200
     34 H962       -8.1160    0.6220    0.4990 hc        1 H64      0.039200
     35 H963       -8.5020    2.3510    0.8750 hc        1 H64      0.039200
     36 H94        -5.8620    0.1990   -0.2120 hn        1 H64      0.360800
     37 H931       -3.6500    1.9330    0.6090 h1        1 H64      0.030200
     38 H932       -4.2870    0.6470    1.7220 h1        1 H64      0.030200
     39 H921       -3.7650   -1.1190   -0.0070 hc        1 H64      0.065200
     40 H922       -3.1200    0.1580   -1.1190 hc        1 H64      0.065200
     41 H911       -1.4440    0.8620    0.6270 h1        1 H64      0.075700
     42 H912       -2.1240   -0.3950    1.7820 h1        1 H64      0.075700
     43 H2         -2.4100   -5.2670    1.5000 h5        1 H64      0.053100
     44 HN61        1.7450   -4.4960   -1.7350 hn        1 H64      0.451800
     45 HN62        1.2430   -6.0550   -1.2320 hn        1 H64      0.451800
     46 H6'         2.2630   -0.7240    0.7480 ha        1 H64      0.173000
     47 H'21        5.7680    1.4260    3.1660 h2        1 H64      0.076700
     48 H'22        6.7200    0.6360    1.7500 h2        1 H64      0.076700
     49 H3'         4.0520    3.8380   -0.5890 ha        1 H64      0.171000
@<TRIPOS>BOND
     1    1    2 1   
     2    1   29 1   
     3    1   30 1   
     4    1   31 1   
     5    2    3 1   
     6    2    4 1   
     7    2   32 1   
     8    3   33 1   
     9    3   34 1   
    10    3   35 1   
    11    4    5 1   
    12    4   36 1   
    13    5    6 1   
    14    5   37 1   
    15    5   38 1   
    16    6    7 1   
    17    6   39 1   
    18    6   40 1   
    19    7    8 1   
    20    7   41 1   
    21    7   42 1   
    22    8    9 1   
    23    8   17 1   
    24    9   10 ar  
    25    9   15 ar  
    26   10   11 ar  
    27   11   12 ar  
    28   11   43 1   
    29   12   13 ar  
    30   13   14 1   
    31   13   15 ar  
    32   14   44 1   
    33   14   45 1   
    34   15   16 1   
    35   16   17 2   
    36   17   18 1   
    37   18   19 1   
    38   19   20 ar  
    39   19   27 ar  
    40   20   21 ar  
    41   20   46 1   
    42   21   22 1   
    43   21   25 ar  
    44   22   23 1   
    45   23   24 1   
    46   23   47 1   
    47   23   48 1   
    48   24   25 1   
    49   25   26 ar  
    50   26   27 ar  
    51   26   49 1   
    52   27   28 1   
@<TRIPOS>SUBSTRUCTURE
     1 H64         1 TEMP              0 ****  ****    0 ROOT
