@<TRIPOS>MOLECULE
H64
   49    45     1     0     0
SMALL
bcc


@<TRIPOS>ATOM
      1 C97        -5.9480    1.6680    1.6290 c3        1 H64     -0.228000
      2 C95        -4.8820    1.3910    2.6950 c3        1 H64     -0.025000
      3 C96        -5.5650    1.0770    4.0320 c3        1 H64     -0.228000
      4 N94        -4.0750    0.2620    2.2890 n3        1 H64     -0.298000
      5 C93        -2.7550    0.7210    1.9180 c3        1 H64     -0.069000
      6 C92        -1.8490   -0.4940    1.6380 c3        1 H64     -0.185000
      7 C91        -0.4220   -0.0070    1.3160 c3        1 H64     -0.006000
      8 N9          0.3190   -1.0740    0.6810 n3        1 H64     -0.202000
      9 C4          0.7100   -2.3520    0.9550 c1        1 H64      0.088000
     10 N3          0.2590   -3.2740    1.8560 n1        1 H64     -0.266000
     11 C2          0.8420   -4.5100    1.9220 c1        1 H64      0.010000
     12 N1          1.8780   -4.8240    1.0850 n1        1 H64     -0.239000
     13 C6          2.3250   -3.9180    0.1960 c1        1 H64      0.198000
     14 N6          3.3600   -4.5870   -0.5310 n3        1 H64     -0.343000
     15 C5          1.7340   -2.6620    0.1280 c1        1 H64     -0.210000
     16 N7          1.9810   -1.5770   -0.6610 n1        1 H64     -0.266000
     17 C8          1.1060   -0.6000   -0.3170 c1        1 H64      0.088000
     18 S           2.6590   -0.8780   -1.1620 s         1 H64      0.477000
     19 C1'         2.9950    0.4900   -2.2570 c2        1 H64     -0.283000
     20 C6'         4.2510    1.0960   -2.2440 c2        1 H64     -0.081000
     21 C5'         4.5700    2.0730   -3.2010 c1        1 H64      0.021000
     22 O3'         5.7930    2.7480   -3.5010 o         1 H64     -0.211000
     23 C'2         5.6120    3.4630   -4.6940 c3        1 H64      0.098000
     24 O1'         4.2650    3.3390   -5.0690 os        1 H64     -0.211000
     25 C4'         3.6360    2.4350   -4.1610 c2        1 H64      0.027000
     26 C3'         2.3710    1.8250   -4.1740 c1        1 H64     -0.097000
     27 C2'         2.0540    0.8560   -3.2240 c1        1 H64     -0.141000
     28 BR          0.3640   -0.0370   -3.2970 br        1 H64      0.070000
     29 H971       -6.4640    2.4670    1.8810 hc        1 H64      0.077500
     30 H972       -5.5120    1.8190    0.7610 hc        1 H64      0.077500
     31 H973       -6.5530    0.8950    1.5620 hc        1 H64      0.077500
     32 H95        -4.3090    2.1830    2.7980 h1        1 H64      0.094000
     33 H961       -6.1140    1.8450    4.3080 hc        1 H64      0.077500
     34 H962       -6.1370    0.2840    3.9300 hc        1 H64      0.077500
     35 H963       -4.8820    0.9010    4.7150 hc        1 H64      0.077500
     36 H94        -4.4690   -0.1530    1.5710 hn        1 H64      0.153000
     37 H931       -2.8170    1.2760    1.1090 h1        1 H64      0.069000
     38 H932       -2.3740    1.2520    2.6520 h1        1 H64      0.069000
     39 H921       -2.2040   -0.9980    0.8730 hc        1 H64      0.102500
     40 H922       -1.8260   -1.0750    2.4320 hc        1 H64      0.102500
     41 H911        0.0300    0.2560    2.1480 h1        1 H64      0.109500
     42 H912       -0.4690    0.7660    0.7100 h1        1 H64      0.109500
     43 H2          0.5170   -5.1710    2.5690 ha        1 H64      0.194000
     44 HN61        3.1460   -5.2460   -1.1300 hn        1 H64      0.230500
     45 HN62        4.2370   -4.3630   -0.3900 hn        1 H64      0.230500
     46 H6'         4.9090    0.8460   -1.5610 ha        1 H64      0.175000
     47 H'21        6.1790    3.0720   -5.3940 h2        1 H64      0.117500
     48 H'22        5.8170    4.4110   -4.5370 h2        1 H64      0.117500
     49 H3'         1.7100    2.0810   -4.8530 ha        1 H64      0.172000
@<TRIPOS>BOND
     1    1    2 1   
     2    1   29 1   
     3    1   30 1   
     4    1   31 1   
     5    2    3 1   
     6    2    4 1   
     7    2   32 1   
     8    3   33 1   
     9    3   34 1   
    10    3   35 1   
    11    4    5 1   
    12    4   36 1   
    13    5    6 1   
    14    5   37 1   
    15    5   38 1   
    16    6    7 1   
    17    6   39 1   
    18    6   40 1   
    19    7    8 1   
    20    7   41 1   
    21    7   42 1   
    22    8    9 1   
    23    8   17 1   
    24    9   10 1   
    25   11   12 1   
    26   11   43 1   
    27   13   14 1   
    28   13   15 1   
    29   14   44 1   
    30   14   45 1   
    31   16   17 1   
    32   18   19 1   
    33   19   20 1   
    34   19   27 1   
    35   20   21 1   
    36   20   46 1   
    37   21   25 1   
    38   22   23 1   
    39   23   24 1   
    40   23   47 1   
    41   23   48 1   
    42   24   25 1   
    43   25   26 1   
    44   26   49 1   
    45   27   28 1   
@<TRIPOS>SUBSTRUCTURE
     1 H64         1 TEMP              0 ****  ****    0 ROOT
