@<TRIPOS>MOLECULE
H64
   50    53     1     0     0
SMALL
bcc


@<TRIPOS>ATOM
      1 C97         0.2740   -0.4590    0.3810 c3        1 H64     -0.135600
      2 C95         1.3990    0.1910   -0.4120 c3        1 H64      0.132500
      3 C96         2.1600    1.1780    0.4640 c3        1 H64     -0.135600
      4 N94         2.3420   -0.8440   -0.9870 ny        1 H64     -0.769000
      5 C93         1.8160   -1.4800   -2.2310 c3        1 H64      0.106800
      6 C92         2.7500   -2.5590   -2.7590 c3        1 H64     -0.141400
      7 C91         2.1960   -3.0650   -4.1010 c3        1 H64      0.058300
      8 N9          3.0800   -3.9450   -4.7920 na        1 H64     -0.259000
      9 C4          4.3120   -3.5940   -5.3540 ca        1 H64      0.469800
     10 N3          4.9470   -2.3850   -5.4270 nb        1 H64     -0.781000
     11 C2          6.1310   -2.4640   -6.0870 ca        1 H64      0.713900
     12 N1          6.7520   -3.5290   -6.6500 nb        1 H64     -0.789000
     13 C6          6.1270   -4.7570   -6.5700 ca        1 H64      0.785200
     14 N6          6.6940   -5.8720   -7.1050 nv        1 H64     -0.935500
     15 C5          4.8540   -4.8340   -5.8970 ca        1 H64     -0.247200
     16 N7          3.9820   -5.8890   -5.6360 nc        1 H64     -0.456100
     17 C8          2.9350   -5.3620   -4.9730 cd        1 H64      0.314700
     18 S           1.6130   -6.2060   -4.3180 ss        1 H64     -0.004100
     19 C1'         0.5850   -6.5790   -5.6220 ca        1 H64     -0.016100
     20 C6'         0.8430   -6.2800   -6.9740 ca        1 H64     -0.109000
     21 C5'        -0.1150   -6.6730   -7.8840 ca        1 H64      0.088100
     22 O3'        -0.1190   -6.5070   -9.2610 os        1 H64     -0.324900
     23 C'2        -1.3420   -7.1100   -9.7540 c3        1 H64      0.320200
     24 O1'        -2.0740   -7.6170   -8.6110 os        1 H64     -0.320900
     25 C4'        -1.3030   -7.3470   -7.4890 ca        1 H64      0.061100
     26 C3'        -1.5660   -7.6470   -6.1680 ca        1 H64     -0.071000
     27 C2'        -0.5910   -7.2420   -5.2390 ca        1 H64     -0.033900
     28 Br         -0.8460   -7.6010   -3.4160 br        1 H64     -0.056100
     29 H971       -0.4140    0.3500    0.7370 hc        1 H64      0.079700
     30 H972        0.6650   -1.0010    1.2770 hc        1 H64      0.079700
     31 H973       -0.3200   -1.1670   -0.2450 hc        1 H64      0.079700
     32 H95         0.9620    0.7450   -1.2990 hx        1 H64      0.108700
     33 H961        1.4380    1.9560    0.8200 hc        1 H64      0.079700
     34 H962        2.5990    0.6760    1.3600 hc        1 H64      0.079700
     35 H963        2.9710    1.6960   -0.1040 hc        1 H64      0.079700
     36 H94         2.5110   -1.5700   -0.2810 hn        1 H64      0.450300
     37 H931        1.6860   -0.6680   -3.0040 hx        1 H64      0.107200
     38 H932        0.8040   -1.9190   -1.9960 hx        1 H64      0.107200
     39 H921        2.8200   -3.4110   -2.0330 hc        1 H64      0.084200
     40 H922        3.7840   -2.1460   -2.9120 hc        1 H64      0.084200
     41 H911        1.2270   -3.6170   -3.9180 h1        1 H64      0.082200
     42 H912        1.9950   -2.1740   -4.7670 h1        1 H64      0.082200
     43 H2          6.6840   -1.5030   -6.1860 h5        1 H64      0.059100
     44 HN61        7.5640   -5.8240   -7.5790 hn        1 H64      0.460800
     45 HN62        6.2160   -6.7380   -7.0430 hn        1 H64      0.460800
     46 H6'         1.7620   -5.7720   -7.2930 ha        1 H64      0.171000
     47 H'21       -1.0730   -7.9700  -10.4160 h2        1 H64      0.085200
     48 H'22       -1.9560   -6.3170  -10.2460 h2        1 H64      0.085200
     49 H3'        -2.4810   -8.1740   -5.8630 ha        1 H64      0.179000
     50 H942        3.2410   -0.3940   -1.1980 hn        1 H64      0.450300
@<TRIPOS>BOND
     1    1    2 1   
     2    1   29 1   
     3    1   30 1   
     4    1   31 1   
     5    2    3 1   
     6    2    4 1   
     7    2   32 1   
     8    3   33 1   
     9    3   34 1   
    10    3   35 1   
    11    4    5 1   
    12    4   36 1   
    13    4   50 1   
    14    5    6 1   
    15    5   37 1   
    16    5   38 1   
    17    6    7 1   
    18    6   39 1   
    19    6   40 1   
    20    7    8 1   
    21    7   41 1   
    22    7   42 1   
    23    8    9 1   
    24    8   17 1   
    25    9   10 ar  
    26    9   15 ar  
    27   10   11 ar  
    28   11   12 ar  
    29   11   43 1   
    30   12   13 ar  
    31   13   14 1   
    32   13   15 ar  
    33   14   44 1   
    34   14   45 1   
    35   15   16 1   
    36   16   17 2   
    37   17   18 1   
    38   18   19 1   
    39   19   20 ar  
    40   19   27 ar  
    41   20   21 ar  
    42   20   46 1   
    43   21   22 1   
    44   21   25 ar  
    45   22   23 1   
    46   23   24 1   
    47   23   47 1   
    48   23   48 1   
    49   24   25 1   
    50   25   26 ar  
    51   26   27 ar  
    52   26   49 1   
    53   27   28 1   
@<TRIPOS>SUBSTRUCTURE
     1 H64         1 TEMP              0 ****  ****    0 ROOT
