@<TRIPOS>MOLECULE
H64
   51    54     1     0     0
SMALL
bcc


@<TRIPOS>ATOM
      1 C97        -0.0020   -0.0470    0.2270 c3        1 H64     -0.138600
      2 C95         1.4690    0.2680    0.0020 c3        1 H64      0.137500
      3 C96         2.1310    0.6650    1.3140 c3        1 H64     -0.138600
      4 N94         2.1980   -0.9120   -0.6190 n4        1 H64     -0.771000
      5 C93         1.9840   -1.0090   -2.0900 c3        1 H64      0.103800
      6 C92         2.6670   -2.2270   -2.7050 c3        1 H64     -0.135400
      7 C91         2.4160   -2.2030   -4.2200 c3        1 H64      0.055300
      8 N9          3.0620   -3.2640   -4.9370 na        1 H64     -0.268000
      9 C4          4.4250   -3.3140   -5.2820 ca        1 H64      0.451800
     10 N3          5.4650   -2.5200   -4.9520 nb        1 H64     -0.648000
     11 C2          6.6530   -2.9110   -5.5020 ca        1 H64      0.669900
     12 N1          6.9030   -3.9720   -6.3110 nb        1 H64     -0.661000
     13 C6          5.8450   -4.7670   -6.6320 ca        1 H64      0.497200
     14 N6          6.0580   -5.9270   -7.5150 n4        1 H64     -0.811300
     15 C5          4.5490   -4.5070   -6.1510 ca        1 H64     -0.089200
     16 N7          3.3130   -5.1240   -6.3060 nc        1 H64     -0.598100
     17 C8          2.4360   -4.3730   -5.5820 cd        1 H64      0.450700
     18 S           0.7810   -4.6320   -5.3930 ss        1 H64      0.063900
     19 C1'         0.3860   -6.0240   -6.2640 ca        1 H64     -0.110100
     20 C6'        -0.2030   -5.8190   -7.5340 ca        1 H64     -0.051000
     21 C5'        -0.6930   -6.9320   -8.1780 ca        1 H64      0.055100
     22 O3'        -1.3220   -7.0190   -9.4090 os        1 H64     -0.314900
     23 C'2        -1.6620   -8.4150   -9.6130 c3        1 H64      0.319200
     24 O1'        -1.1670   -9.1510   -8.4580 os        1 H64     -0.303900
     25 C4'        -0.5990   -8.2330   -7.6040 ca        1 H64      0.136100
     26 C3'        -0.0070   -8.4470   -6.3720 ca        1 H64     -0.116000
     27 C2'         0.4920   -7.3100   -5.7110 ca        1 H64      0.055100
     28 BR          1.3050   -7.5670   -4.0420 br        1 H64     -0.051100
     29 H971       -0.1380   -0.8740    0.9670 hc        1 H64      0.084367
     30 H972       -0.5220   -0.3150   -0.7250 hc        1 H64      0.084367
     31 H973       -0.4950    0.8710    0.6420 hc        1 H64      0.084367
     32 H95         1.5660    1.1210   -0.7370 hx        1 H64      0.108700
     33 H961        2.0470   -0.1440    2.0810 hc        1 H64      0.084367
     34 H962        1.6030    1.5720    1.7090 hc        1 H64      0.084367
     35 H963        3.2080    0.9310    1.1740 hc        1 H64      0.084367
     36 H94         3.2030   -0.8140   -0.4280 hn        1 H64      0.451800
     37 H931        2.3860   -0.0640   -2.5610 hx        1 H64      0.111200
     38 H932        0.8710   -1.0540   -2.2750 hx        1 H64      0.111200
     39 H921        3.7720   -2.2010   -2.5060 hc        1 H64      0.085200
     40 H922        2.2580   -3.1740   -2.2630 hc        1 H64      0.085200
     41 H911        1.3040   -2.2800   -4.4150 h1        1 H64      0.090700
     42 H912        2.7880   -1.2190   -4.6350 h1        1 H64      0.090700
     43 H2          7.5370   -2.2760   -5.2580 h5        1 H64      0.103100
     44 HN61        5.6110   -5.7370   -8.4210 hn        1 H64      0.481133
     45 HN62        5.6190   -6.7520   -7.0870 hn        1 H64      0.481133
     46 H6'        -0.2780   -4.8150   -7.9760 ha        1 H64      0.176000
     47 H'21       -2.7760   -8.5140   -9.6450 h2        1 H64      0.102700
     48 H'22       -1.1280   -8.7850  -10.5220 h2        1 H64      0.102700
     49 H3'         0.0580   -9.4560   -5.9360 ha        1 H64      0.194000
     50 H942        1.8730   -1.7750   -0.1680 hn        1 H64      0.451800
     51 H63         7.0630   -6.1030   -7.6600 hn        1 H64      0.481133
@<TRIPOS>BOND
     1    1    2 1   
     2    1   29 1   
     3    1   30 1   
     4    1   31 1   
     5    2    3 1   
     6    2    4 1   
     7    2   32 1   
     8    3   33 1   
     9    3   34 1   
    10    3   35 1   
    11    4    5 1   
    12    4   36 1   
    13    4   50 1   
    14    5    6 1   
    15    5   37 1   
    16    5   38 1   
    17    6    7 1   
    18    6   39 1   
    19    6   40 1   
    20    7    8 1   
    21    7   41 1   
    22    7   42 1   
    23    8    9 1   
    24    8   17 1   
    25    9   10 ar  
    26    9   15 ar  
    27   10   11 ar  
    28   11   12 ar  
    29   11   43 1   
    30   12   13 ar  
    31   13   14 1   
    32   13   15 ar  
    33   14   44 1   
    34   14   45 1   
    35   14   51 1   
    36   15   16 1   
    37   16   17 2   
    38   17   18 1   
    39   18   19 1   
    40   19   20 ar  
    41   19   27 ar  
    42   20   21 ar  
    43   20   46 1   
    44   21   22 1   
    45   21   25 ar  
    46   22   23 1   
    47   23   24 1   
    48   23   47 1   
    49   23   48 1   
    50   24   25 1   
    51   25   26 ar  
    52   26   27 ar  
    53   26   49 1   
    54   27   28 1   
@<TRIPOS>SUBSTRUCTURE
     1 H64         1 TEMP              0 ****  ****    0 ROOT
