@<TRIPOS>MOLECULE
H64
   50    53     1     0     0
SMALL
bcc


@<TRIPOS>ATOM
      1 C97         0.2620   -0.4400    0.3650 c3        1 H64     -0.135600
      2 C95         1.4010    0.1980   -0.4170 c3        1 H64      0.132500
      3 C96         2.1650    1.1750    0.4670 c3        1 H64     -0.135600
      4 N94         2.3390   -0.8480   -0.9820 n4        1 H64     -0.769000
      5 C93         1.8180   -1.4770   -2.2310 c3        1 H64      0.106800
      6 C92         2.7450   -2.5680   -2.7490 c3        1 H64     -0.141400
      7 C91         2.2000   -3.0660   -4.0990 c3        1 H64      0.058300
      8 N9          3.0800   -3.9560   -4.7800 na        1 H64     -0.259000
      9 C4          4.3230   -3.6200   -5.3280 ca        1 H64      0.469800
     10 N3          4.9730   -2.4200   -5.3930 nb        1 H64     -0.781000
     11 C2          6.1640   -2.5120   -6.0400 ca        1 H64      0.713900
     12 N1          6.7780   -3.5840   -6.5960 nb        1 H64     -0.789000
     13 C6          6.1370   -4.8050   -6.5230 ca        1 H64      0.785200
     14 N6          6.6970   -5.9260   -7.0530 nh        1 H64     -0.935500
     15 C5          4.8560   -4.8660   -5.8650 ca        1 H64     -0.247200
     16 N7          3.9690   -5.9120   -5.6150 nc        1 H64     -0.456100
     17 C8          2.9210   -5.3710   -4.9630 cd        1 H64      0.314700
     18 S           1.5810   -6.2000   -4.3240 ss        1 H64     -0.004100
     19 C1'         0.5640   -6.5610   -5.6390 ca        1 H64     -0.016100
     20 C6'         0.8410   -6.2670   -6.9880 ca        1 H64     -0.109000
     21 C5'        -0.1110   -6.6490   -7.9100 ca        1 H64      0.088100
     22 O3'        -0.0970   -6.4840   -9.2860 os        1 H64     -0.324900
     23 C'2        -1.3210   -7.0730   -9.7930 c3        1 H64      0.320200
     24 O1'        -2.0720   -7.5710   -8.6580 os        1 H64     -0.320900
     25 C4'        -1.3110   -7.3090   -7.5280 ca        1 H64      0.062100
     26 C3'        -1.5930   -7.6050   -6.2100 ca        1 H64     -0.071000
     27 C2'        -0.6240   -7.2110   -5.2690 ca        1 H64     -0.033900
     28 BR         -0.9050   -7.5650   -3.4500 br        1 H64     -0.056100
     29 H971       -0.4210    0.3770    0.7140 hc        1 H64      0.079700
     30 H972        0.6370   -0.9860    1.2650 hc        1 H64      0.079700
     31 H973       -0.3340   -1.1410   -0.2680 hc        1 H64      0.079700
     32 H95         0.9800    0.7560   -1.3080 hx        1 H64      0.108700
     33 H961        2.5900    0.6680    1.3680 hc        1 H64      0.079700
     34 H962        2.9880    1.6840   -0.0920 hc        1 H64      0.079700
     35 H963        1.4490    1.9620    0.8170 hc        1 H64      0.079700
     36 H94         3.2450   -0.4080   -1.1830 hn        1 H64      0.450300
     37 H931        1.7060   -0.6640   -3.0060 hx        1 H64      0.107200
     38 H932        0.7980   -1.9040   -2.0080 hx        1 H64      0.107200
     39 H921        2.7960   -3.4210   -2.0240 hc        1 H64      0.084200
     40 H922        3.7850   -2.1670   -2.8910 hc        1 H64      0.084200
     41 H911        1.2210   -3.6070   -3.9270 h1        1 H64      0.082200
     42 H912        2.0170   -2.1730   -4.7660 h1        1 H64      0.082200
     43 H2          6.7300   -1.5580   -6.1310 h5        1 H64      0.059100
     44 HN61        7.5730   -5.8890   -7.5170 hn        1 H64      0.460800
     45 HN62        6.2080   -6.7870   -6.9960 hn        1 H64      0.460800
     46 H6'         1.7700   -5.7690   -7.2970 ha        1 H64      0.171000
     47 H'21       -1.0540   -7.9360  -10.4520 h2        1 H64      0.085200
     48 H'22       -1.9200   -6.2730  -10.2930 h2        1 H64      0.085200
     49 H3'        -2.5180   -8.1210   -5.9150 ha        1 H64      0.179000
     50 H942        2.4910   -1.5770   -0.2750 hn        1 H64      0.450300
@<TRIPOS>BOND
     1    1    2 1   
     2    1   29 1   
     3    1   30 1   
     4    1   31 1   
     5    2    3 1   
     6    2    4 1   
     7    2   32 1   
     8    3   33 1   
     9    3   34 1   
    10    3   35 1   
    11    4    5 1   
    12    4   36 1   
    13    4   50 1   
    14    5    6 1   
    15    5   37 1   
    16    5   38 1   
    17    6    7 1   
    18    6   39 1   
    19    6   40 1   
    20    7    8 1   
    21    7   41 1   
    22    7   42 1   
    23    8    9 1   
    24    8   17 1   
    25    9   10 ar  
    26    9   15 ar  
    27   10   11 ar  
    28   11   12 ar  
    29   11   43 1   
    30   12   13 ar  
    31   13   14 1   
    32   13   15 ar  
    33   14   44 1   
    34   14   45 1   
    35   15   16 1   
    36   16   17 2   
    37   17   18 1   
    38   18   19 1   
    39   19   20 ar  
    40   19   27 ar  
    41   20   21 ar  
    42   20   46 1   
    43   21   22 1   
    44   21   25 ar  
    45   22   23 1   
    46   23   24 1   
    47   23   47 1   
    48   23   48 1   
    49   24   25 1   
    50   25   26 ar  
    51   26   27 ar  
    52   26   49 1   
    53   27   28 1   
@<TRIPOS>SUBSTRUCTURE
     1 H64         1 TEMP              0 ****  ****    0 ROOT
