@<TRIPOS>MOLECULE
H6D
   32    33     1     0     0
SMALL
bcc


@<TRIPOS>ATOM
      1 C1          0.9360    0.6410   -0.2180 c3        1 H6D     -0.134800
      2 S2          2.3730   -0.1540    0.3450 sx        1 H6D      0.335200
      3 O3          2.1520   -0.3740    1.7970 o         1 H6D     -0.497200
      4 C4          2.1860   -1.7200   -0.4000 cc        1 H6D      0.040700
      5 C5          1.9520   -2.8380    0.4440 cc        1 H6D     -0.213000
      6 C6          1.8700   -4.1140   -0.0840 cd        1 H6D      0.143400
      7 N7          2.0100   -4.3220   -1.4390 n         1 H6D     -0.423100
      8 C8          2.2530   -3.2630   -2.3350 c         1 H6D      0.696700
      9 O9          2.3720   -3.5370   -3.5430 o         1 H6D     -0.611500
     10 C10         2.3420   -1.9150   -1.7480 cd        1 H6D     -0.042900
     11 C11         2.6040   -0.8570   -2.6550 ch        1 H6D      0.194500
     12 N12         2.8280   -0.0050   -3.4160 n1        1 H6D     -0.335800
     13 C13         1.6260   -5.2740    0.7930 ca        1 H6D     -0.082800
     14 C14         0.6920   -5.1650    1.8330 ca        1 H6D     -0.088000
     15 C15         0.4570   -6.2440    2.6840 ca        1 H6D     -0.117000
     16 C16         1.1480   -7.4420    2.5150 ca        1 H6D     -0.110000
     17 C17         2.0790   -7.5390    1.4730 ca        1 H6D      0.084100
     18 C18         2.3270   -6.4710    0.6030 ca        1 H6D     -0.099000
     19 O19         2.8960   -8.6630    1.3530 os        1 H6D     -0.368900
     20 C20         2.3100   -9.8520    0.8850 c3        1 H6D      0.821700
     21 F21         1.7140   -9.6890   -0.3220 f         1 H6D     -0.213633
     22 F22         3.3410  -10.7220    0.7680 f         1 H6D     -0.213633
     23 F23         1.4030  -10.3440    1.7650 f         1 H6D     -0.213633
     24 H1          1.0480    1.7350   -0.0250 h1        1 H6D      0.095700
     25 H1A         0.7890    0.4990   -1.3130 h1        1 H6D      0.095700
     26 H1B         0.0040    0.3130    0.2990 h1        1 H6D      0.095700
     27 H5          1.8490   -2.6740    1.5310 ha        1 H6D      0.191000
     28 HN7         1.9350   -5.2460   -1.8110 hn        1 H6D      0.343500
     29 H14         0.1420   -4.2210    1.9780 ha        1 H6D      0.155000
     30 H15        -0.2780   -6.1480    3.4990 ha        1 H6D      0.152000
     31 H16         0.9730   -8.3020    3.1800 ha        1 H6D      0.163000
     32 H18         3.0840   -6.5810   -0.1880 ha        1 H6D      0.160000
@<TRIPOS>BOND
     1    1    2 1   
     2    1   24 1   
     3    1   25 1   
     4    1   26 1   
     5    2    3 2   
     6    2    4 1   
     7    4    5 1   
     8    4   10 2   
     9    5    6 2   
    10    5   27 1   
    11    6    7 1   
    12    6   13 1   
    13    7    8 1   
    14    7   28 1   
    15    8    9 2   
    16    8   10 1   
    17   10   11 1   
    18   11   12 3   
    19   13   14 ar  
    20   13   18 ar  
    21   14   15 ar  
    22   14   29 1   
    23   15   16 ar  
    24   15   30 1   
    25   16   17 ar  
    26   16   31 1   
    27   17   18 ar  
    28   17   19 1   
    29   18   32 1   
    30   19   20 1   
    31   20   21 1   
    32   20   22 1   
    33   20   23 1   
@<TRIPOS>SUBSTRUCTURE
     1 H6D         1 TEMP              0 ****  ****    0 ROOT
