@<TRIPOS>MOLECULE
H6D
   32    33     1     0     0
SMALL
bcc


@<TRIPOS>ATOM
      1 C1          0.0000    0.0000    0.0000 c3        1 H6D      0.137200
      2 S2          1.8150    0.0000    0.0000 sx        1 H6D     -0.000800
      3 O3          2.2880    0.0000    1.3390 o         1 H6D     -0.449200
      4 C4          2.2100   -1.6220   -0.5610 cc        1 H6D      0.103700
      5 C5          1.8760   -2.7330    0.2040 cc        1 H6D     -0.181000
      6 C6          2.1920   -4.0010   -0.2450 cd        1 H6D     -0.031600
      7 N7          2.8320   -4.1800   -1.4390 ns        1 H6D      0.098900
      8 C8          3.1720   -3.1270   -2.2060 c         1 H6D      0.575700
      9 O9          3.7430   -3.3050   -3.2680 o         1 H6D     -0.670500
     10 C10         2.8600   -1.8090   -1.7820 cd        1 H6D      0.019100
     11 C11         3.2120   -0.6850   -2.5950 ch        1 H6D      0.208500
     12 N12         3.5110    0.2020   -3.2390 n1        1 H6D     -0.356800
     13 C13         1.8330   -5.1760    0.5730 ca        1 H6D     -0.030800
     14 C14         1.1780   -5.0050    1.7950 ca        1 H6D     -0.083000
     15 C15         0.8440   -6.1060    2.5570 ca        1 H6D     -0.038000
     16 C16         1.1570   -7.3790    2.1160 ca        1 H6D     -0.192000
     17 C17         1.8080   -7.5590    0.9020 ca        1 H6D      0.126100
     18 C18         2.1420   -6.4620    0.1260 ca        1 H6D     -0.120000
     19 O19         2.1130   -8.8110    0.4740 os        1 H6D     -0.312900
     20 C20         1.7350   -9.8970    1.3230 c3        1 H6D      0.757700
     21 F21         0.3470   -9.8890    1.5000 f         1 H6D     -0.191967
     22 F22         2.1210  -11.1070    0.7340 f         1 H6D     -0.191967
     23 F23         2.3640   -9.7600    2.5640 f         1 H6D     -0.191967
     24 H1         -0.3080    0.8560    0.5890 h1        1 H6D      0.059700
     25 H1A        -0.1160    0.4210   -0.9910 h1        1 H6D      0.059700
     26 H1B        -0.2460   -1.0540    0.0530 h1        1 H6D      0.059700
     27 H5          1.6700   -2.5100    1.2440 ha        1 H6D      0.156000
     28 HN7         3.3030   -5.0440   -1.6210 hn        1 H6D      0.184500
     29 H14         0.8030   -4.0820    2.2190 ha        1 H6D      0.125000
     30 H15         0.0940   -6.1590    3.3360 ha        1 H6D      0.118000
     31 H16         0.9400   -8.3650    2.5090 ha        1 H6D      0.133000
     32 H18         2.9640   -6.6070   -0.5650 ha        1 H6D      0.122000
@<TRIPOS>BOND
     1    1    2 1   
     2    1   24 1   
     3    1   25 1   
     4    1   26 1   
     5    2    3 2   
     6    2    4 1   
     7    4    5 1   
     8    4   10 2   
     9    5    6 2   
    10    5   27 1   
    11    6    7 1   
    12    6   13 1   
    13    7    8 1   
    14    7   28 1   
    15    8    9 2   
    16    8   10 1   
    17   10   11 1   
    18   11   12 3   
    19   13   14 ar  
    20   13   18 ar  
    21   14   15 ar  
    22   14   29 1   
    23   15   16 ar  
    24   15   30 1   
    25   16   17 ar  
    26   16   31 1   
    27   17   18 ar  
    28   17   19 1   
    29   18   32 1   
    30   19   20 1   
    31   20   21 1   
    32   20   22 1   
    33   20   23 1   
@<TRIPOS>SUBSTRUCTURE
     1 H6D         1 TEMP              0 ****  ****    0 ROOT
