@<TRIPOS>MOLECULE
H6K
   34    36     1     0     0
SMALL
bcc


@<TRIPOS>ATOM
      1 N4         -0.3220   -0.6410   -2.9360 n1        1 H6K     -0.339800
      2 C6          0.0570   -0.4600   -1.8520 cg        1 H6K      0.140800
      3 C4          0.5070   -0.2450   -0.5170 ca        1 H6K      0.324000
      4 N2          1.7060    0.3660   -0.2980 nb        1 H6K     -0.566000
      5 C3          2.0660    0.5470    0.9740 ca        1 H6K      0.237900
      6 C5         -0.3050   -0.6770    0.5680 ca        1 H6K      0.366900
      7 N3          0.0450   -0.5090    1.8530 nb        1 H6K     -0.651000
      8 C2          1.2380    0.1240    2.0860 ca        1 H6K      0.465900
      9 N1          1.6930    0.3750    3.3810 n         1 H6K     -0.564400
     10 C1          0.8640    0.2960    4.5370 c         1 H6K      0.787100
     11 O          -0.3350    0.6210    4.4890 o         1 H6K     -0.549100
     12 N5          1.4760   -0.1760    5.7170 n         1 H6K     -0.515400
     13 C7          0.8870    0.0610    6.9660 cc        1 H6K      0.401200
     14 N7          1.6130    0.2030    8.1400 nd        1 H6K     -0.550800
     15 N6          0.7180    0.3440    9.1100 na        1 H6K     -0.003600
     16 C9         -0.6070    0.3240    8.6470 cd        1 H6K     -0.045300
     17 C8         -0.5340    0.1390    7.2530 cc        1 H6K     -0.254300
     18 C10        -1.7760    0.4730    9.4900 ca        1 H6K     -0.025000
     19 C15        -1.7540    0.1130   10.8450 ca        1 H6K     -0.113500
     20 C14        -2.8970    0.2650   11.6280 ca        1 H6K     -0.127500
     21 C13        -4.0700    0.7720   11.0690 ca        1 H6K     -0.121000
     22 C12        -4.0980    1.1280    9.7200 ca        1 H6K     -0.127500
     23 C11        -2.9600    0.9810    8.9320 ca        1 H6K     -0.113500
     24 H3          3.0370    1.0460    1.1360 h4        1 H6K      0.040100
     25 H4         -1.2730   -1.1840    0.3970 h4        1 H6K      0.050100
     26 H2          2.6790    0.4530    3.4850 hn        1 H6K      0.328500
     27 H5          2.4630   -0.3220    5.7250 hn        1 H6K      0.319500
     28 H1          1.0180    0.4640   10.0490 hn        1 H6K      0.325700
     29 H6         -1.3430    0.0750    6.5310 ha        1 H6K      0.197000
     30 H11        -0.8430   -0.3040   11.2980 ha        1 H6K      0.137000
     31 H10        -2.8730   -0.0210   12.6900 ha        1 H6K      0.136500
     32 H9         -4.9700    0.8900   11.6890 ha        1 H6K      0.136000
     33 H8         -5.0230    1.5260    9.2750 ha        1 H6K      0.136500
     34 H7         -2.9810    1.2640    7.8670 ha        1 H6K      0.137000
@<TRIPOS>BOND
     1    1    2 3   
     2    2    3 1   
     3    3    4 ar  
     4    3    6 ar  
     5    4    5 ar  
     6    5    8 ar  
     7    5   24 1   
     8    6    7 ar  
     9    6   25 1   
    10    7    8 ar  
    11    8    9 1   
    12    9   10 1   
    13    9   26 1   
    14   10   11 2   
    15   10   12 1   
    16   12   13 1   
    17   12   27 1   
    18   13   14 2   
    19   13   17 1   
    20   14   15 1   
    21   15   16 1   
    22   15   28 1   
    23   16   17 2   
    24   16   18 1   
    25   17   29 1   
    26   18   19 ar  
    27   18   23 ar  
    28   19   20 ar  
    29   19   30 1   
    30   20   21 ar  
    31   20   31 1   
    32   21   22 ar  
    33   21   32 1   
    34   22   23 ar  
    35   22   33 1   
    36   23   34 1   
@<TRIPOS>SUBSTRUCTURE
     1 H6K         1 TEMP              0 ****  ****    0 ROOT
