@<TRIPOS>MOLECULE
H6K
   34    36     1     0     0
SMALL
bcc


@<TRIPOS>ATOM
      1 N4         -0.3010    0.2790   -2.9780 n1        1 H6K     -0.339800
      2 C6          0.0740    0.2010   -1.8800 cg        1 H6K      0.140800
      3 C4          0.5200    0.1140   -0.5290 ca        1 H6K      0.324000
      4 N2          1.7030   -0.5020   -0.2470 nb        1 H6K     -0.566000
      5 C3          2.0600   -0.5590    1.0370 ca        1 H6K      0.237900
      6 C5         -0.2810    0.6750    0.5040 ca        1 H6K      0.366900
      7 N3          0.0670    0.6310    1.8000 nb        1 H6K     -0.651000
      8 C2          1.2440   -0.0040    2.0990 ca        1 H6K      0.465900
      9 N1          1.6930   -0.1320    3.4140 ns        1 H6K     -0.563400
     10 C1          0.8670    0.0860    4.5540 c         1 H6K      0.787100
     11 O          -0.3390   -0.2120    4.5370 o         1 H6K     -0.549100
     12 N5          1.4930    0.6610    5.6800 ns        1 H6K     -0.515400
     13 C7          0.8990    0.5680    6.9460 cc        1 H6K      0.401200
     14 N7          1.6220    0.5290    8.1300 nd        1 H6K     -0.550800
     15 N6          0.7240    0.5110    9.1070 na        1 H6K     -0.003600
     16 C9         -0.6010    0.5170    8.6420 cd        1 H6K     -0.045300
     17 C8         -0.5240    0.5560    7.2370 cc        1 H6K     -0.254300
     18 C10        -1.7720    0.4830    9.4950 ca        1 H6K     -0.025000
     19 C15        -1.7400    0.9790   10.8060 ca        1 H6K     -0.113500
     20 C14        -2.8850    0.9370   11.5980 ca        1 H6K     -0.127500
     21 C13        -4.0710    0.4050   11.0920 ca        1 H6K     -0.121000
     22 C12        -4.1100   -0.0860    9.7860 ca        1 H6K     -0.127500
     23 C11        -2.9680   -0.0490    8.9890 ca        1 H6K     -0.113500
     24 H3          3.0180   -1.0630    1.2520 h4        1 H6K      0.040100
     25 H4         -1.2360    1.1860    0.2800 h4        1 H6K      0.050100
     26 H2          2.6770   -0.2220    3.5270 hn        1 H6K      0.328500
     27 H5          2.4820    0.7840    5.6750 hn        1 H6K      0.319500
     28 H1          1.0220    0.4800   10.0540 hn        1 H6K      0.325700
     29 H6         -1.3320    0.5670    6.5110 ha        1 H6K      0.197000
     30 H11        -0.8180    1.4180   11.2160 ha        1 H6K      0.137000
     31 H10        -2.8530    1.3290   12.6250 ha        1 H6K      0.136500
     32 H9         -4.9730    0.3740   11.7200 ha        1 H6K      0.136000
     33 H8         -5.0440   -0.5040    9.3830 ha        1 H6K      0.136500
     34 H7         -2.9980   -0.4380    7.9590 ha        1 H6K      0.137000
@<TRIPOS>BOND
     1    1    2 3   
     2    2    3 1   
     3    3    4 ar  
     4    3    6 ar  
     5    4    5 ar  
     6    5    8 ar  
     7    5   24 1   
     8    6    7 ar  
     9    6   25 1   
    10    7    8 ar  
    11    8    9 1   
    12    9   10 1   
    13    9   26 1   
    14   10   11 2   
    15   10   12 1   
    16   12   13 1   
    17   12   27 1   
    18   13   14 2   
    19   13   17 1   
    20   14   15 1   
    21   15   16 1   
    22   15   28 1   
    23   16   17 2   
    24   16   18 1   
    25   17   29 1   
    26   18   19 ar  
    27   18   23 ar  
    28   19   20 ar  
    29   19   30 1   
    30   20   21 ar  
    31   20   31 1   
    32   21   22 ar  
    33   21   32 1   
    34   22   23 ar  
    35   22   33 1   
    36   23   34 1   
@<TRIPOS>SUBSTRUCTURE
     1 H6K         1 TEMP              0 ****  ****    0 ROOT
