@<TRIPOS>MOLECULE
H6K
   34    36     1     0     0
SMALL
bcc


@<TRIPOS>ATOM
      1 N4         -8.0300    1.8940   -0.4190 n1        1 H6K     -0.339800
      2 C6         -7.0510    1.2830   -0.2830 cg        1 H6K      0.140800
      3 C4         -5.8400    0.5470   -0.1250 ca        1 H6K      0.324000
      4 N2         -5.8620   -0.6600    0.5080 nb        1 H6K     -0.566000
      5 C3         -4.6960   -1.2960    0.6330 ca        1 H6K      0.237900
      6 C5         -4.6270    1.0850   -0.6360 ca        1 H6K      0.366900
      7 N3         -3.4460    0.4560   -0.5240 nb        1 H6K     -0.651000
      8 C2         -3.4520   -0.7480    0.1300 ca        1 H6K      0.465900
      9 N1         -2.2800   -1.4790    0.3270 n         1 H6K     -0.564400
     10 C1         -0.9740   -0.9340    0.1640 c         1 H6K      0.787100
     11 O          -0.7330    0.2490    0.4560 o         1 H6K     -0.549100
     12 N5          0.0090   -1.8050   -0.3510 n         1 H6K     -0.515400
     13 C7          1.3700   -1.5100   -0.1970 cc        1 H6K      0.401200
     14 N7          2.3580   -2.4800   -0.0960 nd        1 H6K     -0.550800
     15 N6          3.5090   -1.8250   -0.0320 na        1 H6K     -0.003600
     16 C9          3.3560   -0.4300   -0.0660 cd        1 H6K     -0.045300
     17 C8          1.9740   -0.1890   -0.1750 cc        1 H6K     -0.254300
     18 C10         4.4480    0.5200    0.0070 ca        1 H6K     -0.025000
     19 C15         5.7400    0.1870   -0.4230 ca        1 H6K     -0.113500
     20 C14         6.7670    1.1260   -0.3460 ca        1 H6K     -0.127500
     21 C13         6.5160    2.4020    0.1570 ca        1 H6K     -0.121000
     22 C12         5.2310    2.7410    0.5820 ca        1 H6K     -0.127500
     23 C11         4.1990    1.8070    0.5100 ca        1 H6K     -0.113500
     24 H3         -4.7280   -2.2700    1.1510 h4        1 H6K      0.040100
     25 H4         -4.6060    2.0580   -1.1610 h4        1 H6K      0.050100
     26 H2         -2.3960   -2.4620    0.4270 hn        1 H6K      0.328500
     27 H5         -0.2130   -2.7700   -0.4700 hn        1 H6K      0.319500
     28 H1          4.3620   -2.3280    0.0480 hn        1 H6K      0.325700
     29 H6          1.4490    0.7610   -0.2250 ha        1 H6K      0.197000
     30 H11         5.9520   -0.8090   -0.8390 ha        1 H6K      0.137000
     31 H10         7.7780    0.8580   -0.6860 ha        1 H6K      0.136500
     32 H9          7.3290    3.1410    0.2160 ha        1 H6K      0.136000
     33 H8          5.0290    3.7480    0.9770 ha        1 H6K      0.136500
     34 H7          3.1850    2.0730    0.8470 ha        1 H6K      0.137000
@<TRIPOS>BOND
     1    1    2 3   
     2    2    3 1   
     3    3    4 ar  
     4    3    6 ar  
     5    4    5 ar  
     6    5    8 ar  
     7    5   24 1   
     8    6    7 ar  
     9    6   25 1   
    10    7    8 ar  
    11    8    9 1   
    12    9   10 1   
    13    9   26 1   
    14   10   11 2   
    15   10   12 1   
    16   12   13 1   
    17   12   27 1   
    18   13   14 2   
    19   13   17 1   
    20   14   15 1   
    21   15   16 1   
    22   15   28 1   
    23   16   17 2   
    24   16   18 1   
    25   17   29 1   
    26   18   19 ar  
    27   18   23 ar  
    28   19   20 ar  
    29   19   30 1   
    30   20   21 ar  
    31   20   31 1   
    32   21   22 ar  
    33   21   32 1   
    34   22   23 ar  
    35   22   33 1   
    36   23   34 1   
@<TRIPOS>SUBSTRUCTURE
     1 H6K         1 TEMP              0 ****  ****    0 ROOT
