@<TRIPOS>MOLECULE
H6K
   34    25     1     0     0
SMALL
bcc


@<TRIPOS>ATOM
      1 N4         -7.6860    4.2180   -3.6590 n1        1 H6K     -0.091000
      2 C6         -6.6420    3.8800   -3.3500 c1        1 H6K      0.010500
      3 C4         -5.2570    3.4320   -2.9410 c1        1 H6K     -0.032000
      4 N2         -4.3430    3.1400   -3.8780 n1        1 H6K     -0.050000
      5 C3         -3.0980    2.7960   -3.5160 c1        1 H6K     -0.114000
      6 C5         -4.9160    3.3780   -1.5990 c1        1 H6K     -0.083000
      7 N3         -3.6710    3.0330   -1.2370 n1        1 H6K     -0.091000
      8 C2         -2.7560    2.7410   -2.1740 c1        1 H6K      0.010500
      9 N1         -1.4130    2.4810   -1.7950 n2        1 H6K     -0.305000
     10 C1         -1.1050    1.3390   -1.0130 c2        1 H6K      0.399000
     11 O          -1.9900    0.5830   -0.6660 o         1 H6K     -0.333000
     12 N5          0.2410    1.0710   -0.6480 n         1 H6K     -0.286000
     13 C7          0.5520   -0.0810    0.1220 c2        1 H6K     -0.008000
     14 N7         -0.3390   -0.9330    0.6690 n2        1 H6K     -0.045000
     15 N6          0.3580   -1.8840    1.3710 n2        1 H6K     -0.149000
     16 C9          1.6740   -1.6120    1.2500 c1        1 H6K     -0.010000
     17 C8          1.8040   -0.4950    0.4770 c1        1 H6K     -0.241000
     18 C10         2.8050   -2.3790    1.9020 c1        1 H6K     -0.032000
     19 C15         3.4610   -3.3770    1.2000 c1        1 H6K     -0.119000
     20 C14         4.4800   -4.0960    1.8040 c1        1 H6K     -0.119000
     21 C13         4.8440   -3.8160    3.1120 c1        1 H6K     -0.119000
     22 C12         4.1880   -2.8180    3.8150 c1        1 H6K     -0.119000
     23 C11         3.1690   -2.0990    3.2100 c1        1 H6K     -0.083000
     24 H3         -2.4330    2.5830   -4.1980 ha        1 H6K      0.216000
     25 H4         -5.5810    3.5900   -0.9170 ha        1 H6K      0.156500
     26 H2         -0.7470    3.0410   -2.0670 hn        1 H6K      0.242000
     27 H5          0.9050    1.6420   -0.9030 hn        1 H6K      0.238000
     28 H1         -0.0050   -2.5790    1.8370 DU        1 H6K      0.223500
     29 H6          2.6430   -0.0670    0.2230 DU        1 H6K      0.223500
     30 H11         3.2050   -3.5740    0.2780 ha        1 H6K      0.138000
     31 H10         4.9430   -4.8000    1.3090 ha        1 H6K      0.138000
     32 H9          5.5620   -4.3220    3.5380 ha        1 H6K      0.138000
     33 H8          4.4440   -2.6200    4.7360 ha        1 H6K      0.138000
     34 H7          2.7060   -1.3950    3.7060 ha        1 H6K      0.156500
@<TRIPOS>BOND
     1    1    2 1   
     2    3    6 1   
     3    4    5 1   
     4    5   24 1   
     5    6   25 1   
     6    7    8 1   
     7    9   10 1   
     8    9   26 1   
     9   10   11 1   
    10   10   12 1   
    11   12   13 1   
    12   12   27 1   
    13   13   14 1   
    14   13   17 1   
    15   14   15 1   
    16   15   16 1   
    17   16   17 1   
    18   18   23 1   
    19   19   20 1   
    20   19   30 1   
    21   20   31 1   
    22   21   22 1   
    23   21   32 1   
    24   22   33 1   
    25   23   34 1   
@<TRIPOS>SUBSTRUCTURE
     1 H6K         1 TEMP              0 ****  ****    0 ROOT
