@<TRIPOS>MOLECULE
H6K
   36    38     1     0     0
SMALL
bcc


@<TRIPOS>ATOM
      1 N4          2.2060   -3.2050   -1.4600 n1        1 H6K     -0.150800
      2 C6          2.1160   -2.4440   -0.5850 cg        1 H6K      0.051800
      3 C4          2.0070   -1.5110    0.4860 ca        1 H6K      0.527000
      4 N2          3.0420   -0.7000    0.7970 nb        1 H6K     -0.545000
      5 C3          2.8790    0.1640    1.8230 ca        1 H6K      0.403900
      6 C5          0.7610   -1.4540    1.2240 ca        1 H6K      0.373900
      7 N3          0.5920   -0.6080    2.2370 nb        1 H6K     -0.685000
      8 C2          1.6570    0.2020    2.5460 ca        1 H6K      0.272900
      9 N1          1.4960    1.1240    3.6920 n4        1 H6K     -0.604500
     10 C1          0.1070    1.6860    3.7650 c         1 H6K      0.525100
     11 O          -0.1250    2.8090    3.3560 o         1 H6K     -0.294100
     12 N5         -0.9730    0.8340    4.3540 n4        1 H6K     -0.560500
     13 C7         -0.8230    0.7050    5.7900 cc        1 H6K      0.275200
     14 N7          0.3960    0.4290    6.4070 nd        1 H6K     -0.561800
     15 N6          0.1300    0.3560    7.6910 na        1 H6K      0.068400
     16 C9         -1.2290    0.5600    7.9990 cd        1 H6K      0.081700
     17 C8         -1.8810    0.8040    6.7600 cc        1 H6K     -0.228300
     18 C10        -1.7790    0.5280    9.3320 ca        1 H6K     -0.120000
     19 C15        -1.2010   -0.2640   10.3400 ca        1 H6K     -0.084500
     20 C14        -1.7590   -0.2810   11.6150 ca        1 H6K     -0.116000
     21 C13        -2.8900    0.4880   11.8990 ca        1 H6K     -0.057000
     22 C12        -3.4690    1.2750   10.9000 ca        1 H6K     -0.116000
     23 C11        -2.9210    1.2970    9.6210 ca        1 H6K     -0.084500
     24 H3          3.7530    0.8120    2.0420 h4        1 H6K      0.089100
     25 H4         -0.0910   -2.1180    0.9610 h4        1 H6K      0.101100
     26 H2          2.1450    1.9250    3.5590 hn        1 H6K      0.517300
     27 H5         -0.9880   -0.1110    3.9170 hn        1 H6K      0.519300
     28 H1          0.8640    0.1440    8.3470 hn        1 H6K      0.373700
     29 H6         -2.9390    0.9980    6.6020 ha        1 H6K      0.214000
     30 H11        -0.3220   -0.8910   10.1310 ha        1 H6K      0.134500
     31 H10        -1.3070   -0.9060   12.4030 ha        1 H6K      0.168500
     32 H9         -3.3280    0.4720   12.9110 ha        1 H6K      0.172000
     33 H8         -4.3620    1.8810   11.1240 ha        1 H6K      0.168500
     34 H7         -3.3770    1.9240    8.8390 ha        1 H6K      0.134500
     35 H12         1.7560    0.6230    4.5660 hn        1 H6K      0.517300
     36 H52        -1.8830    1.3080    4.1710 hn        1 H6K      0.519300
@<TRIPOS>BOND
     1    1    2 3   
     2    2    3 1   
     3    3    4 ar  
     4    3    6 ar  
     5    4    5 ar  
     6    5    8 ar  
     7    5   24 1   
     8    6    7 ar  
     9    6   25 1   
    10    7    8 ar  
    11    8    9 1   
    12    9   10 1   
    13    9   26 1   
    14    9   35 1   
    15   10   11 2   
    16   10   12 1   
    17   12   13 1   
    18   12   27 1   
    19   12   36 1   
    20   13   14 2   
    21   13   17 1   
    22   14   15 1   
    23   15   16 1   
    24   15   28 1   
    25   16   17 2   
    26   16   18 1   
    27   17   29 1   
    28   18   19 ar  
    29   18   23 ar  
    30   19   20 ar  
    31   19   30 1   
    32   20   21 ar  
    33   20   31 1   
    34   21   22 ar  
    35   21   32 1   
    36   22   23 ar  
    37   22   33 1   
    38   23   34 1   
@<TRIPOS>SUBSTRUCTURE
     1 H6K         1 TEMP              0 ****  ****    0 ROOT
