@<TRIPOS>MOLECULE
H6P
   24    23     1     0     0
SMALL
bcc


@<TRIPOS>ATOM
      1 P13         0.5580   -0.6240   -0.7990 p5        1 H6P      1.573800
      2 O14         0.3930   -2.0990   -0.6160 o         1 H6P     -0.929000
      3 O15        -0.0250   -0.0670   -2.0540 o         1 H6P     -0.929000
      4 O16         1.8870   -0.0080   -0.3020 os        1 H6P     -0.797800
      5 P17         3.4720    0.6590    0.2160 p5        1 H6P      1.457900
      6 O18         3.2810    2.1490    0.1540 o         1 H6P     -0.957167
      7 O19         3.6630    0.1130    1.6030 o         1 H6P     -0.957167
      8 O20         4.4120    0.1010   -0.8170 o         1 H6P     -0.957167
      9 C21        -4.7810   -1.2220    0.7890 c3        1 H6P     -0.014900
     10 C27        -2.9050    0.0660   -0.2430 c2        1 H6P     -0.041200
     11 C28        -1.7830   -0.7200    0.3710 c3        1 H6P      0.229600
     12 O29        -0.6000   -0.0310    0.3450 os        1 H6P     -0.555200
     13 C30        -4.2210   -0.1520   -0.0650 c2        1 H6P     -0.340400
     14 C31        -5.2400    0.6780   -0.7700 c3        1 H6P      0.194600
     15 O33        -6.0500    1.4480    0.1190 oh        1 H6P     -0.655800
     16 H21        -5.6540   -0.8360    1.3760 hc        1 H6P      0.012033
     17 H21A       -5.1420   -2.0750    0.1600 hc        1 H6P      0.012033
     18 H21B       -4.0160   -1.6150    1.5020 hc        1 H6P      0.012033
     19 H27        -2.5540    0.8770   -0.9110 ha        1 H6P      0.153000
     20 H28        -2.0590   -0.9460    1.4470 h1        1 H6P      0.022700
     21 H28A       -1.6930   -1.7030   -0.1880 h1        1 H6P      0.022700
     22 H31        -4.7550    1.3870   -1.4960 h1        1 H6P      0.020700
     23 H31A       -5.9760    0.0330   -1.3250 h1        1 H6P      0.020700
     24 HO33       -5.4870    1.6950    0.8600 ho        1 H6P      0.402000
@<TRIPOS>BOND
     1    1    2 1   
     2    1    3 1   
     3    1    4 1   
     4    1   12 1   
     5    4    5 1   
     6    5    6 1   
     7    5    7 1   
     8    5    8 1   
     9    9   13 1   
    10    9   16 1   
    11    9   17 1   
    12    9   18 1   
    13   10   11 1   
    14   10   13 2   
    15   10   19 1   
    16   11   12 1   
    17   11   20 1   
    18   11   21 1   
    19   13   14 1   
    20   14   15 1   
    21   14   22 1   
    22   14   23 1   
    23   15   24 1   
@<TRIPOS>SUBSTRUCTURE
     1 H6P         1 TEMP              0 ****  ****    0 ROOT
