@<TRIPOS>MOLECULE
H6P
   24    23     1     0     0
SMALL
bcc


@<TRIPOS>ATOM
      1 P13         0.2950    0.0100    0.2880 p5        1 H6P      1.574800
      2 O14         1.6160    0.6130   -0.0640 o         1 H6P     -0.932500
      3 O15        -0.1750    0.2840    1.6790 o         1 H6P     -0.932500
      4 O16        -0.0110   -1.3920   -0.2930 os        1 H6P     -0.799800
      5 P17        -0.3160   -3.0450   -0.9210 p5        1 H6P      1.458900
      6 O18         0.0230   -2.9500   -2.3820 o         1 H6P     -0.958167
      7 O19         0.6310   -3.8840   -0.1080 o         1 H6P     -0.958167
      8 O20        -1.7720   -3.2840   -0.6350 o         1 H6P     -0.958167
      9 C21        -0.7000    5.3510    0.1490 c3        1 H6P     -0.020900
     10 C27        -1.4600    3.2630   -0.9740 c2        1 H6P     -0.027200
     11 C28        -0.5880    2.3400   -0.1920 c3        1 H6P      0.189600
     12 O29        -0.7650    1.0380   -0.6090 os        1 H6P     -0.559200
     13 C30        -1.5130    4.6010   -0.8320 c2        1 H6P     -0.336400
     14 C31        -2.4340    5.4320   -1.6580 c3        1 H6P      0.196600
     15 O33        -1.7530    6.3490   -2.5140 oh        1 H6P     -0.653800
     16 H21        -0.2660    6.2690   -0.3230 hc        1 H6P      0.019033
     17 H21A        0.1350    4.7180    0.5430 hc        1 H6P      0.019033
     18 H21B       -1.3310    5.6770    1.0140 hc        1 H6P      0.019033
     19 H27        -2.0940    2.7520   -1.7220 ha        1 H6P      0.127000
     20 H28        -0.8340    2.4220    0.9090 h1        1 H6P      0.046700
     21 H28A        0.4980    2.6340   -0.3250 h1        1 H6P      0.046700
     22 H31        -3.0810    6.0850   -1.0100 h1        1 H6P      0.016200
     23 H31A       -3.0950    4.7900   -2.3030 h1        1 H6P      0.016200
     24 HO33       -0.9060    5.9470   -2.7350 ho        1 H6P      0.406000
@<TRIPOS>BOND
     1    1    2 1   
     2    1    3 1   
     3    1    4 1   
     4    1   12 1   
     5    4    5 1   
     6    5    6 1   
     7    5    7 1   
     8    5    8 1   
     9    9   13 1   
    10    9   16 1   
    11    9   17 1   
    12    9   18 1   
    13   10   11 1   
    14   10   13 2   
    15   10   19 1   
    16   11   12 1   
    17   11   20 1   
    18   11   21 1   
    19   13   14 1   
    20   14   15 1   
    21   14   22 1   
    22   14   23 1   
    23   15   24 1   
@<TRIPOS>SUBSTRUCTURE
     1 H6P         1 TEMP              0 ****  ****    0 ROOT
