@<TRIPOS>MOLECULE
H6P
   24    21     1     0     0
SMALL
bcc


@<TRIPOS>ATOM
      1 P13         0.6380    2.4960    0.3370 p3        1 H6P      2.680000
      2 O14         2.1360    2.4070    0.5020 o         1 H6P     -1.248000
      3 O15        -0.0140    2.5880    1.6970 os        1 H6P     -1.249000
      4 O16         0.2760    3.7830   -0.5070 os        1 H6P     -1.265000
      5 P17         0.8110    5.2310   -0.1690 p5        1 H6P      1.691500
      6 O18         2.3180    5.2460   -0.2600 o         1 H6P     -0.957167
      7 O19         0.3870    5.6100    1.2300 o         1 H6P     -0.957167
      8 O20         0.2370    6.2220   -1.1540 o         1 H6P     -0.957167
      9 C21        -0.3790   -2.6430    1.3210 c3        1 H6P     -0.137000
     10 C27        -0.1800   -1.1480   -0.6460 c1        1 H6P     -0.037000
     11 C28        -0.0010    0.0070    0.3140 c2        1 H6P      0.075000
     12 O29         0.1120    1.2080   -0.4130 os        1 H6P     -0.717000
     13 C30        -0.3580   -2.3970   -0.1720 c2        1 H6P     -0.332000
     14 C31        -0.5370   -3.5520   -1.1320 c3        1 H6P      0.040000
     15 O33        -1.9100   -3.7380   -1.3940 oh        1 H6P     -0.383000
     16 H21         0.4380   -2.2820    1.7230 hc        1 H6P      0.051333
     17 H21A       -1.1600   -2.2010    1.7140 hc        1 H6P      0.051333
     18 H21B       -0.4290   -3.6070    1.4920 hc        1 H6P      0.051333
     19 H27        -0.1660   -0.9890   -1.6090 ha        1 H6P      0.153000
     20 H28        -0.7760    0.0590    0.9110 h4        1 H6P      0.062000
     21 H28A        0.8110   -0.1310    0.8440 h4        1 H6P      0.062000
     22 H31        -0.0680   -3.3560   -1.9700 h1        1 H6P      0.060000
     23 H31A       -0.1670   -4.3680   -0.7340 h1        1 H6P      0.060000
     24 HO33       -2.0180   -4.4430   -1.9250 ho        1 H6P      0.201000
@<TRIPOS>BOND
     1    1    2 1   
     2    1    4 1   
     3    1   12 1   
     4    4    5 1   
     5    5    6 1   
     6    5    7 1   
     7    5    8 1   
     8    9   13 1   
     9    9   16 1   
    10    9   17 1   
    11    9   18 1   
    12   10   13 1   
    13   10   19 1   
    14   11   12 1   
    15   11   20 1   
    16   11   21 1   
    17   13   14 1   
    18   14   15 1   
    19   14   22 1   
    20   14   23 1   
    21   15   24 1   
@<TRIPOS>SUBSTRUCTURE
     1 H6P         1 TEMP              0 ****  ****    0 ROOT
