@<TRIPOS>MOLECULE
H6P
   24    23     1     0     0
SMALL
bcc


@<TRIPOS>ATOM
      1 P13        -0.0490   -0.0400    0.4940 p5        1 H6P      1.574800
      2 O14         1.3300    0.5340    0.5360 o         1 H6P     -0.932500
      3 O15        -0.8780    0.2160    1.7100 o         1 H6P     -0.932500
      4 O16        -0.2130   -1.4200   -0.1880 os        1 H6P     -0.799800
      5 P17        -0.3670   -3.0490   -0.9230 p5        1 H6P      1.458900
      6 O18        -1.8500   -3.2530   -1.0560 o         1 H6P     -0.958167
      7 O19         0.3630   -2.9320   -2.2320 o         1 H6P     -0.958167
      8 O20         0.3020   -3.9320    0.0940 o         1 H6P     -0.958167
      9 C21        -0.8540    5.3290    0.2410 c3        1 H6P     -0.020900
     10 C27        -1.3210    3.2880   -1.1060 c2        1 H6P     -0.027200
     11 C28        -0.7170    2.3240   -0.1430 c3        1 H6P      0.189600
     12 O29        -0.8000    1.0360   -0.6290 os        1 H6P     -0.559200
     13 C30        -1.3820    4.6240   -0.9470 c2        1 H6P     -0.336400
     14 C31        -2.0240    5.4980   -1.9680 c3        1 H6P      0.196600
     15 O33        -1.1150    6.4130   -2.5790 oh        1 H6P     -0.653800
     16 H21        -0.2870    6.2440   -0.0690 hc        1 H6P      0.019033
     17 H21A       -0.1730    4.6650    0.8300 hc        1 H6P      0.019033
     18 H21B       -1.6910    5.6540    0.9090 hc        1 H6P      0.019033
     19 H27        -1.7370    2.8110   -2.0130 ha        1 H6P      0.127000
     20 H28        -1.2540    2.3880    0.8510 h1        1 H6P      0.046700
     21 H28A        0.3700    2.5900    0.0350 h1        1 H6P      0.046700
     22 H31        -2.8100    6.1540   -1.5040 h1        1 H6P      0.016200
     23 H31A       -2.4960    4.8890   -2.7880 h1        1 H6P      0.016200
     24 HO33       -0.2480    5.9920   -2.5720 ho        1 H6P      0.406000
@<TRIPOS>BOND
     1    1    2 1   
     2    1    3 1   
     3    1    4 1   
     4    1   12 1   
     5    4    5 1   
     6    5    6 1   
     7    5    7 1   
     8    5    8 1   
     9    9   13 1   
    10    9   16 1   
    11    9   17 1   
    12    9   18 1   
    13   10   11 1   
    14   10   13 2   
    15   10   19 1   
    16   11   12 1   
    17   11   20 1   
    18   11   21 1   
    19   13   14 1   
    20   14   15 1   
    21   14   22 1   
    22   14   23 1   
    23   15   24 1   
@<TRIPOS>SUBSTRUCTURE
     1 H6P         1 TEMP              0 ****  ****    0 ROOT
