@<TRIPOS>MOLECULE
H70
   21    22     1     0     0
SMALL
bcc


@<TRIPOS>ATOM
      1 CH         -0.0250   -0.4310    0.0940 ca        1 H70     -0.063600
      2 CG          2.0970    0.0990    1.1850 ca        1 H70     -0.040000
      3 CD1         3.5500    0.1400    1.2010 cc        1 H70     -0.009300
      4 CD2         1.3820    0.6140    2.2720 ca        1 H70     -0.062000
      5 CE2        -0.0150    0.6200    2.2610 ca        1 H70     -0.011600
      6 CR          1.3830   -0.4490    0.0940 ca        1 H70      0.146100
      7 O           2.1210   -1.0050   -0.9220 oh        1 H70     -0.502100
      8 C3         -0.7250    0.1070    1.1740 ca        1 H70     -0.072000
      9 C7          5.6810   -0.5950    0.9360 cc        1 H70     -0.045200
     10 C8          5.7570    0.7190    1.4440 cd        1 H70     -0.054900
     11 C9          4.4090    1.1880    1.6090 cd        1 H70     -0.077900
     12 N11         4.3410   -0.9390    0.8090 na        1 H70     -0.122100
     13 BR1         3.9570    2.8620    2.1990 br        1 H70     -0.024100
     14 BR2         7.2850    1.6470    1.8230 br        1 H70     -0.012100
     15 CL1        -0.8610    1.2580    3.5870 cl        1 H70     -0.071400
     16 BR3         7.0650   -1.7330    0.5100 br        1 H70     -0.005100
     17 CL2        -0.9000   -1.0610   -1.2230 cl        1 H70     -0.077400
     18 H3         -1.8270    0.1220    1.1680 ha        1 H70      0.167000
     19 HD2         1.9300    1.0170    3.1410 ha        1 H70      0.172000
     20 H11         3.9900   -1.7560    0.3690 hn        1 H70      0.322700
     21 H           1.5300   -1.1840   -1.6720 ho        1 H70      0.442000
@<TRIPOS>BOND
     1    1    6 ar  
     2    1    8 ar  
     3    1   17 1   
     4    2    3 1   
     5    2    4 ar  
     6    2    6 ar  
     7    3   11 2   
     8    3   12 1   
     9    4    5 ar  
    10    4   19 1   
    11    5    8 ar  
    12    5   15 1   
    13    6    7 1   
    14    7   21 1   
    15    8   18 1   
    16    9   10 2   
    17    9   12 1   
    18    9   16 1   
    19   10   11 1   
    20   10   14 1   
    21   11   13 1   
    22   12   20 1   
@<TRIPOS>SUBSTRUCTURE
     1 H70         1 TEMP              0 ****  ****    0 ROOT
