@<TRIPOS>MOLECULE
H70
   21    22     1     0     0
SMALL
bcc


@<TRIPOS>ATOM
      1 CH          3.9180   -0.1710   -0.9740 ca        1 H70     -0.014600
      2 CG          1.7450    0.4730   -0.0650 ca        1 H70     -0.117000
      3 CD1         0.2920    0.3870   -0.0600 cc        1 H70     -0.040300
      4 CD2         2.3850    1.2950    0.8680 ca        1 H70     -0.062000
      5 CE2         3.7770    1.3840    0.8740 ca        1 H70     -0.019600
      6 CR          2.5080   -0.2680   -0.9910 ca        1 H70      0.173100
      7 O           1.9420   -1.0760   -1.9400 oh        1 H70     -0.473100
      8 C3          4.5440    0.6570   -0.0420 ca        1 H70     -0.075000
      9 C7         -1.8530    1.0350   -0.4040 cc        1 H70     -0.045200
     10 C8         -1.8980   -0.2330    0.2140 cd        1 H70     -0.055900
     11 C9         -0.5380   -0.6440    0.4340 cd        1 H70     -0.080900
     12 N11        -0.5210    1.3990   -0.5660 na        1 H70     -0.132100
     13 BR1        -0.0110   -2.2050    1.2300 br        1 H70     -0.012100
     14 BR2        -3.4020   -1.1720    0.6520 br        1 H70     -0.005100
     15 CL1         4.5520    2.3860    2.0060 cl        1 H70     -0.076400
     16 BR3        -3.2630    2.0910   -0.9390 br        1 H70      0.002900
     17 CL2         4.8790   -1.0390   -2.0680 cl        1 H70     -0.052400
     18 H3          5.6440    0.7330   -0.0270 ha        1 H70      0.167000
     19 HD2         1.7850    1.8620    1.5980 ha        1 H70      0.160000
     20 H11        -0.1970    2.2450   -0.9650 hn        1 H70      0.318700
     21 H           0.9960   -1.1710   -1.7400 ho        1 H70      0.440000
@<TRIPOS>BOND
     1    1    6 ar  
     2    1    8 ar  
     3    1   17 1   
     4    2    3 1   
     5    2    4 ar  
     6    2    6 ar  
     7    3   11 2   
     8    3   12 1   
     9    4    5 ar  
    10    4   19 1   
    11    5    8 ar  
    12    5   15 1   
    13    6    7 1   
    14    7   21 1   
    15    8   18 1   
    16    9   10 2   
    17    9   12 1   
    18    9   16 1   
    19   10   11 1   
    20   10   14 1   
    21   11   13 1   
    22   12   20 1   
@<TRIPOS>SUBSTRUCTURE
     1 H70         1 TEMP              0 ****  ****    0 ROOT
