@<TRIPOS>MOLECULE
H71
   49    52     1     0     0
SMALL
bcc


@<TRIPOS>ATOM
      1 C96         6.1900   -3.9550   -0.8820 c3        1 H71     -0.110100
      2 C95         5.8410   -2.7340   -0.0280 c3        1 H71      0.172500
      3 C97         7.1240   -1.9350    0.2150 c3        1 H71     -0.110100
      4 N94         4.7400   -1.9840   -0.6220 n3        1 H71     -0.820200
      5 C93         4.1590   -0.9890    0.2550 c3        1 H71      0.168800
      6 C92         3.1030   -0.1350   -0.4470 c3        1 H71     -0.105400
      7 C91         2.5050    0.8320    0.5760 c3        1 H71      0.039300
      8 N9          1.5180    1.7280    0.0400 na        1 H71     -0.224000
      9 C4          1.7570    2.8050   -0.8120 ca        1 H71      0.465800
     10 N3          2.9250    3.2910   -1.3430 nb        1 H71     -0.740000
     11 C2          2.7280    4.3760   -2.1230 ca        1 H71      0.697900
     12 N1          1.5810    5.0340   -2.4490 nb        1 H71     -0.804000
     13 C6          0.4050    4.5570   -1.9240 ca        1 H71      0.774200
     14 N6         -0.7910    5.1540   -2.2120 nh        1 H71     -0.956500
     15 C5          0.4480    3.4020   -1.0640 ca        1 H71     -0.245200
     16 N7         -0.5340    2.6980   -0.3760 nc        1 H71     -0.484100
     17 C8          0.1100    1.7020    0.2750 cd        1 H71      0.305700
     18 S          -0.6100    0.6010    1.3560 ss        1 H71      0.008900
     19 C1'        -1.4120   -0.5490    0.4010 ca        1 H71      0.001900
     20 C6'        -1.4710   -0.5660   -1.0070 ca        1 H71     -0.108000
     21 C5'        -2.1840   -1.6030   -1.5740 ca        1 H71      0.090100
     22 O3'        -2.4040   -1.8650   -2.9190 os        1 H71     -0.327900
     23 C'2        -3.2080   -3.0670   -2.9860 c3        1 H71      0.320200
     24 O1'        -3.4600   -3.5080   -1.6310 os        1 H71     -0.328900
     25 C4'        -2.8250   -2.6000   -0.7910 ca        1 H71      0.043100
     26 C3'        -2.7720   -2.5900    0.5890 ca        1 H71     -0.060000
     27 C2'        -2.0480   -1.5360    1.1650 ca        1 H71      0.007900
     28 I          -1.8600   -1.3560    3.1690 i         1 H71     -0.105900
     29 H961        6.9620   -4.5610   -0.3500 hc        1 H71      0.038533
     30 H962        5.2890   -4.5910   -1.0520 hc        1 H71      0.038533
     31 H963        6.6000   -3.6440   -1.8720 hc        1 H71      0.038533
     32 H95         5.4730   -3.1080    0.9750 h1        1 H71      0.054700
     33 H971        7.5300   -1.5350   -0.7450 hc        1 H71      0.038533
     34 H972        6.9390   -1.0790    0.9070 hc        1 H71      0.038533
     35 H973        7.8940   -2.5980    0.6750 hc        1 H71      0.038533
     36 HN94        5.0290   -1.5700   -1.4880 hn        1 H71      0.358800
     37 H931        3.6770   -1.5380    1.1140 h1        1 H71      0.030200
     38 H932        4.9360   -0.2960    0.6980 h1        1 H71      0.030200
     39 H921        3.5670    0.4390   -1.2920 hc        1 H71      0.065700
     40 H922        2.3020   -0.7900   -0.8780 hc        1 H71      0.065700
     41 H911        2.0150    0.2420    1.4060 h1        1 H71      0.074200
     42 H912        3.3350    1.4580    1.0170 h1        1 H71      0.074200
     43 H2          3.6470    4.8070   -2.5780 h5        1 H71      0.052100
     44 HN61       -1.6160    4.8080   -1.7880 hn        1 H71      0.451800
     45 HN62       -0.8300    5.9650   -2.7770 hn        1 H71      0.451800
     46 H6'        -0.9840    0.2040   -1.6190 ha        1 H71      0.173000
     47 H'21       -4.1850   -2.8140   -3.4670 h2        1 H71      0.076700
     48 H'22       -2.6230   -3.8580   -3.5170 h2        1 H71      0.076700
     49 H3'        -3.2690   -3.3600    1.1930 ha        1 H71      0.168000
@<TRIPOS>BOND
     1    1    2 1   
     2    1   29 1   
     3    1   30 1   
     4    1   31 1   
     5    2    3 1   
     6    2    4 1   
     7    2   32 1   
     8    3   33 1   
     9    3   34 1   
    10    3   35 1   
    11    4    5 1   
    12    4   36 1   
    13    5    6 1   
    14    5   37 1   
    15    5   38 1   
    16    6    7 1   
    17    6   39 1   
    18    6   40 1   
    19    7    8 1   
    20    7   41 1   
    21    7   42 1   
    22    8    9 1   
    23    8   17 1   
    24    9   10 ar  
    25    9   15 ar  
    26   10   11 ar  
    27   11   12 ar  
    28   11   43 1   
    29   12   13 ar  
    30   13   14 1   
    31   13   15 ar  
    32   14   44 1   
    33   14   45 1   
    34   15   16 1   
    35   16   17 2   
    36   17   18 1   
    37   18   19 1   
    38   19   20 ar  
    39   19   27 ar  
    40   20   21 ar  
    41   20   46 1   
    42   21   22 1   
    43   21   25 ar  
    44   22   23 1   
    45   23   24 1   
    46   23   47 1   
    47   23   48 1   
    48   24   25 1   
    49   25   26 ar  
    50   26   27 ar  
    51   26   49 1   
    52   27   28 1   
@<TRIPOS>SUBSTRUCTURE
     1 H71         1 TEMP              0 ****  ****    0 ROOT
