@<TRIPOS>MOLECULE
H71
   51    54     1     0     0
SMALL
bcc


@<TRIPOS>ATOM
      1 C96         0.0630    0.1670    0.4780 c3        1 H71     -0.138600
      2 C95         1.5470    0.2060    0.1400 c3        1 H71      0.137500
      3 C97         2.3630    0.5490    1.3770 c3        1 H71     -0.138600
      4 N94         1.9840   -1.1200   -0.4610 n4        1 H71     -0.771000
      5 C93         3.2130   -0.9950   -1.2940 c3        1 H71      0.102800
      6 C92         3.6860   -2.3350   -1.8490 c3        1 H71     -0.134400
      7 C91         4.9690   -2.0910   -2.6590 c3        1 H71      0.053300
      8 N9          5.5610   -3.2850   -3.1880 na        1 H71     -0.267000
      9 C4          6.3440   -4.2040   -2.4660 ca        1 H71      0.451800
     10 N3          6.5840   -4.3340   -1.1450 nb        1 H71     -0.648000
     11 C2          7.4150   -5.3740   -0.8350 ca        1 H71      0.669900
     12 N1          8.0050   -6.2640   -1.6730 nb        1 H71     -0.661000
     13 C6          7.7500   -6.1230   -3.0030 ca        1 H71      0.496200
     14 N6          8.3750   -7.0540   -3.9580 n4        1 H71     -0.810300
     15 C5          6.9120   -5.1070   -3.4940 ca        1 H71     -0.089200
     16 N7          6.4810   -4.7290   -4.7610 nc        1 H71     -0.599100
     17 C8          5.6890   -3.6370   -4.5680 cd        1 H71      0.449700
     18 S           4.8880   -2.7320   -5.7420 ss        1 H71      0.061900
     19 C1'         5.3480   -3.3480   -7.2470 ca        1 H71     -0.104100
     20 C6'         4.6640   -4.4790   -7.7500 ca        1 H71     -0.052000
     21 C5'         4.9560   -4.8530   -9.0420 ca        1 H71      0.053100
     22 O3'         4.4390   -5.9050   -9.7810 os        1 H71     -0.319900
     23 C'2         5.0490   -5.8360  -11.0970 c3        1 H71      0.319200
     24 O1'         5.9860   -4.7220  -11.0790 os        1 H71     -0.302900
     25 C4'         5.8990   -4.1380   -9.8350 ca        1 H71      0.133100
     26 C3'         6.5770   -3.0350   -9.3450 ca        1 H71     -0.107000
     27 C2'         6.2870   -2.6580   -8.0240 ca        1 H71      0.100900
     28 I           7.2550   -1.0450   -7.2750 i         1 H71     -0.087900
     29 H961       -0.2330    1.1780    0.8620 hc        1 H71      0.084533
     30 H962       -0.5640   -0.0540   -0.4200 hc        1 H71      0.084533
     31 H963       -0.1590   -0.5820    1.2770 hc        1 H71      0.084533
     32 H95         1.7260    0.9870   -0.6610 hx        1 H71      0.108700
     33 H971        2.0290    1.5530    1.7460 hc        1 H71      0.084533
     34 H972        3.4550    0.6110    1.1530 hc        1 H71      0.084533
     35 H973        2.1970   -0.1920    2.1980 hc        1 H71      0.084533
     36 HN94        1.2180   -1.4870   -1.0380 hn        1 H71      0.451300
     37 H931        2.9870   -0.2840   -2.1410 hx        1 H71      0.111700
     38 H932        4.0200   -0.5370   -0.6500 hx        1 H71      0.111700
     39 H921        2.8980   -2.7910   -2.5050 hc        1 H71      0.084700
     40 H922        3.9000   -3.0550   -1.0130 hc        1 H71      0.084700
     41 H911        5.7280   -1.5850   -1.9910 h1        1 H71      0.091200
     42 H912        4.7380   -1.4030   -3.5270 h1        1 H71      0.091200
     43 H2          7.6440   -5.5110    0.2490 h5        1 H71      0.103100
     44 HN61        7.6380   -7.4720   -4.5410 hn        1 H71      0.480800
     45 HN62        9.0200   -6.5240   -4.5580 hn        1 H71      0.480800
     46 H6'         3.9260   -5.0230   -7.1430 ha        1 H71      0.169000
     47 H'21        4.2540   -5.6190  -11.8530 h2        1 H71      0.101200
     48 H'22        5.6250   -6.7770  -11.2740 h2        1 H71      0.101200
     49 H3'         7.3000   -2.4860   -9.9690 ha        1 H71      0.194000
     50 H942        2.1540   -1.7870    0.3010 hn        1 H71      0.451300
     51 H63         8.8930   -7.7980   -3.4680 hn        1 H71      0.480800
@<TRIPOS>BOND
     1    1    2 1   
     2    1   29 1   
     3    1   30 1   
     4    1   31 1   
     5    2    3 1   
     6    2    4 1   
     7    2   32 1   
     8    3   33 1   
     9    3   34 1   
    10    3   35 1   
    11    4    5 1   
    12    4   36 1   
    13    4   50 1   
    14    5    6 1   
    15    5   37 1   
    16    5   38 1   
    17    6    7 1   
    18    6   39 1   
    19    6   40 1   
    20    7    8 1   
    21    7   41 1   
    22    7   42 1   
    23    8    9 1   
    24    8   17 1   
    25    9   10 ar  
    26    9   15 ar  
    27   10   11 ar  
    28   11   12 ar  
    29   11   43 1   
    30   12   13 ar  
    31   13   14 1   
    32   13   15 ar  
    33   14   44 1   
    34   14   45 1   
    35   14   51 1   
    36   15   16 1   
    37   16   17 2   
    38   17   18 1   
    39   18   19 1   
    40   19   20 ar  
    41   19   27 ar  
    42   20   21 ar  
    43   20   46 1   
    44   21   22 1   
    45   21   25 ar  
    46   22   23 1   
    47   23   24 1   
    48   23   47 1   
    49   23   48 1   
    50   24   25 1   
    51   25   26 ar  
    52   26   27 ar  
    53   26   49 1   
    54   27   28 1   
@<TRIPOS>SUBSTRUCTURE
     1 H71         1 TEMP              0 ****  ****    0 ROOT
