@<TRIPOS>MOLECULE
H71
   49    45     1     0     0
SMALL
bcc


@<TRIPOS>ATOM
      1 C96        -3.9580    2.7400    4.7560 c3        1 H71     -0.212500
      2 C95        -2.4440    2.8790    4.6000 c3        1 H71     -0.020000
      3 C97        -1.8010    3.0150    5.9770 c3        1 H71     -0.212500
      4 N94        -1.9160    1.7100    3.9380 n3        1 H71     -0.300000
      5 C93        -1.1720    2.1130    2.7700 c3        1 H71     -0.069000
      6 C92        -0.5740    0.8670    2.0920 c3        1 H71     -0.184000
      7 C91         0.4020    1.3000    1.0030 c3        1 H71     -0.021000
      8 N9          0.9040    0.1220    0.3020 n3        1 H71     -0.141000
      9 C4          1.8770   -0.7160    0.7640 c1        1 H71     -0.087000
     10 N3          2.5820   -0.7380    1.9410 n1        1 H71     -0.132500
     11 C2          3.4090   -1.7840    2.2210 c1        1 H71      0.036000
     12 N1          3.5350   -2.7990    1.3420 n1        1 H71     -0.278000
     13 C6          2.8370   -2.7790    0.1730 c1        1 H71      0.253000
     14 N6          3.1220   -3.9650   -0.5150 n3        1 H71     -0.354000
     15 C5          2.0030   -1.7260   -0.1110 c1        1 H71     -0.255000
     16 N7          1.1110   -1.5240   -1.1200 n1        1 H71     -0.132500
     17 C8          0.4370   -0.3830   -0.8590 c1        1 H71     -0.087000
     18 S          -0.6780    0.1870   -2.1590 s         1 H71      0.462000
     19 C1'        -0.0940   -0.4040   -3.7550 c2        1 H71     -0.226000
     20 C6'        -0.6870   -1.5250   -4.3440 c2        1 H71     -0.110000
     21 C5'        -0.2790   -1.9490   -5.6190 c1        1 H71      0.045000
     22 O3'        -0.6680   -3.0720   -6.4310 o         1 H71     -0.211000
     23 C'2         0.1810   -3.1180   -7.5390 c3        1 H71      0.098000
     24 O1'         1.0540   -2.0060   -7.4620 os        1 H71     -0.212000
     25 C4'         0.7110   -1.2570   -6.2950 c2        1 H71     -0.004000
     26 C3'         1.3090   -0.1270   -5.7030 c1        1 H71     -0.060000
     27 C2'         0.9030    0.2940   -4.4350 c1        1 H71     -0.280000
     28 I           1.7300    2.0800   -3.5820 i         1 H71      0.180000
     29 H961       -4.3200    3.5520    5.1840 hc        1 H71      0.078500
     30 H962       -4.1600    1.9580    5.3140 hc        1 H71      0.078500
     31 H963       -4.3720    2.6250    3.8650 hc        1 H71      0.078500
     32 H95        -2.2450    3.6660    4.0710 h1        1 H71      0.055000
     33 H971       -2.2900    3.6900    6.5020 hc        1 H71      0.078500
     34 H972       -1.8350    2.1480    6.4430 hc        1 H71      0.078500
     35 H973       -0.8690    3.2940    5.8750 hc        1 H71      0.078500
     36 HN94       -2.6020    1.1670    3.6880 hn        1 H71      0.155000
     37 H931       -0.4450    2.7240    3.0380 h1        1 H71      0.069500
     38 H932       -1.7700    2.5720    2.1430 h1        1 H71      0.069500
     39 H921       -0.0970    0.3240    2.7640 hc        1 H71      0.104000
     40 H922       -1.3060    0.3260    1.6870 hc        1 H71      0.104000
     41 H911        1.1620    1.7890    1.4150 h1        1 H71      0.114500
     42 H912       -0.0570    1.8850    0.3690 h1        1 H71      0.114500
     43 H2          3.9150   -1.8000    3.0670 ha        1 H71      0.191000
     44 HN61        2.7390   -4.1230   -1.3250 hn        1 H71      0.247000
     45 HN62        3.7110   -4.5710   -0.1590 hn        1 H71      0.247000
     46 H6'        -1.3670   -2.0290   -3.8570 ha        1 H71      0.173000
     47 H'21        0.7050   -3.9400   -7.5070 h2        1 H71      0.116000
     48 H'22       -0.3460   -3.0520   -8.3460 h2        1 H71      0.116000
     49 H3'         2.0110    0.3640   -6.1820 ha        1 H71      0.169000
@<TRIPOS>BOND
     1    1    2 1   
     2    1   29 1   
     3    1   30 1   
     4    1   31 1   
     5    2    3 1   
     6    2    4 1   
     7    2   32 1   
     8    3   33 1   
     9    3   34 1   
    10    3   35 1   
    11    4    5 1   
    12    4   36 1   
    13    5    6 1   
    14    5   37 1   
    15    5   38 1   
    16    6    7 1   
    17    6   39 1   
    18    6   40 1   
    19    7    8 1   
    20    7   41 1   
    21    7   42 1   
    22    8    9 1   
    23    8   17 1   
    24    9   10 1   
    25   11   12 1   
    26   11   43 1   
    27   13   14 1   
    28   13   15 1   
    29   14   44 1   
    30   14   45 1   
    31   16   17 1   
    32   18   19 1   
    33   19   20 1   
    34   19   27 1   
    35   20   21 1   
    36   20   46 1   
    37   21   25 1   
    38   22   23 1   
    39   23   24 1   
    40   23   47 1   
    41   23   48 1   
    42   24   25 1   
    43   25   26 1   
    44   26   49 1   
    45   27   28 1   
@<TRIPOS>SUBSTRUCTURE
     1 H71         1 TEMP              0 ****  ****    0 ROOT
