@<TRIPOS>MOLECULE
H71
   50    53     1     0     0
SMALL
bcc


@<TRIPOS>ATOM
      1 C96         1.2270   -0.4540    0.2030 c3        1 H71     -0.129600
      2 C95         2.6260   -1.0540    0.2480 c3        1 H71      0.133500
      3 C97         2.6700   -2.1860    1.2690 c3        1 H71     -0.129600
      4 N94         3.0810   -1.5430   -1.1010 ny        1 H71     -0.798000
      5 C93         3.3650   -0.4350   -2.0490 c3        1 H71      0.108800
      6 C92         3.9180   -0.9020   -3.3890 c3        1 H71     -0.123400
      7 C91         5.4180   -1.2130   -3.3500 c3        1 H71      0.028300
      8 N9          5.7650   -2.6000   -3.4510 na        1 H71     -0.258000
      9 C4          5.7010   -3.5500   -2.4280 ca        1 H71      0.466800
     10 N3          5.0880   -3.5120   -1.2060 nb        1 H71     -0.878000
     11 C2          5.2560   -4.6570   -0.4900 ca        1 H71      0.728900
     12 N1          5.9130   -5.7890   -0.8100 nb        1 H71     -0.779000
     13 C6          6.5290   -5.8550   -2.0510 ca        1 H71      0.793200
     14 N6          7.1950   -6.9700   -2.4430 nv        1 H71     -0.917500
     15 C5          6.4370   -4.7070   -2.9160 ca        1 H71     -0.233200
     16 N7          6.9540   -4.4390   -4.1840 nc        1 H71     -0.471100
     17 C8          6.5640   -3.1890   -4.4940 cd        1 H71      0.337700
     18 S           6.9880   -2.2970   -5.8810 ss        1 H71     -0.000100
     19 C1'         6.2710   -3.0730   -7.2170 ca        1 H71     -0.010100
     20 C6'         5.4760   -4.2320   -7.2070 ca        1 H71     -0.108000
     21 C5'         5.0130   -4.6610   -8.4350 ca        1 H71      0.089100
     22 O3'         4.2160   -5.7590   -8.7190 os        1 H71     -0.328900
     23 C'2         4.0270   -5.7820  -10.1580 c3        1 H71      0.320200
     24 O1'         4.7240   -4.6370  -10.7090 os        1 H71     -0.318900
     25 C4'         5.3210   -3.9780   -9.6430 ca        1 H71      0.060100
     26 C3'         6.1030   -2.8390   -9.6600 ca        1 H71     -0.056000
     27 C2'         6.5690   -2.4040   -8.4120 ca        1 H71      0.014900
     28 I           7.7280   -0.7620   -8.1960 i         1 H71     -0.085900
     29 H961        0.4710   -1.2030   -0.1370 hc        1 H71      0.073367
     30 H962        0.9520   -0.1260    1.2370 hc        1 H71      0.073367
     31 H963        1.1830    0.4400   -0.4650 hc        1 H71      0.073367
     32 H95         3.3650   -0.2530    0.5580 hx        1 H71      0.099700
     33 H971        3.6840   -2.6550    1.3190 hc        1 H71      0.073367
     34 H972        2.4320   -1.7590    2.2760 hc        1 H71      0.073367
     35 H973        1.9140   -2.9730    1.0340 hc        1 H71      0.073367
     36 HN94        2.3530   -2.1440   -1.4970 hn        1 H71      0.472800
     37 H931        4.0970    0.2670   -1.5540 hx        1 H71      0.097700
     38 H932        2.4020    0.1280   -2.2240 hx        1 H71      0.097700
     39 H921        3.3250   -1.7650   -3.7920 hc        1 H71      0.092200
     40 H922        3.7670   -0.0480   -4.1080 hc        1 H71      0.092200
     41 H911        5.9060   -0.6880   -4.2290 h1        1 H71      0.086200
     42 H912        5.8690   -0.7930   -2.4030 h1        1 H71      0.086200
     43 H2          4.7850   -4.6650    0.5190 h5        1 H71      0.052100
     44 HN61        7.6490   -6.9800   -3.3270 hn        1 H71      0.467300
     45 HN62        7.2740   -7.7580   -1.8440 hn        1 H71      0.467300
     46 H6'         5.2410   -4.7770   -6.2840 ha        1 H71      0.165000
     47 H'21        2.9360   -5.6730  -10.3740 h2        1 H71      0.086200
     48 H'22        4.4930   -6.7130  -10.5630 h2        1 H71      0.086200
     49 H3'         6.3440   -2.3140  -10.5950 ha        1 H71      0.179000
     50 H942        3.9480   -2.1430   -0.9780 hn        1 H71      0.472800
@<TRIPOS>BOND
     1    1    2 1   
     2    1   29 1   
     3    1   30 1   
     4    1   31 1   
     5    2    3 1   
     6    2    4 1   
     7    2   32 1   
     8    3   33 1   
     9    3   34 1   
    10    3   35 1   
    11    4    5 1   
    12    4   36 1   
    13    4   50 1   
    14    5    6 1   
    15    5   37 1   
    16    5   38 1   
    17    6    7 1   
    18    6   39 1   
    19    6   40 1   
    20    7    8 1   
    21    7   41 1   
    22    7   42 1   
    23    8    9 1   
    24    8   17 1   
    25    9   10 ar  
    26    9   15 ar  
    27   10   11 ar  
    28   11   12 ar  
    29   11   43 1   
    30   12   13 ar  
    31   13   14 1   
    32   13   15 ar  
    33   14   44 1   
    34   14   45 1   
    35   15   16 1   
    36   16   17 2   
    37   17   18 1   
    38   18   19 1   
    39   19   20 ar  
    40   19   27 ar  
    41   20   21 ar  
    42   20   46 1   
    43   21   22 1   
    44   21   25 ar  
    45   22   23 1   
    46   23   24 1   
    47   23   47 1   
    48   23   48 1   
    49   24   25 1   
    50   25   26 ar  
    51   26   27 ar  
    52   26   49 1   
    53   27   28 1   
@<TRIPOS>SUBSTRUCTURE
     1 H71         1 TEMP              0 ****  ****    0 ROOT
