@<TRIPOS>MOLECULE
H71
   50    53     1     0     0
SMALL
bcc


@<TRIPOS>ATOM
      1 C96         1.2650   -0.5070    0.2640 c3        1 H71     -0.129600
      2 C95         2.6940   -1.0320    0.2690 c3        1 H71      0.133500
      3 C97         2.8390   -2.1260    1.3210 c3        1 H71     -0.129600
      4 N94         3.1200   -1.5400   -1.0830 n4        1 H71     -0.798000
      5 C93         3.3110   -0.4490   -2.0740 c3        1 H71      0.108800
      6 C92         3.8320   -0.9290   -3.4220 c3        1 H71     -0.123400
      7 C91         5.3460   -1.1660   -3.4360 c3        1 H71      0.028300
      8 N9          5.7570   -2.5360   -3.5110 na        1 H71     -0.258000
      9 C4          5.7830   -3.4560   -2.4580 ca        1 H71      0.466800
     10 N3          5.2200   -3.4090   -1.2120 nb        1 H71     -0.878000
     11 C2          5.4740   -4.5200   -0.4700 ca        1 H71      0.728900
     12 N1          6.1730   -5.6290   -0.7840 nb        1 H71     -0.779000
     13 C6          6.7400   -5.7040   -2.0480 ca        1 H71      0.793200
     14 N6          7.4440   -6.7970   -2.4350 nh        1 H71     -0.917500
     15 C5          6.5550   -4.5900   -2.9430 ca        1 H71     -0.233200
     16 N7          7.0050   -4.3380   -4.2390 nc        1 H71     -0.471100
     17 C8          6.5410   -3.1190   -4.5680 cd        1 H71      0.337700
     18 S           6.8620   -2.2520   -5.9990 ss        1 H71     -0.000100
     19 C1'         6.1290   -3.1030   -7.2790 ca        1 H71     -0.010100
     20 C6'         5.3910   -4.2970   -7.1990 ca        1 H71     -0.108000
     21 C5'         4.8990   -4.7870   -8.3930 ca        1 H71      0.089100
     22 O3'         4.1450   -5.9300   -8.6090 os        1 H71     -0.328900
     23 C'2         3.8980   -6.0070  -10.0370 c3        1 H71      0.320200
     24 O1'         4.5140   -4.8490  -10.6510 os        1 H71     -0.318900
     25 C4'         5.1220   -4.1290   -9.6330 ca        1 H71      0.060100
     26 C3'         5.8480   -2.9560   -9.7180 ca        1 H71     -0.056000
     27 C2'         6.3430   -2.4590   -8.5050 ca        1 H71      0.014900
     28 I           7.4300   -0.7590   -8.3890 i         1 H71     -0.085900
     29 H961        1.0140   -0.1610    1.2980 hc        1 H71      0.073367
     30 H962        0.5370   -1.3050   -0.0220 hc        1 H71      0.073367
     31 H963        1.1470    0.3610   -0.4290 hc        1 H71      0.073367
     32 H95         3.4010   -0.1840    0.5240 hx        1 H71      0.099700
     33 H971        2.6190   -1.6810    2.3230 hc        1 H71      0.073367
     34 H972        3.8770   -2.5410    1.3430 hc        1 H71      0.073367
     35 H973        2.1180   -2.9600    1.1400 hc        1 H71      0.073367
     36 HN94        2.4100   -2.1880   -1.4310 hn        1 H71      0.472800
     37 H931        4.0260    0.3030   -1.6290 hx        1 H71      0.097700
     38 H932        2.3150    0.0610   -2.2240 hx        1 H71      0.097700
     39 H921        3.6090   -0.1060   -4.1570 hc        1 H71      0.092200
     40 H922        3.2670   -1.8320   -3.7740 hc        1 H71      0.092200
     41 H911        5.7710   -0.6450   -4.3500 h1        1 H71      0.086200
     42 H912        5.8130   -0.6950   -2.5220 h1        1 H71      0.086200
     43 H2          5.0470   -4.5190    0.5580 h5        1 H71      0.052100
     44 HN61        7.5880   -7.5600   -1.8160 hn        1 H71      0.467300
     45 HN62        7.8620   -6.8140   -3.3370 hn        1 H71      0.467300
     46 H6'         5.2220   -4.8230   -6.2510 ha        1 H71      0.165000
     47 H'21        4.3910   -6.9280  -10.4340 h2        1 H71      0.086200
     48 H'22        2.7950   -5.9570  -10.2090 h2        1 H71      0.086200
     49 H3'         6.0240   -2.4500  -10.6780 ha        1 H71      0.179000
     50 H942        4.0220   -2.0910   -0.9780 hn        1 H71      0.472800
@<TRIPOS>BOND
     1    1    2 1   
     2    1   29 1   
     3    1   30 1   
     4    1   31 1   
     5    2    3 1   
     6    2    4 1   
     7    2   32 1   
     8    3   33 1   
     9    3   34 1   
    10    3   35 1   
    11    4    5 1   
    12    4   36 1   
    13    4   50 1   
    14    5    6 1   
    15    5   37 1   
    16    5   38 1   
    17    6    7 1   
    18    6   39 1   
    19    6   40 1   
    20    7    8 1   
    21    7   41 1   
    22    7   42 1   
    23    8    9 1   
    24    8   17 1   
    25    9   10 ar  
    26    9   15 ar  
    27   10   11 ar  
    28   11   12 ar  
    29   11   43 1   
    30   12   13 ar  
    31   13   14 1   
    32   13   15 ar  
    33   14   44 1   
    34   14   45 1   
    35   15   16 1   
    36   16   17 2   
    37   17   18 1   
    38   18   19 1   
    39   19   20 ar  
    40   19   27 ar  
    41   20   21 ar  
    42   20   46 1   
    43   21   22 1   
    44   21   25 ar  
    45   22   23 1   
    46   23   24 1   
    47   23   47 1   
    48   23   48 1   
    49   24   25 1   
    50   25   26 ar  
    51   26   27 ar  
    52   26   49 1   
    53   27   28 1   
@<TRIPOS>SUBSTRUCTURE
     1 H71         1 TEMP              0 ****  ****    0 ROOT
