@<TRIPOS>MOLECULE
H75
   30    32     1     0     0
SMALL
bcc


@<TRIPOS>ATOM
      1 O1         -0.0770    0.5510    0.0600 o         1 H75     -0.627500
      2 C2          1.1590    0.4160    0.0280 c         1 H75      0.777500
      3 N3          2.0360    0.4800    1.1530 n         1 H75     -0.337000
      4 C4          1.6370    0.1320    2.4920 c3        1 H75      0.102000
      5 C5          2.7980    0.2370    3.4830 c3        1 H75     -0.088400
      6 C6          4.0420   -0.4590    2.9700 c3        1 H75     -0.080400
      7 C7          4.4920    0.1060    1.6320 c3        1 H75     -0.012200
      8 C8          3.3560    0.2170    0.6910 cc        1 H75     -0.066600
      9 C9          3.3320    0.1290   -0.6880 cd        1 H75     -0.116400
     10 N10         1.9940    0.2860   -1.1340 n         1 H75     -0.270200
     11 C11         1.5640    0.0860   -2.4530 ca        1 H75      0.096600
     12 C12         2.4830    0.1860   -3.5240 ca        1 H75     -0.163000
     13 C13         2.0600   -0.0020   -4.8340 ca        1 H75     -0.079500
     14 C14         0.7220   -0.2870   -5.1170 ca        1 H75     -0.052900
     15 BR          0.1650   -0.5410   -6.8840 br        1 H75     -0.087100
     16 C16        -0.1960   -0.3770   -4.0670 ca        1 H75     -0.079500
     17 C17         0.2110   -0.1960   -2.7500 ca        1 H75     -0.163000
     18 H4          1.2250   -0.9190    2.5130 h1        1 H75      0.058200
     19 H4A         0.8070    0.8340    2.7910 h1        1 H75      0.058200
     20 H5          3.0260    1.3170    3.6830 hc        1 H75      0.057200
     21 H5A         2.4700   -0.2280    4.4480 hc        1 H75      0.057200
     22 H6          3.8380   -1.5560    2.8610 hc        1 H75      0.050200
     23 H6A         4.8720   -0.3420    3.7150 hc        1 H75      0.050200
     24 H7          4.9390    1.1270    1.7850 hc        1 H75      0.060700
     25 H7A         5.2840   -0.5500    1.1860 hc        1 H75      0.060700
     26 H9          4.1530   -0.0360   -1.3850 h4        1 H75      0.183000
     27 H12         3.5410    0.4250   -3.3400 ha        1 H75      0.157500
     28 H13         2.7960    0.0810   -5.6500 ha        1 H75      0.149000
     29 H16        -1.2570   -0.5940   -4.2710 ha        1 H75      0.149000
     30 H17        -0.5380   -0.2630   -1.9430 ha        1 H75      0.157500
@<TRIPOS>BOND
     1    1    2 2   
     2    2    3 1   
     3    2   10 1   
     4    3    4 1   
     5    3    8 1   
     6    4    5 1   
     7    4   18 1   
     8    4   19 1   
     9    5    6 1   
    10    5   20 1   
    11    5   21 1   
    12    6    7 1   
    13    6   22 1   
    14    6   23 1   
    15    7    8 1   
    16    7   24 1   
    17    7   25 1   
    18    8    9 2   
    19    9   10 1   
    20    9   26 1   
    21   10   11 1   
    22   11   12 ar  
    23   11   17 ar  
    24   12   13 ar  
    25   12   27 1   
    26   13   14 ar  
    27   13   28 1   
    28   14   15 1   
    29   14   16 ar  
    30   16   17 ar  
    31   16   29 1   
    32   17   30 1   
@<TRIPOS>SUBSTRUCTURE
     1 H75         1 TEMP              0 ****  ****    0 ROOT
