@<TRIPOS>MOLECULE
H75
   30    32     1     0     0
SMALL
bcc


@<TRIPOS>ATOM
      1 O1         -0.0830    0.5420    0.0580 o         1 H75     -0.627500
      2 C2          1.1520    0.4110    0.0280 c         1 H75      0.777500
      3 N3          2.0280    0.4770    1.1540 n         1 H75     -0.337000
      4 C4          1.6280    0.1270    2.4920 c3        1 H75      0.102000
      5 C5          2.7880    0.2350    3.4850 c3        1 H75     -0.088400
      6 C6          4.0350   -0.4570    2.9730 c3        1 H75     -0.080400
      7 C7          4.4840    0.1110    1.6360 c3        1 H75     -0.012200
      8 C8          3.3500    0.2190    0.6930 cc        1 H75     -0.066600
      9 C9          3.3280    0.1310   -0.6850 cd        1 H75     -0.116400
     10 N10         1.9900    0.2850   -1.1330 n         1 H75     -0.270200
     11 C11         1.5620    0.0850   -2.4530 ca        1 H75      0.096600
     12 C12         2.4810    0.1890   -3.5220 ca        1 H75     -0.163000
     13 C13         2.0610    0.0020   -4.8340 ca        1 H75     -0.079500
     14 C14         0.7250   -0.2870   -5.1180 ca        1 H75     -0.052900
     15 BR          0.1710   -0.5400   -6.8870 br        1 H75     -0.087100
     16 C16        -0.1940   -0.3810   -4.0700 ca        1 H75     -0.079500
     17 C17         0.2100   -0.2010   -2.7520 ca        1 H75     -0.163000
     18 H4          0.7970    0.8270    2.7910 h1        1 H75      0.058200
     19 H4A         1.2190   -0.9250    2.5120 h1        1 H75      0.058200
     20 H5          2.4610   -0.2320    4.4490 hc        1 H75      0.057200
     21 H5A         3.0130    1.3150    3.6860 hc        1 H75      0.057200
     22 H6          3.8340   -1.5550    2.8630 hc        1 H75      0.050200
     23 H6A         4.8630   -0.3380    3.7190 hc        1 H75      0.050200
     24 H7          4.9280    1.1320    1.7900 hc        1 H75      0.060700
     25 H7A         5.2800   -0.5430    1.1900 hc        1 H75      0.060700
     26 H9          4.1500   -0.0300   -1.3810 h4        1 H75      0.183000
     27 H12         3.5380    0.4310   -3.3370 ha        1 H75      0.157500
     28 H13         2.7980    0.0880   -5.6480 ha        1 H75      0.149000
     29 H16        -1.2540   -0.6010   -4.2760 ha        1 H75      0.149000
     30 H17        -0.5400   -0.2710   -1.9460 ha        1 H75      0.157500
@<TRIPOS>BOND
     1    1    2 2   
     2    2    3 1   
     3    2   10 1   
     4    3    4 1   
     5    3    8 1   
     6    4    5 1   
     7    4   18 1   
     8    4   19 1   
     9    5    6 1   
    10    5   20 1   
    11    5   21 1   
    12    6    7 1   
    13    6   22 1   
    14    6   23 1   
    15    7    8 1   
    16    7   24 1   
    17    7   25 1   
    18    8    9 2   
    19    9   10 1   
    20    9   26 1   
    21   10   11 1   
    22   11   12 ar  
    23   11   17 ar  
    24   12   13 ar  
    25   12   27 1   
    26   13   14 ar  
    27   13   28 1   
    28   14   15 1   
    29   14   16 ar  
    30   16   17 ar  
    31   16   29 1   
    32   17   30 1   
@<TRIPOS>SUBSTRUCTURE
     1 H75         1 TEMP              0 ****  ****    0 ROOT
