@<TRIPOS>MOLECULE
H75
   30    32     1     0     0
SMALL
bcc


@<TRIPOS>ATOM
      1 O1         -0.1360    0.1770    0.0860 o         1 H75     -0.623500
      2 C2          1.1030    0.2660    0.0500 c         1 H75      0.774500
      3 N3          1.9690    0.3750    1.1810 n         1 H75     -0.336000
      4 C4          1.6650   -0.1910    2.4700 c3        1 H75      0.100000
      5 C5          2.7980    0.0300    3.4750 c3        1 H75     -0.088400
      6 C6          4.1460   -0.3510    2.8970 c3        1 H75     -0.080400
      7 C7          4.4570    0.4290    1.6310 c3        1 H75     -0.012200
      8 C8          3.3070    0.4140    0.6990 cc        1 H75     -0.064600
      9 C9          3.2810    0.4610   -0.6810 cd        1 H75     -0.121400
     10 N10         1.9310    0.4200   -1.1180 n         1 H75     -0.264200
     11 C11         1.5280    0.1350   -2.4330 ca        1 H75      0.086600
     12 C12         2.4640   -0.2810   -3.4070 ca        1 H75     -0.157500
     13 C13         2.0620   -0.5060   -4.7190 ca        1 H75     -0.082000
     14 C14         0.7280   -0.3370   -5.0920 ca        1 H75     -0.049900
     15 Br          0.1980   -0.6440   -6.8600 br        1 H75     -0.087100
     16 C16        -0.2080    0.0610   -4.1340 ca        1 H75     -0.082000
     17 C17         0.1780    0.2970   -2.8200 ca        1 H75     -0.157500
     18 H4          1.4650   -1.2980    2.3730 h1        1 H75      0.057700
     19 H4A         0.7190    0.2990    2.8400 h1        1 H75      0.057700
     20 H5          2.8160    1.1050    3.7930 hc        1 H75      0.057200
     21 H5A         2.5810   -0.5930    4.3810 hc        1 H75      0.057200
     22 H6          4.1570   -1.4500    2.6700 hc        1 H75      0.050200
     23 H6A         4.9480   -0.1550    3.6550 hc        1 H75      0.050200
     24 H7          4.6980    1.4960    1.8940 hc        1 H75      0.061200
     25 H7A         5.3560   -0.0070    1.1220 hc        1 H75      0.061200
     26 H9          4.1070    0.5600   -1.3850 h4        1 H75      0.183000
     27 H12         3.5210   -0.4380   -3.1450 ha        1 H75      0.157500
     28 H13         2.8130   -0.8260   -5.4600 ha        1 H75      0.149000
     29 H16        -1.2670    0.1930   -4.4100 ha        1 H75      0.149000
     30 H17        -0.5810    0.6020   -2.0790 ha        1 H75      0.157500
@<TRIPOS>BOND
     1    1    2 2   
     2    2    3 1   
     3    2   10 1   
     4    3    4 1   
     5    3    8 1   
     6    4    5 1   
     7    4   18 1   
     8    4   19 1   
     9    5    6 1   
    10    5   20 1   
    11    5   21 1   
    12    6    7 1   
    13    6   22 1   
    14    6   23 1   
    15    7    8 1   
    16    7   24 1   
    17    7   25 1   
    18    8    9 2   
    19    9   10 1   
    20    9   26 1   
    21   10   11 1   
    22   11   12 ar  
    23   11   17 ar  
    24   12   13 ar  
    25   12   27 1   
    26   13   14 ar  
    27   13   28 1   
    28   14   15 1   
    29   14   16 ar  
    30   16   17 ar  
    31   16   29 1   
    32   17   30 1   
@<TRIPOS>SUBSTRUCTURE
     1 H75         1 TEMP              0 ****  ****    0 ROOT
