@<TRIPOS>MOLECULE
H75
   30    32     1     0     0
SMALL
bcc


@<TRIPOS>ATOM
      1 O1          1.8410   -2.1930    0.5620 o         1 H75     -0.627500
      2 C2          2.1730   -1.0040    0.4130 c         1 H75      0.777500
      3 N3          3.5070   -0.4980    0.4510 n         1 H75     -0.337000
      4 C4          4.6630   -1.2770    0.0880 c3        1 H75      0.102000
      5 C5          5.9540   -0.4600    0.1650 c3        1 H75     -0.088400
      6 C6          5.8190    0.8760   -0.5370 c3        1 H75     -0.080400
      7 C7          4.6840    1.7040    0.0420 c3        1 H75     -0.012200
      8 C8          3.4510    0.8980    0.1800 cc        1 H75     -0.066600
      9 C9          2.1260    1.2820    0.1120 cd        1 H75     -0.116400
     10 N10         1.3080    0.1360    0.2910 n         1 H75     -0.270200
     11 C11        -0.0830    0.1130    0.1150 ca        1 H75      0.096600
     12 C12        -0.8330    1.3080    0.2200 ca        1 H75     -0.163000
     13 C13        -2.2130    1.2900    0.0560 ca        1 H75     -0.079500
     14 C14        -2.8830    0.0930   -0.2090 ca        1 H75     -0.052900
     15 BR         -4.7400    0.0820   -0.4310 br        1 H75     -0.087100
     16 C16        -2.1530   -1.0940   -0.3040 ca        1 H75     -0.079500
     17 C17        -0.7720   -1.0930   -0.1470 ca        1 H75     -0.163000
     18 H4          4.7160   -2.1530    0.7950 h1        1 H75      0.058200
     19 H4A         4.5430   -1.6840   -0.9580 h1        1 H75      0.058200
     20 H5          6.2310   -0.2930    1.2390 hc        1 H75      0.057200
     21 H5A         6.7710   -1.0610   -0.3100 hc        1 H75      0.057200
     22 H6          6.7770    1.4490   -0.4410 hc        1 H75      0.050200
     23 H6A         5.6360    0.7050   -1.6310 hc        1 H75      0.050200
     24 H7          4.9790    2.0940    1.0550 hc        1 H75      0.060700
     25 H7A         4.4790    2.5890   -0.6170 hc        1 H75      0.060700
     26 H9          1.6990    2.2710   -0.0520 h4        1 H75      0.183000
     27 H12        -0.3410    2.2660    0.4440 ha        1 H75      0.157500
     28 H13        -2.7740    2.2350    0.1420 ha        1 H75      0.149000
     29 H16        -2.6650   -2.0490   -0.5060 ha        1 H75      0.149000
     30 H17        -0.2230   -2.0480   -0.2170 ha        1 H75      0.157500
@<TRIPOS>BOND
     1    1    2 2   
     2    2    3 1   
     3    2   10 1   
     4    3    4 1   
     5    3    8 1   
     6    4    5 1   
     7    4   18 1   
     8    4   19 1   
     9    5    6 1   
    10    5   20 1   
    11    5   21 1   
    12    6    7 1   
    13    6   22 1   
    14    6   23 1   
    15    7    8 1   
    16    7   24 1   
    17    7   25 1   
    18    8    9 2   
    19    9   10 1   
    20    9   26 1   
    21   10   11 1   
    22   11   12 ar  
    23   11   17 ar  
    24   12   13 ar  
    25   12   27 1   
    26   13   14 ar  
    27   13   28 1   
    28   14   15 1   
    29   14   16 ar  
    30   16   17 ar  
    31   16   29 1   
    32   17   30 1   
@<TRIPOS>SUBSTRUCTURE
     1 H75         1 TEMP              0 ****  ****    0 ROOT
