@<TRIPOS>MOLECULE
H76
   21    21     1     0     0
SMALL
bcc


@<TRIPOS>ATOM
      1 CAG        -1.2120    0.5090    0.1500 c1        1 H76     -0.129500
      2 CAF        -0.0320    0.3280    0.0800 c1        1 H76     -0.176100
      3 CAD         1.3910    0.0860   -0.0250 c3        1 H76      0.213600
      4 NAE         2.0690   -0.2240    1.2380 n7        1 H76     -0.791200
      5 CAA         3.1890    0.7070    1.4370 c3        1 H76      0.168500
      6 CAH         4.4540   -0.0050    1.8950 c3        1 H76     -0.071100
      7 CAB         3.4180    1.4900    0.1100 c3        1 H76      0.145100
      8 OAI         4.5550    0.9670   -0.5410 oh        1 H76     -0.585800
      9 CAC         2.1050    1.3090   -0.6860 c3        1 H76      0.092100
     10 OAJ         2.4330    1.0740   -2.0400 oh        1 H76     -0.599800
     11 H1         -2.2590    0.6690    0.2090 ha        1 H76      0.168500
     12 H2          1.5490   -0.8200   -0.6910 h1        1 H76      0.094700
     13 H3          1.4380   -0.1840    2.0140 hn        1 H76      0.366800
     14 H5          2.9230    1.4760    2.2240 h1        1 H76      0.025700
     15 H6          4.2890   -0.4950    2.8840 hc        1 H76      0.046033
     16 H7          4.7650   -0.7790    1.1530 hc        1 H76      0.046033
     17 H8          5.2740    0.7470    1.9860 hc        1 H76      0.046033
     18 H9          3.5930    2.5790    0.3230 h1        1 H76      0.045700
     19 H10         4.4860    1.1870   -1.4800 ho        1 H76      0.424000
     20 H11         1.4680    2.2310   -0.6110 h1        1 H76      0.052700
     21 H12         1.6270    0.7740   -2.4780 ho        1 H76      0.419000
@<TRIPOS>BOND
     1    1    2 3   
     2    1   11 1   
     3    2    3 1   
     4    3    4 1   
     5    3    9 1   
     6    3   12 1   
     7    4    5 1   
     8    4   13 1   
     9    5    6 1   
    10    5    7 1   
    11    5   14 1   
    12    6   15 1   
    13    6   16 1   
    14    6   17 1   
    15    7    8 1   
    16    7    9 1   
    17    7   18 1   
    18    8   19 1   
    19    9   10 1   
    20    9   20 1   
    21   10   21 1   
@<TRIPOS>SUBSTRUCTURE
     1 H76         1 TEMP              0 ****  ****    0 ROOT
