@<TRIPOS>MOLECULE
H76
   21    21     1     0     0
SMALL
bcc


@<TRIPOS>ATOM
      1 CAG        -1.1570    0.5350    0.3120 c1        1 H76     -0.141500
      2 CAF         0.0020    0.3020    0.1290 c1        1 H76     -0.138100
      3 CAD         1.3980    0.0010   -0.1030 c3        1 H76      0.214600
      4 NAE         2.1050   -0.3730    1.1340 n3        1 H76     -0.782200
      5 CAA         3.1290    0.6400    1.4110 c3        1 H76      0.162500
      6 CAH         4.4080    0.0970    2.0240 c3        1 H76     -0.092100
      7 CAB         3.4080    1.4330    0.0990 c3        1 H76      0.123100
      8 OAI         4.5560    0.8890   -0.5180 oh        1 H76     -0.592800
      9 CAC         2.1220    1.2370   -0.7370 c3        1 H76      0.088100
     10 OAJ         2.5000    0.9890   -2.0750 oh        1 H76     -0.601800
     11 H1         -2.1850    0.7410    0.4680 ha        1 H76      0.165500
     12 H2          1.4410   -0.8530   -0.8490 h1        1 H76      0.068700
     13 H3          2.5270   -1.2760    1.0180 hn        1 H76      0.364800
     14 H5          2.6560    1.3650    2.1390 h1        1 H76      0.066700
     15 H6          4.1930   -0.4090    2.9950 hc        1 H76      0.047700
     16 H7          4.9050   -0.6290    1.3360 hc        1 H76      0.047700
     17 H8          5.1110    0.9450    2.2010 hc        1 H76      0.047700
     18 H9          3.5800    2.5200    0.3130 h1        1 H76      0.050700
     19 H10         4.5610    1.1880   -1.4370 ho        1 H76      0.423000
     20 H11         1.4720    2.1500   -0.6810 h1        1 H76      0.059700
     21 H12         1.6860    0.8780   -2.5810 ho        1 H76      0.416000
@<TRIPOS>BOND
     1    1    2 3   
     2    1   11 1   
     3    2    3 1   
     4    3    4 1   
     5    3    9 1   
     6    3   12 1   
     7    4    5 1   
     8    4   13 1   
     9    5    6 1   
    10    5    7 1   
    11    5   14 1   
    12    6   15 1   
    13    6   16 1   
    14    6   17 1   
    15    7    8 1   
    16    7    9 1   
    17    7   18 1   
    18    8   19 1   
    19    9   10 1   
    20    9   20 1   
    21   10   21 1   
@<TRIPOS>SUBSTRUCTURE
     1 H76         1 TEMP              0 ****  ****    0 ROOT
