@<TRIPOS>MOLECULE
H76
   21    21     1     0     0
SMALL
bcc


@<TRIPOS>ATOM
      1 CAG        -1.1600    0.4180    0.2630 c1        1 H76     -0.141500
      2 CAF         0.0060    0.2250    0.0840 c1        1 H76     -0.138100
      3 CAD         1.4120   -0.0300   -0.1440 c3        1 H76      0.214600
      4 NAE         2.1190   -0.4220    1.0870 n3        1 H76     -0.782200
      5 CAA         3.1100    0.6090    1.4060 c3        1 H76      0.162500
      6 CAH         4.3990    0.0830    2.0140 c3        1 H76     -0.092100
      7 CAB         3.3780    1.4520    0.1220 c3        1 H76      0.123100
      8 OAI         4.5470    0.9600   -0.5000 oh        1 H76     -0.592800
      9 CAC         2.1060    1.2460   -0.7320 c3        1 H76      0.088100
     10 OAJ         2.5020    1.0520   -2.0740 oh        1 H76     -0.601800
     11 H1         -2.1950    0.5900    0.4150 ha        1 H76      0.165500
     12 H2          1.4860   -0.8580   -0.9160 h1        1 H76      0.068700
     13 H3          2.5670   -1.3090    0.9470 hn        1 H76      0.364800
     14 H5          2.6110    1.2970    2.1510 h1        1 H76      0.066700
     15 H6          5.0760    0.9460    2.2240 hc        1 H76      0.047700
     16 H7          4.9230   -0.6060    1.3080 hc        1 H76      0.047700
     17 H8          4.1900   -0.4590    2.9660 hc        1 H76      0.047700
     18 H9          3.5170    2.5360    0.3720 h1        1 H76      0.050700
     19 H10         4.5510    1.2890   -1.4090 ho        1 H76      0.423000
     20 H11         1.4290    2.1380   -0.6540 h1        1 H76      0.059700
     21 H12         1.6960    0.9340   -2.5910 ho        1 H76      0.416000
@<TRIPOS>BOND
     1    1    2 3   
     2    1   11 1   
     3    2    3 1   
     4    3    4 1   
     5    3    9 1   
     6    3   12 1   
     7    4    5 1   
     8    4   13 1   
     9    5    6 1   
    10    5    7 1   
    11    5   14 1   
    12    6   15 1   
    13    6   16 1   
    14    6   17 1   
    15    7    8 1   
    16    7    9 1   
    17    7   18 1   
    18    8   19 1   
    19    9   10 1   
    20    9   20 1   
    21   10   21 1   
@<TRIPOS>SUBSTRUCTURE
     1 H76         1 TEMP              0 ****  ****    0 ROOT
