@<TRIPOS>MOLECULE
H7J
   56    57     1     0     0
SMALL
bcc


@<TRIPOS>ATOM
      1 O25        -0.3180    1.1740   -0.1220 o         1 H7J     -0.430100
      2 C18         0.8900    1.1000    0.0660 c         1 H7J      0.573700
      3 C19         1.5840    1.1000    1.3590 ca        1 H7J     -0.202600
      4 C24         0.9250    0.4920    2.4410 ca        1 H7J     -0.073000
      5 C23         1.5220    0.4840    3.6990 ca        1 H7J     -0.122500
      6 C22         2.7640    1.0920    3.8890 ca        1 H7J     -0.059000
      7 C21         3.4110    1.7140    2.8170 ca        1 H7J     -0.122500
      8 C20         2.8270    1.7220    1.5530 ca        1 H7J     -0.073000
      9 N17         1.7600    1.0070   -1.1640 n4        1 H7J     -0.678800
     10 C14         1.5710   -0.2860   -1.9780 c3        1 H7J      0.184900
     11 C16         1.5860   -1.4820   -1.0170 c3        1 H7J     -0.128100
     12 C15         0.2100   -0.2360   -2.7330 c3        1 H7J     -0.074700
     13 C27         0.0590    0.9930   -3.6050 c3        1 H7J     -0.107100
     14 C26         0.0150   -1.4900   -3.5630 c3        1 H7J     -0.107100
     15 C12         2.7290   -0.3970   -2.9180 cc        1 H7J      0.140600
     16 N11         3.4940    0.6990   -3.3990 nc        1 H7J     -0.383000
     17 N10         4.3950    0.2840   -4.1870 nd        1 H7J     -0.125800
     18 C13         3.2740   -1.5540   -3.5170 cd        1 H7J     -0.132600
     19 N           4.3210   -1.0660   -4.3030 na        1 H7J      0.070400
     20 C4          5.1840   -1.8760   -5.1680 c3        1 H7J     -0.050000
     21 C2          5.7340   -3.1060   -4.4270 c         1 H7J      0.572100
     22 C           7.1650   -3.4080   -4.7020 c3        1 H7J     -0.202100
     23 O           5.0200   -3.7790   -3.6800 o         1 H7J     -0.528100
     24 C5          4.4490   -2.3430   -6.4410 c3        1 H7J     -0.050200
     25 C7          5.3930   -2.9680   -7.3980 c2        1 H7J     -0.223200
     26 C8          6.0240   -2.3340   -8.3920 c2        1 H7J     -0.118200
     27 C9          5.9380   -0.8960   -8.7040 c3        1 H7J     -0.082900
     28 H24        -0.0650    0.0300    2.2910 ha        1 H7J      0.149500
     29 H23         1.0050    0.0040    4.5460 ha        1 H7J      0.166000
     30 H22         3.2340    1.0880    4.8870 ha        1 H7J      0.165000
     31 H21         4.3840    2.2080    2.9730 ha        1 H7J      0.166000
     32 H20         3.3420    2.2520    0.7380 ha        1 H7J      0.149500
     33 HN17        1.5510    1.7960   -1.7900 hn        1 H7J      0.465800
     34 H161        1.5920   -2.4270   -1.6160 hc        1 H7J      0.075033
     35 H162        2.4990   -1.4800   -0.3750 hc        1 H7J      0.075033
     36 H163        0.6740   -1.4790   -0.3700 hc        1 H7J      0.075033
     37 H15        -0.6030   -0.2150   -1.9480 hc        1 H7J      0.081700
     38 H271        0.9600    1.1620   -4.2400 hc        1 H7J      0.055533
     39 H272       -0.8200    0.8620   -4.2850 hc        1 H7J      0.055533
     40 H273       -0.1400    1.9070   -2.9920 hc        1 H7J      0.055533
     41 H261       -0.0500   -2.3960   -2.9140 hc        1 H7J      0.055533
     42 H262        0.8490   -1.6230   -4.2930 hc        1 H7J      0.055533
     43 H263       -0.9430   -1.4090   -4.1350 hc        1 H7J      0.055533
     44 H13         3.0400   -2.6200   -3.4380 h4        1 H7J      0.231000
     45 H4          6.0570   -1.2240   -5.4820 h1        1 H7J      0.116700
     46 H1          7.8090   -2.6170   -4.2410 hc        1 H7J      0.084033
     47 H2          7.4480   -4.4000   -4.2690 hc        1 H7J      0.084033
     48 H3          7.3500   -3.4230   -5.8060 hc        1 H7J      0.084033
     49 H51         3.6540   -3.0840   -6.1580 hc        1 H7J      0.069200
     50 H52         3.9380   -1.4640   -6.9190 hc        1 H7J      0.069200
     51 H7          5.5280   -4.0560   -7.2670 ha        1 H7J      0.133000
     52 H8          6.6730   -2.9140   -9.0740 ha        1 H7J      0.136000
     53 H91         5.2570   -0.7410   -9.5800 hc        1 H7J      0.053700
     54 H92         6.9470   -0.4980   -8.9780 hc        1 H7J      0.053700
     55 H93         5.5480   -0.2960   -7.8450 hc        1 H7J      0.053700
     56 H172        2.7450    1.0580   -0.8830 hn        1 H7J      0.465800
@<TRIPOS>BOND
     1    1    2 2   
     2    2    3 1   
     3    2    9 1   
     4    3    4 ar  
     5    3    8 ar  
     6    4    5 ar  
     7    4   28 1   
     8    5    6 ar  
     9    5   29 1   
    10    6    7 ar  
    11    6   30 1   
    12    7    8 ar  
    13    7   31 1   
    14    8   32 1   
    15    9   10 1   
    16    9   33 1   
    17    9   56 1   
    18   10   11 1   
    19   10   12 1   
    20   10   15 1   
    21   11   34 1   
    22   11   35 1   
    23   11   36 1   
    24   12   13 1   
    25   12   14 1   
    26   12   37 1   
    27   13   38 1   
    28   13   39 1   
    29   13   40 1   
    30   14   41 1   
    31   14   42 1   
    32   14   43 1   
    33   15   16 1   
    34   15   18 2   
    35   16   17 2   
    36   17   19 1   
    37   18   19 1   
    38   18   44 1   
    39   19   20 1   
    40   20   21 1   
    41   20   24 1   
    42   20   45 1   
    43   21   22 1   
    44   21   23 2   
    45   22   46 1   
    46   22   47 1   
    47   22   48 1   
    48   24   25 1   
    49   24   49 1   
    50   24   50 1   
    51   25   26 2   
    52   25   51 1   
    53   26   27 1   
    54   26   52 1   
    55   27   53 1   
    56   27   54 1   
    57   27   55 1   
@<TRIPOS>SUBSTRUCTURE
     1 H7J         1 TEMP              0 ****  ****    0 ROOT
