@<TRIPOS>MOLECULE
H7J
   55    56     1     0     0
SMALL
bcc


@<TRIPOS>ATOM
      1 O25        -4.0160   -0.6310    1.7350 o         1 H7J     -0.615100
      2 C18        -3.7780   -0.0490    0.6550 c         1 H7J      0.672700
      3 C19        -4.8900    0.5400   -0.1530 ca        1 H7J     -0.142600
      4 C24        -6.1150   -0.1370   -0.1720 ca        1 H7J     -0.090500
      5 C23        -7.1840    0.3780   -0.9020 ca        1 H7J     -0.140000
      6 C22        -7.0370    1.5730   -1.6070 ca        1 H7J     -0.110000
      7 C21        -5.8210    2.2550   -1.5770 ca        1 H7J     -0.140000
      8 C20        -4.7450    1.7420   -0.8520 ca        1 H7J     -0.090500
      9 N17        -2.5000    0.0990    0.1510 n         1 H7J     -0.556900
     10 C14        -1.3150   -0.5040    0.7640 c3        1 H7J      0.132100
     11 C16        -1.1750   -0.0340    2.2290 c3        1 H7J     -0.107100
     12 C15        -1.4050   -2.0660    0.7550 c3        1 H7J     -0.084700
     13 C27        -1.4230   -2.6350   -0.6470 c3        1 H7J     -0.088600
     14 C26        -0.2870   -2.7030    1.5520 c3        1 H7J     -0.088600
     15 C12        -0.0740   -0.0690    0.0260 cc        1 H7J      0.245600
     16 N11         0.0060    0.1920   -1.3690 nc        1 H7J     -0.362000
     17 N10         1.1850    0.5290   -1.6860 nd        1 H7J     -0.167800
     18 C13         1.2180    0.1540    0.5400 cd        1 H7J     -0.191600
     19 N           1.9740    0.5370   -0.5790 na        1 H7J      0.040400
     20 C4          3.4060    0.8000   -0.5930 c3        1 H7J     -0.032000
     21 C2          3.8250    1.7580    0.5330 c         1 H7J      0.567100
     22 C           4.6900    2.8890    0.0920 c3        1 H7J     -0.200100
     23 O           3.4870    1.5770    1.7040 o         1 H7J     -0.519100
     24 C5          4.2450   -0.4890   -0.4720 c3        1 H7J     -0.060200
     25 C7          5.6630   -0.2330   -0.8170 c2        1 H7J     -0.202200
     26 C8          6.6880   -0.6710   -0.0780 c2        1 H7J     -0.143200
     27 C9          8.1040   -0.4670   -0.4370 c3        1 H7J     -0.070900
     28 H24        -6.2250   -1.0700    0.4050 ha        1 H7J      0.147000
     29 H23        -8.1450   -0.1570   -0.9180 ha        1 H7J      0.135500
     30 H22        -7.8810    1.9800   -2.1830 ha        1 H7J      0.133000
     31 H21        -5.7070    3.2020   -2.1260 ha        1 H7J      0.135500
     32 H20        -3.7960    2.2980   -0.8260 ha        1 H7J      0.147000
     33 HN17       -2.4130    0.4060   -0.7900 hn        1 H7J      0.326500
     34 H161       -1.1990    1.0800    2.2880 hc        1 H7J      0.053367
     35 H162       -2.0130   -0.4490    2.8420 hc        1 H7J      0.053367
     36 H163       -0.2060   -0.3900    2.6520 hc        1 H7J      0.053367
     37 H15        -2.3820   -2.3260    1.2600 hc        1 H7J      0.078700
     38 H271       -0.4230   -2.5300   -1.1330 hc        1 H7J      0.035367
     39 H272       -1.6770   -3.7230   -0.6060 hc        1 H7J      0.035367
     40 H273       -2.1820   -2.1270   -1.2880 hc        1 H7J      0.035367
     41 H261       -0.2600   -3.8030    1.3550 hc        1 H7J      0.035367
     42 H262        0.7040   -2.2710    1.2690 hc        1 H7J      0.035367
     43 H263       -0.4440   -2.5520    2.6470 hc        1 H7J      0.035367
     44 H13         1.6420    0.1080    1.5450 h4        1 H7J      0.215000
     45 H4          3.6490    1.2910   -1.5850 h1        1 H7J      0.098700
     46 H1          4.1040    3.5680   -0.5760 hc        1 H7J      0.074033
     47 H2          5.0560    3.4730    0.9710 hc        1 H7J      0.074033
     48 H3          5.5670    2.4920   -0.4770 hc        1 H7J      0.074033
     49 H51         3.8410   -1.2620   -1.1840 hc        1 H7J      0.071200
     50 H52         4.1440   -0.8990    0.5680 hc        1 H7J      0.071200
     51 H7          5.8310    0.3170   -1.7580 ha        1 H7J      0.125000
     52 H8          6.5160   -1.2250    0.8610 ha        1 H7J      0.126000
     53 H91         8.6120   -1.4570   -0.5620 hc        1 H7J      0.046367
     54 H92         8.2190    0.1090   -1.3870 hc        1 H7J      0.046367
     55 H93         8.6300    0.0900    0.3800 hc        1 H7J      0.046367
@<TRIPOS>BOND
     1    1    2 2   
     2    2    3 1   
     3    2    9 1   
     4    3    4 ar  
     5    3    8 ar  
     6    4    5 ar  
     7    4   28 1   
     8    5    6 ar  
     9    5   29 1   
    10    6    7 ar  
    11    6   30 1   
    12    7    8 ar  
    13    7   31 1   
    14    8   32 1   
    15    9   10 1   
    16    9   33 1   
    17   10   11 1   
    18   10   12 1   
    19   10   15 1   
    20   11   34 1   
    21   11   35 1   
    22   11   36 1   
    23   12   13 1   
    24   12   14 1   
    25   12   37 1   
    26   13   38 1   
    27   13   39 1   
    28   13   40 1   
    29   14   41 1   
    30   14   42 1   
    31   14   43 1   
    32   15   16 1   
    33   15   18 2   
    34   16   17 2   
    35   17   19 1   
    36   18   19 1   
    37   18   44 1   
    38   19   20 1   
    39   20   21 1   
    40   20   24 1   
    41   20   45 1   
    42   21   22 1   
    43   21   23 2   
    44   22   46 1   
    45   22   47 1   
    46   22   48 1   
    47   24   25 1   
    48   24   49 1   
    49   24   50 1   
    50   25   26 2   
    51   25   51 1   
    52   26   27 1   
    53   26   52 1   
    54   27   53 1   
    55   27   54 1   
    56   27   55 1   
@<TRIPOS>SUBSTRUCTURE
     1 H7J         1 TEMP              0 ****  ****    0 ROOT
