@<TRIPOS>MOLECULE
H7J
   56    57     1     0     0
SMALL
bcc


@<TRIPOS>ATOM
      1 O25        -0.2940    1.1540   -0.0760 o         1 H7J     -0.430100
      2 C18         0.9160    1.0810    0.0990 c         1 H7J      0.573700
      3 C19         1.6240    1.0740    1.3840 ca        1 H7J     -0.202600
      4 C24         0.9770    0.4580    2.4690 ca        1 H7J     -0.073000
      5 C23         1.5880    0.4430    3.7210 ca        1 H7J     -0.122500
      6 C22         2.8310    1.0510    3.9010 ca        1 H7J     -0.059000
      7 C21         3.4650    1.6820    2.8260 ca        1 H7J     -0.122500
      8 C20         2.8680    1.6970    1.5690 ca        1 H7J     -0.073000
      9 N17         1.7720    0.9970   -1.1410 n4        1 H7J     -0.678800
     10 C14         1.5800   -0.2930   -1.9590 c3        1 H7J      0.184900
     11 C16         1.6120   -1.4930   -1.0030 c3        1 H7J     -0.128100
     12 C15         0.2100   -0.2470   -2.6980 c3        1 H7J     -0.074700
     13 C27         0.0430    0.9850   -3.5620 c3        1 H7J     -0.107100
     14 C26         0.0110   -1.4980   -3.5300 c3        1 H7J     -0.107100
     15 C12         2.7270   -0.3950   -2.9130 cc        1 H7J      0.140600
     16 N11         3.4820    0.7070   -3.3970 nc        1 H7J     -0.383000
     17 N10         4.3760    0.3000   -4.1980 nd        1 H7J     -0.125800
     18 C13         3.2710   -1.5460   -3.5220 cd        1 H7J     -0.132600
     19 N           4.3070   -1.0500   -4.3190 na        1 H7J      0.070400
     20 C4          5.1630   -1.8520   -5.1970 c3        1 H7J     -0.050000
     21 C2          5.7290   -3.0820   -4.4680 c         1 H7J      0.572100
     22 C           7.1580   -3.3750   -4.7600 c3        1 H7J     -0.202100
     23 O           5.0270   -3.7610   -3.7150 o         1 H7J     -0.528100
     24 C5          4.4150   -2.3190   -6.4630 c3        1 H7J     -0.050200
     25 C7          5.3510   -2.9350   -7.4340 c2        1 H7J     -0.223200
     26 C8          5.9650   -2.2940   -8.4330 c2        1 H7J     -0.118200
     27 C9          5.8660   -0.8550   -8.7400 c3        1 H7J     -0.082900
     28 H24        -0.0140   -0.0050    2.3260 ha        1 H7J      0.149500
     29 H23         1.0810   -0.0440    4.5700 ha        1 H7J      0.166000
     30 H22         3.3110    1.0420    4.8940 ha        1 H7J      0.165000
     31 H21         4.4380    2.1760    2.9760 ha        1 H7J      0.166000
     32 H20         3.3730    2.2330    0.7510 ha        1 H7J      0.149500
     33 HN17        2.7600    1.0520   -0.8710 hn        1 H7J      0.465800
     34 H161        1.6150   -2.4360   -1.6060 hc        1 H7J      0.074700
     35 H162        0.7080   -1.4980   -0.3460 hc        1 H7J      0.074700
     36 H163        2.5330   -1.4900   -0.3720 hc        1 H7J      0.074700
     37 H15        -0.5940   -0.2340   -1.9030 hc        1 H7J      0.081700
     38 H271       -0.1530    1.8950   -2.9420 hc        1 H7J      0.055533
     39 H272        0.9360    1.1620   -4.2060 hc        1 H7J      0.055533
     40 H273       -0.8430    0.8530   -4.2330 hc        1 H7J      0.055533
     41 H261       -0.9530   -1.4190   -4.0910 hc        1 H7J      0.055533
     42 H262        0.8380   -1.6240   -4.2710 hc        1 H7J      0.055533
     43 H263       -0.0410   -2.4080   -2.8850 hc        1 H7J      0.055533
     44 H13         3.0430   -2.6140   -3.4460 h4        1 H7J      0.230000
     45 H4          6.0290   -1.1950   -5.5190 h1        1 H7J      0.116700
     46 H1          7.3300   -3.3850   -5.8660 hc        1 H7J      0.084033
     47 H2          7.8030   -2.5830   -4.3040 hc        1 H7J      0.084033
     48 H3          7.4510   -4.3670   -4.3350 hc        1 H7J      0.084033
     49 H51         3.8940   -1.4400   -6.9310 hc        1 H7J      0.069200
     50 H52         3.6270   -3.0650   -6.1730 hc        1 H7J      0.069200
     51 H7          5.4940   -4.0220   -7.3080 ha        1 H7J      0.133000
     52 H8          6.6090   -2.8680   -9.1260 ha        1 H7J      0.136000
     53 H91         5.4850   -0.2610   -7.8740 hc        1 H7J      0.053700
     54 H92         5.1720   -0.7020   -9.6060 hc        1 H7J      0.053700
     55 H93         6.8700   -0.4500   -9.0270 hc        1 H7J      0.053700
     56 H172        1.5530    1.7880   -1.7620 hn        1 H7J      0.465800
@<TRIPOS>BOND
     1    1    2 2   
     2    2    3 1   
     3    2    9 1   
     4    3    4 ar  
     5    3    8 ar  
     6    4    5 ar  
     7    4   28 1   
     8    5    6 ar  
     9    5   29 1   
    10    6    7 ar  
    11    6   30 1   
    12    7    8 ar  
    13    7   31 1   
    14    8   32 1   
    15    9   10 1   
    16    9   33 1   
    17    9   56 1   
    18   10   11 1   
    19   10   12 1   
    20   10   15 1   
    21   11   34 1   
    22   11   35 1   
    23   11   36 1   
    24   12   13 1   
    25   12   14 1   
    26   12   37 1   
    27   13   38 1   
    28   13   39 1   
    29   13   40 1   
    30   14   41 1   
    31   14   42 1   
    32   14   43 1   
    33   15   16 1   
    34   15   18 2   
    35   16   17 2   
    36   17   19 1   
    37   18   19 1   
    38   18   44 1   
    39   19   20 1   
    40   20   21 1   
    41   20   24 1   
    42   20   45 1   
    43   21   22 1   
    44   21   23 2   
    45   22   46 1   
    46   22   47 1   
    47   22   48 1   
    48   24   25 1   
    49   24   49 1   
    50   24   50 1   
    51   25   26 2   
    52   25   51 1   
    53   26   27 1   
    54   26   52 1   
    55   27   53 1   
    56   27   54 1   
    57   27   55 1   
@<TRIPOS>SUBSTRUCTURE
     1 H7J         1 TEMP              0 ****  ****    0 ROOT
