@<TRIPOS>MOLECULE
H7J
   55    50     1     0     0
SMALL
bcc


@<TRIPOS>ATOM
      1 O25        -2.9240   -0.1210    3.0560 o         1 H7J     -0.376000
      2 C18        -1.7660    0.2430    3.0650 c1        1 H7J      0.346000
      3 C19        -1.0440    0.5170    4.4260 c1        1 H7J     -0.120000
      4 C24        -1.7200    0.3100    5.6250 c2        1 H7J     -0.080000
      5 C23        -1.0560    0.4750    6.8340 c1        1 H7J     -0.139000
      6 C22         0.2780    0.8470    6.8470 c1        1 H7J     -0.124000
      7 C21         0.9510    1.0530    5.6550 c1        1 H7J     -0.124000
      8 C20         0.2860    0.8880    4.4400 c1        1 H7J     -0.105000
      9 N17        -1.0680    0.4560    1.8230 n3        1 H7J     -0.365000
     10 C14        -1.8210    0.4940    0.5520 c3        1 H7J      0.187000
     11 C16        -2.7760   -0.6660    0.5000 c3        1 H7J     -0.225000
     12 C15        -2.6120    1.8160    0.4620 c3        1 H7J     -0.124000
     13 C27        -1.6490    2.9910    0.5230 c3        1 H7J     -0.206500
     14 C26        -3.3810    1.8590   -0.8530 c3        1 H7J     -0.206500
     15 C12        -0.8520    0.4010   -0.6110 c2        1 H7J     -0.163000
     16 N11        -0.2360    1.4320   -1.2080 n2        1 H7J     -0.106000
     17 N10         0.6140    0.9240   -2.1640 n2        1 H7J      0.032000
     18 C13        -0.3890   -0.7700   -1.1940 c1        1 H7J     -0.127000
     19 N           0.5080   -0.4370   -2.1430 n2        1 H7J     -0.160000
     20 C4          1.1540   -1.3560   -3.0620 c2        1 H7J      0.006000
     21 C2          0.4900   -1.2700   -4.4040 c2        1 H7J      0.206000
     22 C          -0.1140   -2.5260   -5.0420 c3        1 H7J     -0.272000
     23 O           0.3780   -0.1950   -4.9580 o         1 H7J     -0.243000
     24 C5          2.6160   -0.9920   -3.1970 c3        1 H7J     -0.131000
     25 C7          3.4680   -2.1600   -2.7620 c2        1 H7J     -0.192000
     26 C8          4.8120   -2.0020   -2.6060 c1        1 H7J     -0.131000
     27 C9          5.4600   -0.6420   -2.8720 c2        1 H7J     -0.197000
     28 H24        -2.6690    0.0450    5.6160 ha        1 H7J      0.152000
     29 H23        -1.5340    0.3290    7.6800 ha        1 H7J      0.136000
     30 H22         0.7450    0.9630    7.6990 ha        1 H7J      0.135000
     31 H21         1.8940    1.3160    5.6650 ha        1 H7J      0.135000
     32 H20         0.7620    1.0340    3.5980 ha        1 H7J      0.139000
     33 HN17       -0.1490    0.4700    1.8120 hn        1 H7J      0.241000
     34 H161       -2.3770   -1.4410    0.9520 hc        1 H7J      0.090333
     35 H162       -2.9640   -0.8960   -0.4440 hc        1 H7J      0.090333
     36 H163       -3.6140   -0.4210    0.9490 hc        1 H7J      0.090333
     37 H15        -3.2410    1.8710    1.2090 hc        1 H7J      0.119000
     38 H271       -0.7610    2.6720    0.7860 hc        1 H7J      0.075167
     39 H272       -1.5970    3.4150   -0.3570 hc        1 H7J      0.075167
     40 H273       -1.9730    3.6470    1.1850 hc        1 H7J      0.075167
     41 H261       -3.6640    0.9480   -1.0980 hc        1 H7J      0.075167
     42 H262       -4.1770    2.4360   -0.7500 hc        1 H7J      0.075167
     43 H263       -2.8060    2.2200   -1.5530 hc        1 H7J      0.075167
     44 H13        -0.6640   -1.6710   -0.9590 DU        1 H7J      0.191000
     45 H4          1.0780   -2.2650   -2.7200 ha        1 H7J      0.114000
     46 H1         -0.8310   -2.2660   -5.6630 hc        1 H7J      0.108667
     47 H2          0.5770   -3.0080   -5.5280 hc        1 H7J      0.108667
     48 H3         -0.4860   -3.1100   -4.3330 hc        1 H7J      0.108667
     49 H51         2.8130   -0.7730   -4.1300 hc        1 H7J      0.111500
     50 H52         2.8090   -0.2290   -2.6410 hc        1 H7J      0.111500
     51 H7          3.0530   -3.0340   -2.5910 ha        1 H7J      0.117000
     52 H8          5.3680   -2.7650   -2.3220 ha        1 H7J      0.123000
     53 H91         5.0510    0.0330   -2.2950 ha        1 H7J      0.088000
     54 H92         5.3260   -0.3930   -3.8150 ha        1 H7J      0.088000
     55 H93         6.4230   -0.6950   -2.6820 ha        1 H7J      0.088000
@<TRIPOS>BOND
     1    1    2 1   
     2    2    9 1   
     3    3    4 1   
     4    3    8 1   
     5    4    5 1   
     6    4   28 1   
     7    5   29 1   
     8    6    7 1   
     9    6   30 1   
    10    7   31 1   
    11    8   32 1   
    12    9   10 1   
    13    9   33 1   
    14   10   11 1   
    15   10   12 1   
    16   10   15 1   
    17   11   34 1   
    18   11   35 1   
    19   11   36 1   
    20   12   13 1   
    21   12   14 1   
    22   12   37 1   
    23   13   38 1   
    24   13   39 1   
    25   13   40 1   
    26   14   41 1   
    27   14   42 1   
    28   14   43 1   
    29   15   16 1   
    30   15   18 1   
    31   16   17 1   
    32   17   19 1   
    33   18   19 1   
    34   20   21 1   
    35   20   24 1   
    36   20   45 1   
    37   21   22 1   
    38   21   23 1   
    39   22   46 1   
    40   22   47 1   
    41   22   48 1   
    42   24   25 1   
    43   24   49 1   
    44   24   50 1   
    45   25   26 1   
    46   25   51 1   
    47   26   52 1   
    48   27   53 1   
    49   27   54 1   
    50   27   55 1   
@<TRIPOS>SUBSTRUCTURE
     1 H7J         1 TEMP              0 ****  ****    0 ROOT
