@<TRIPOS>MOLECULE
H7J
   56    57     1     0     0
SMALL
bcc


@<TRIPOS>ATOM
      1 O25        -0.2280    1.3230   -0.1210 o         1 H7J     -0.430100
      2 C18         0.9740    1.1870    0.0710 c         1 H7J      0.573700
      3 C19         1.6630    1.1430    1.3660 ca        1 H7J     -0.202600
      4 C24         0.9690    0.5620    2.4410 ca        1 H7J     -0.073000
      5 C23         1.5600    0.5150    3.7020 ca        1 H7J     -0.122500
      6 C22         2.8310    1.0570    3.9000 ca        1 H7J     -0.059000
      7 C21         3.5120    1.6530    2.8340 ca        1 H7J     -0.122500
      8 C20         2.9350    1.6990    1.5690 ca        1 H7J     -0.073000
      9 N17         1.8420    1.0580   -1.1570 ny        1 H7J     -0.678800
     10 C14         1.5930   -0.2200   -1.9790 c3        1 H7J      0.184900
     11 C16         1.5460   -1.4200   -1.0260 c3        1 H7J     -0.128100
     12 C15         0.2390   -0.0990   -2.7380 c3        1 H7J     -0.074700
     13 C27         0.1500    1.1410   -3.6020 c3        1 H7J     -0.107100
     14 C26        -0.0150   -1.3370   -3.5750 c3        1 H7J     -0.107100
     15 C12         2.7470   -0.3820   -2.9170 cc        1 H7J      0.140600
     16 N11         3.5670    0.6780   -3.3890 nc        1 H7J     -0.383000
     17 N10         4.4490    0.2250   -4.1770 nd        1 H7J     -0.125800
     18 C13         3.2370   -1.5600   -3.5210 cd        1 H7J     -0.132600
     19 N           4.3090   -1.1190   -4.3020 na        1 H7J      0.070400
     20 C4          5.1340   -1.9660   -5.1680 c3        1 H7J     -0.050000
     21 C2          5.6220   -3.2250   -4.4330 c         1 H7J      0.572100
     22 C           7.0370   -3.5950   -4.7050 c3        1 H7J     -0.202100
     23 O           4.8730   -3.8660   -3.6920 o         1 H7J     -0.528100
     24 C5          4.3800   -2.3900   -6.4460 c3        1 H7J     -0.050200
     25 C7          5.2950   -3.0550   -7.4040 c2        1 H7J     -0.223200
     26 C8          5.9590   -2.4470   -8.3930 c2        1 H7J     -0.118200
     27 C9          5.9440   -1.0050   -8.6980 c3        1 H7J     -0.082900
     28 H24        -0.0430    0.1520    2.2850 ha        1 H7J      0.149500
     29 H23         1.0170    0.0560    4.5440 ha        1 H7J      0.166000
     30 H22         3.2960    1.0230    4.8990 ha        1 H7J      0.165000
     31 H21         4.5090    2.0960    2.9980 ha        1 H7J      0.166000
     32 H20         3.4790    2.2080    0.7590 ha        1 H7J      0.149500
     33 HN17        1.6750    1.8600   -1.7790 hn        1 H7J      0.465800
     34 H161        0.6350   -1.3760   -0.3810 hc        1 H7J      0.074700
     35 H162        2.4570   -1.4670   -0.3800 hc        1 H7J      0.074700
     36 H163        1.5080   -2.3610   -1.6300 hc        1 H7J      0.074700
     37 H15        -0.5750   -0.0430   -1.9550 hc        1 H7J      0.081700
     38 H271       -0.7320    1.0570   -4.2860 hc        1 H7J      0.055533
     39 H272       -0.0060    2.0600   -2.9840 hc        1 H7J      0.055533
     40 H273        1.0600    1.2700   -4.2340 hc        1 H7J      0.055533
     41 H261       -0.1250   -2.2430   -2.9320 hc        1 H7J      0.055533
     42 H262        0.8140   -1.5060   -4.3040 hc        1 H7J      0.055533
     43 H263       -0.9660   -1.2060   -4.1500 hc        1 H7J      0.055533
     44 H13         2.9500   -2.6140   -3.4490 h4        1 H7J      0.231000
     45 H4          6.0380   -1.3550   -5.4760 h1        1 H7J      0.116700
     46 H1          7.7170   -2.8380   -4.2390 hc        1 H7J      0.084033
     47 H2          7.2240   -3.6120   -5.8090 hc        1 H7J      0.084033
     48 H3          7.2700   -4.6010   -4.2780 hc        1 H7J      0.084033
     49 H51         3.5490   -3.0930   -6.1690 hc        1 H7J      0.069200
     50 H52         3.9150   -1.4840   -6.9200 hc        1 H7J      0.069200
     51 H7          5.3770   -4.1490   -7.2780 ha        1 H7J      0.133000
     52 H8          6.5810   -3.0550   -9.0760 ha        1 H7J      0.136000
     53 H91         5.2720   -0.8130   -9.5740 hc        1 H7J      0.053700
     54 H92         6.9720   -0.6550   -8.9680 hc        1 H7J      0.053700
     55 H93         5.5820   -0.3920   -7.8370 hc        1 H7J      0.053700
     56 H172        2.8280    1.0590   -0.8730 hn        1 H7J      0.465800
@<TRIPOS>BOND
     1    1    2 2   
     2    2    3 1   
     3    2    9 1   
     4    3    4 ar  
     5    3    8 ar  
     6    4    5 ar  
     7    4   28 1   
     8    5    6 ar  
     9    5   29 1   
    10    6    7 ar  
    11    6   30 1   
    12    7    8 ar  
    13    7   31 1   
    14    8   32 1   
    15    9   10 1   
    16    9   33 1   
    17    9   56 1   
    18   10   11 1   
    19   10   12 1   
    20   10   15 1   
    21   11   34 1   
    22   11   35 1   
    23   11   36 1   
    24   12   13 1   
    25   12   14 1   
    26   12   37 1   
    27   13   38 1   
    28   13   39 1   
    29   13   40 1   
    30   14   41 1   
    31   14   42 1   
    32   14   43 1   
    33   15   16 1   
    34   15   18 2   
    35   16   17 2   
    36   17   19 1   
    37   18   19 1   
    38   18   44 1   
    39   19   20 1   
    40   20   21 1   
    41   20   24 1   
    42   20   45 1   
    43   21   22 1   
    44   21   23 2   
    45   22   46 1   
    46   22   47 1   
    47   22   48 1   
    48   24   25 1   
    49   24   49 1   
    50   24   50 1   
    51   25   26 2   
    52   25   51 1   
    53   26   27 1   
    54   26   52 1   
    55   27   53 1   
    56   27   54 1   
    57   27   55 1   
@<TRIPOS>SUBSTRUCTURE
     1 H7J         1 TEMP              0 ****  ****    0 ROOT
