@<TRIPOS>MOLECULE
H7K
   56    60     1     0     0
SMALL
bcc


@<TRIPOS>ATOM
      1 O3          0.3210    0.1550    0.4300 o         1 H7K     -0.511000
      2 C21         1.4420    0.3990   -0.0220 c         1 H7K      0.561600
      3 O4          2.2570    1.2640    0.6540 os        1 H7K     -0.424900
      4 C22         1.7200    1.8170    1.8610 c3        1 H7K      0.124700
      5 C18         2.0260   -0.1440   -1.2370 cc        1 H7K      0.215200
      6 O2          3.3220    0.2660   -1.5790 os        1 H7K     -0.315800
      7 C19         1.5320   -1.0360   -2.1760 cd        1 H7K     -0.161300
      8 C20         2.5640   -1.2020   -3.1660 cd        1 H7K     -0.248300
      9 C17         3.6280   -0.4010   -2.7710 cc        1 H7K      0.330200
     10 C16         4.9190   -0.1430   -3.3290 cc        1 H7K     -0.105800
     11 N3          5.3610   -0.7320   -4.5460 na        1 H7K     -0.007600
     12 N2          6.5890   -0.3740   -4.9040 nc        1 H7K     -0.416800
     13 C15         7.0160    0.4740   -3.9380 cd        1 H7K      0.291800
     14 C11         8.1650    1.2720   -3.5730 ca        1 H7K     -0.042500
     15 C10         9.3950    1.4530   -4.1840 ca        1 H7K     -0.103000
     16 C9         10.3240    2.3060   -3.5760 ca        1 H7K     -0.093000
     17 C14         5.9770    0.6550   -2.9030 cd        1 H7K     -0.209600
     18 C13         6.4600    1.5810   -1.8520 c3        1 H7K      0.046200
     19 C12         7.8480    1.9380   -2.3390 ca        1 H7K     -0.075300
     20 C23         8.7730    2.7760   -1.7510 ca        1 H7K     -0.099000
     21 C8         10.0200    2.9600   -2.3800 ca        1 H7K     -0.201300
     22 C7         11.0370    3.8380   -1.7380 c3        1 H7K      0.177100
     23 N1         10.8710    5.2590   -2.1930 ny        1 H7K     -0.770000
     24 C4         11.8600    6.2030   -1.5560 c3        1 H7K      0.121500
     25 C3         11.4290    6.5930   -0.1380 c3        1 H7K     -0.095900
     26 C2         12.4650    7.5080    0.4810 c3        1 H7K     -0.092900
     27 C5         12.0300    7.4610   -2.4190 c3        1 H7K     -0.095900
     28 C6         13.0600    8.3800   -1.7950 c3        1 H7K     -0.092900
     29 C1         12.6780    8.7610   -0.3670 c3        1 H7K      0.135100
     30 O1         11.4770    9.5170   -0.4470 oh        1 H7K     -0.603800
     31 H23         0.7970    2.4020    1.6330 h1        1 H7K      0.057367
     32 H24         2.5440    2.4740    2.2330 h1        1 H7K      0.057367
     33 H25         1.4880    0.9990    2.5840 h1        1 H7K      0.057367
     34 H20         0.5560   -1.5190   -2.1700 ha        1 H7K      0.191000
     35 H21         2.5030   -1.8390   -4.0450 ha        1 H7K      0.172000
     36 H3          4.8370   -1.3670   -5.1060 hn        1 H7K      0.338700
     37 H17         9.6420    0.9350   -5.1230 ha        1 H7K      0.170000
     38 H16        11.3110    2.4430   -4.0470 ha        1 H7K      0.137000
     39 H18         5.8120    2.4910   -1.7680 hc        1 H7K      0.091200
     40 H19         6.5010    1.0840   -0.8470 hc        1 H7K      0.091200
     41 H22         8.5500    3.2780   -0.7980 ha        1 H7K      0.139000
     42 H15        12.0820    3.5110   -2.0100 hx        1 H7K      0.103700
     43 H14        10.9340    3.8230   -0.6150 hx        1 H7K      0.103700
     44 H13         9.9180    5.5700   -1.9720 hn        1 H7K      0.447800
     45 H2         12.8480    5.6520   -1.5080 hx        1 H7K      0.100700
     46 H8         10.4470    7.1380   -0.1750 hc        1 H7K      0.070200
     47 H7         11.3070    5.6810    0.5020 hc        1 H7K      0.070200
     48 H6         12.1160    7.8040    1.5050 hc        1 H7K      0.072700
     49 H5         13.4430    6.9720    0.5930 hc        1 H7K      0.072700
     50 H9         12.3610    7.1840   -3.4540 hc        1 H7K      0.070200
     51 H10        11.0540    8.0130   -2.4900 hc        1 H7K      0.070200
     52 H12        13.1310    9.3120   -2.4170 hc        1 H7K      0.072700
     53 H11        14.0670    7.8890   -1.7790 hc        1 H7K      0.072700
     54 H1         13.5000    9.3840    0.0850 h1        1 H7K      0.065700
     55 H4         11.3970   10.0110    0.3780 ho        1 H7K      0.419000
     56 H121       10.9820    5.2950   -3.2120 hn        1 H7K      0.447800
@<TRIPOS>BOND
     1    1    2 2   
     2    2    3 1   
     3    2    5 1   
     4    3    4 1   
     5    4   31 1   
     6    4   32 1   
     7    4   33 1   
     8    5    6 1   
     9    5    7 2   
    10    6    9 1   
    11    7    8 1   
    12    7   34 1   
    13    8    9 2   
    14    8   35 1   
    15    9   10 1   
    16   10   11 1   
    17   10   17 2   
    18   11   12 1   
    19   11   36 1   
    20   12   13 2   
    21   13   14 1   
    22   13   17 1   
    23   14   15 ar  
    24   14   19 ar  
    25   15   16 ar  
    26   15   37 1   
    27   16   21 ar  
    28   16   38 1   
    29   17   18 1   
    30   18   19 1   
    31   18   39 1   
    32   18   40 1   
    33   19   20 ar  
    34   20   21 ar  
    35   20   41 1   
    36   21   22 1   
    37   22   23 1   
    38   22   42 1   
    39   22   43 1   
    40   23   24 1   
    41   23   44 1   
    42   23   56 1   
    43   24   25 1   
    44   24   27 1   
    45   24   45 1   
    46   25   26 1   
    47   25   46 1   
    48   25   47 1   
    49   26   29 1   
    50   26   48 1   
    51   26   49 1   
    52   27   28 1   
    53   27   50 1   
    54   27   51 1   
    55   28   29 1   
    56   28   52 1   
    57   28   53 1   
    58   29   30 1   
    59   29   54 1   
    60   30   55 1   
@<TRIPOS>SUBSTRUCTURE
     1 H7K         1 TEMP              0 ****  ****    0 ROOT
