@<TRIPOS>MOLECULE
H7K
   55    59     1     0     0
SMALL
bcc


@<TRIPOS>ATOM
      1 O3          7.5080   -2.6710    0.2140 o         1 H7K     -0.530000
      2 C21         6.4070   -2.1140    0.2130 c         1 H7K      0.565600
      3 O4          5.3080   -2.8230    0.6110 os        1 H7K     -0.416900
      4 C22         5.5400   -4.1780    1.0020 c3        1 H7K      0.124700
      5 C18         6.1250   -0.7450   -0.1750 cc        1 H7K      0.195200
      6 O2          4.7950   -0.3060   -0.1020 os        1 H7K     -0.308800
      7 C19         6.9490    0.2740   -0.6280 cd        1 H7K     -0.158300
      8 C20         6.1040    1.4150   -0.8550 cd        1 H7K     -0.279300
      9 C17         4.8090    1.0260   -0.5260 cc        1 H7K      0.366200
     10 C16         3.5550    1.7100   -0.5420 cc        1 H7K     -0.138800
     11 N3          3.4330    3.0670   -0.9530 na        1 H7K     -0.029600
     12 N2          2.1850    3.5340   -0.9020 nc        1 H7K     -0.444800
     13 C15         1.4300    2.5060   -0.4560 cd        1 H7K      0.333800
     14 C11         0.0560    2.1740   -0.1310 ca        1 H7K     -0.113500
     15 C10        -1.1100    2.9150   -0.1810 ca        1 H7K     -0.097000
     16 C9         -2.3110    2.3040    0.2070 ca        1 H7K     -0.114000
     17 C14         2.2650    1.3090   -0.2090 cd        1 H7K     -0.201600
     18 C13         1.4200    0.1930    0.2790 c3        1 H7K      0.046200
     19 C12         0.0380    0.8080    0.3040 ca        1 H7K     -0.084300
     20 C23        -1.1520    0.2170    0.6790 ca        1 H7K     -0.115000
     21 C8         -2.3370    0.9750    0.6310 ca        1 H7K     -0.087300
     22 C7         -3.6260    0.3460    1.0750 c3        1 H7K      0.209100
     23 N1         -4.7050    0.5130    0.1200 n3        1 H7K     -0.822200
     24 C4         -5.8850   -0.2900    0.4110 c3        1 H7K      0.176500
     25 C3         -5.7370   -1.7950    0.1250 c3        1 H7K     -0.090900
     26 C2         -6.9810   -2.5530    0.5290 c3        1 H7K     -0.089400
     27 C5         -7.0990    0.2300   -0.3800 c3        1 H7K     -0.090900
     28 C6         -8.3540   -0.5030    0.0390 c3        1 H7K     -0.089400
     29 C1         -8.2310   -2.0100   -0.1580 c3        1 H7K      0.140100
     30 O1         -8.1380   -2.3680   -1.5330 oh        1 H7K     -0.599800
     31 H23         6.2400   -4.2100    1.8710 h1        1 H7K      0.054367
     32 H24         4.5220   -4.5460    1.2790 h1        1 H7K      0.054367
     33 H25         5.9660   -4.7540    0.1450 h1        1 H7K      0.054367
     34 H20         8.0250    0.2230   -0.7830 ha        1 H7K      0.181000
     35 H21         6.4300    2.3870   -1.2140 ha        1 H7K      0.166000
     36 H3          4.1780    3.6480   -1.2570 hn        1 H7K      0.324700
     37 H17        -1.1010    3.9630   -0.5150 ha        1 H7K      0.146000
     38 H16        -3.2470    2.8830    0.1740 ha        1 H7K      0.149000
     39 H18         1.4580   -0.6890   -0.4110 hc        1 H7K      0.080700
     40 H19         1.7310   -0.1450    1.3010 hc        1 H7K      0.080700
     41 H22        -1.1770   -0.8310    1.0130 ha        1 H7K      0.136000
     42 H15        -3.4350   -0.7420    1.3200 h1        1 H7K      0.038200
     43 H14        -3.9520    0.8460    2.0340 h1        1 H7K      0.038200
     44 H13        -4.3860    0.3420   -0.8150 hn        1 H7K      0.363800
     45 H2         -6.1090   -0.1650    1.5120 h1        1 H7K      0.052700
     46 H8         -5.5540   -1.9520   -0.9710 hc        1 H7K      0.050450
     47 H7         -4.8580   -2.2100    0.6830 hc        1 H7K      0.050450
     48 H6         -6.8610   -3.6340    0.2600 hc        1 H7K      0.047950
     49 H5         -7.1350   -2.4810    1.6370 hc        1 H7K      0.047950
     50 H9         -7.2300    1.3280   -0.2020 hc        1 H7K      0.050450
     51 H10        -6.9280    0.0730   -1.4770 hc        1 H7K      0.050450
     52 H12        -8.5690   -0.3030    1.1220 hc        1 H7K      0.047950
     53 H11        -9.2240   -0.1180   -0.5550 hc        1 H7K      0.047950
     54 H1         -9.1440   -2.5140    0.2740 h1        1 H7K      0.030700
     55 H4         -8.8260   -1.8770   -1.9980 ho        1 H7K      0.399000
@<TRIPOS>BOND
     1    1    2 2   
     2    2    3 1   
     3    2    5 1   
     4    3    4 1   
     5    4   31 1   
     6    4   32 1   
     7    4   33 1   
     8    5    6 1   
     9    5    7 2   
    10    6    9 1   
    11    7    8 1   
    12    7   34 1   
    13    8    9 2   
    14    8   35 1   
    15    9   10 1   
    16   10   11 1   
    17   10   17 2   
    18   11   12 1   
    19   11   36 1   
    20   12   13 2   
    21   13   14 1   
    22   13   17 1   
    23   14   15 ar  
    24   14   19 ar  
    25   15   16 ar  
    26   15   37 1   
    27   16   21 ar  
    28   16   38 1   
    29   17   18 1   
    30   18   19 1   
    31   18   39 1   
    32   18   40 1   
    33   19   20 ar  
    34   20   21 ar  
    35   20   41 1   
    36   21   22 1   
    37   22   23 1   
    38   22   42 1   
    39   22   43 1   
    40   23   24 1   
    41   23   44 1   
    42   24   25 1   
    43   24   27 1   
    44   24   45 1   
    45   25   26 1   
    46   25   46 1   
    47   25   47 1   
    48   26   29 1   
    49   26   48 1   
    50   26   49 1   
    51   27   28 1   
    52   27   50 1   
    53   27   51 1   
    54   28   29 1   
    55   28   52 1   
    56   28   53 1   
    57   29   30 1   
    58   29   54 1   
    59   30   55 1   
@<TRIPOS>SUBSTRUCTURE
     1 H7K         1 TEMP              0 ****  ****    0 ROOT
