@<TRIPOS>MOLECULE
H7K
   56    60     1     0     0
SMALL
bcc


@<TRIPOS>ATOM
      1 O3          0.3250    0.1420    0.4170 o         1 H7K     -0.511000
      2 C21         1.4460    0.3880   -0.0330 c         1 H7K      0.561600
      3 O4          2.2600    1.2530    0.6450 os        1 H7K     -0.424900
      4 C22         1.7210    1.8040    1.8520 c3        1 H7K      0.124700
      5 C18         2.0310   -0.1520   -1.2480 cc        1 H7K      0.215200
      6 O2          3.3260    0.2600   -1.5890 os        1 H7K     -0.315800
      7 C19         1.5390   -1.0440   -2.1890 cd        1 H7K     -0.161300
      8 C20         2.5720   -1.2070   -3.1790 cd        1 H7K     -0.248300
      9 C17         3.6350   -0.4050   -2.7820 cc        1 H7K      0.330200
     10 C16         4.9260   -0.1450   -3.3390 cc        1 H7K     -0.105800
     11 N3          5.3680   -0.7300   -4.5570 na        1 H7K     -0.007600
     12 N2          6.5960   -0.3700   -4.9130 nc        1 H7K     -0.416800
     13 C15         7.0220    0.4750   -3.9440 cd        1 H7K      0.291800
     14 C11         8.1710    1.2720   -3.5750 ca        1 H7K     -0.042500
     15 C10         9.4010    1.4560   -4.1850 ca        1 H7K     -0.103000
     16 C9         10.3310    2.3060   -3.5740 ca        1 H7K     -0.093000
     17 C14         5.9830    0.6520   -2.9090 cd        1 H7K     -0.209600
     18 C13         6.4650    1.5750   -1.8550 c3        1 H7K      0.046200
     19 C12         7.8540    1.9340   -2.3400 ca        1 H7K     -0.075300
     20 C23         8.7780    2.7700   -1.7480 ca        1 H7K     -0.099000
     21 C8         10.0250    2.9560   -2.3760 ca        1 H7K     -0.201300
     22 C7         11.0410    3.8320   -1.7300 c3        1 H7K      0.177100
     23 N1         10.8660    5.2570   -2.1670 n4        1 H7K     -0.770000
     24 C4         11.8480    6.2000   -1.5180 c3        1 H7K      0.121500
     25 C3         11.4110    6.5700   -0.0960 c3        1 H7K     -0.095900
     26 C2         12.4340    7.4900    0.5360 c3        1 H7K     -0.092900
     27 C5         12.0130    7.4690   -2.3650 c3        1 H7K     -0.095900
     28 C6         13.0410    8.3820   -1.7280 c3        1 H7K     -0.092900
     29 C1         12.6470    8.7490   -0.2990 c3        1 H7K      0.135100
     30 O1         11.4190    9.4660   -0.2880 oh        1 H7K     -0.603800
     31 H23         1.4900    0.9840    2.5740 h1        1 H7K      0.057367
     32 H24         2.5440    2.4610    2.2260 h1        1 H7K      0.057367
     33 H25         0.7980    2.3880    1.6240 h1        1 H7K      0.057367
     34 H20         0.5630   -1.5280   -2.1850 ha        1 H7K      0.191000
     35 H21         2.5120   -1.8430   -4.0580 ha        1 H7K      0.172000
     36 H3          4.8450   -1.3630   -5.1190 hn        1 H7K      0.338700
     37 H17         9.6490    0.9400   -5.1260 ha        1 H7K      0.170000
     38 H16        11.3170    2.4450   -4.0430 ha        1 H7K      0.137000
     39 H18         6.5050    1.0750   -0.8520 hc        1 H7K      0.091700
     40 H19         5.8160    2.4850   -1.7690 hc        1 H7K      0.091700
     41 H22         8.5530    3.2690   -0.7940 ha        1 H7K      0.139000
     42 H15        10.9430    3.8050   -0.6060 hx        1 H7K      0.104200
     43 H14        12.0870    3.5140   -2.0090 hx        1 H7K      0.104200
     44 H13         9.9110    5.5590   -1.9430 hn        1 H7K      0.447300
     45 H2         12.8390    5.6550   -1.4750 hx        1 H7K      0.100700
     46 H8         10.4220    7.1030   -0.1250 hc        1 H7K      0.070450
     47 H7         11.3020    5.6480    0.5330 hc        1 H7K      0.070450
     48 H6         12.0690    7.7840    1.5560 hc        1 H7K      0.072700
     49 H5         13.4170    6.9640    0.6520 hc        1 H7K      0.072700
     50 H9         12.3410    7.2080   -3.4050 hc        1 H7K      0.070450
     51 H10        11.0340    8.0180   -2.4240 hc        1 H7K      0.070450
     52 H12        13.1230    9.3150   -2.3460 hc        1 H7K      0.072700
     53 H11        14.0470    7.8880   -1.7160 hc        1 H7K      0.072700
     54 H1         13.4630    9.3710    0.1650 h1        1 H7K      0.065700
     55 H4         11.6180   10.3730   -0.5490 ho        1 H7K      0.419000
     56 H121       10.9770    5.3060   -3.1870 hn        1 H7K      0.447300
@<TRIPOS>BOND
     1    1    2 2   
     2    2    3 1   
     3    2    5 1   
     4    3    4 1   
     5    4   31 1   
     6    4   32 1   
     7    4   33 1   
     8    5    6 1   
     9    5    7 2   
    10    6    9 1   
    11    7    8 1   
    12    7   34 1   
    13    8    9 2   
    14    8   35 1   
    15    9   10 1   
    16   10   11 1   
    17   10   17 2   
    18   11   12 1   
    19   11   36 1   
    20   12   13 2   
    21   13   14 1   
    22   13   17 1   
    23   14   15 ar  
    24   14   19 ar  
    25   15   16 ar  
    26   15   37 1   
    27   16   21 ar  
    28   16   38 1   
    29   17   18 1   
    30   18   19 1   
    31   18   39 1   
    32   18   40 1   
    33   19   20 ar  
    34   20   21 ar  
    35   20   41 1   
    36   21   22 1   
    37   22   23 1   
    38   22   42 1   
    39   22   43 1   
    40   23   24 1   
    41   23   44 1   
    42   23   56 1   
    43   24   25 1   
    44   24   27 1   
    45   24   45 1   
    46   25   26 1   
    47   25   46 1   
    48   25   47 1   
    49   26   29 1   
    50   26   48 1   
    51   26   49 1   
    52   27   28 1   
    53   27   50 1   
    54   27   51 1   
    55   28   29 1   
    56   28   52 1   
    57   28   53 1   
    58   29   30 1   
    59   29   54 1   
    60   30   55 1   
@<TRIPOS>SUBSTRUCTURE
     1 H7K         1 TEMP              0 ****  ****    0 ROOT
