@<TRIPOS>MOLECULE
H7K
   55    49     1     0     0
SMALL
bcc


@<TRIPOS>ATOM
      1 O3         -7.6400   -4.0510    2.5380 o         1 H7K     -0.328000
      2 C21        -7.9260   -3.6860    1.4330 c1        1 H7K      0.374000
      3 O4         -9.2650   -3.9180    0.9200 os        1 H7K     -0.271000
      4 C22       -10.1350   -4.5100    1.8540 c3        1 H7K     -0.062000
      5 C18        -6.9320   -2.8910    0.6210 c1        1 H7K     -0.010500
      6 O2         -5.6620   -3.2950    0.2800 os        1 H7K     -0.079000
      7 C19        -7.1530   -1.6500    0.0510 c1        1 H7K     -0.143500
      8 C20        -6.0190   -1.2940   -0.6380 c1        1 H7K     -0.143500
      9 C17        -5.0950   -2.3150   -0.4950 c1        1 H7K     -0.010500
     10 C16        -3.6740   -2.3480   -1.1000 c1        1 H7K     -0.053000
     11 N3         -3.4700   -3.1490   -2.1980 n2        1 H7K     -0.084500
     12 N2         -2.1500   -3.0390   -2.5660 n2        1 H7K     -0.084500
     13 C15        -1.5370   -2.1650   -1.6890 c1        1 H7K     -0.053000
     14 C11        -0.2200   -1.4990   -1.3300 c1        1 H7K     -0.002000
     15 C10         1.0430   -1.5280   -1.9340 c1        1 H7K     -0.112500
     16 C9          2.0790   -0.7540   -1.4180 c1        1 H7K     -0.112500
     17 C14        -2.4870   -1.7420   -0.7850 c1        1 H7K     -0.149000
     18 C13        -1.8440   -0.8120    0.1580 c2        1 H7K     -0.046000
     19 C12        -0.4400   -0.6940   -0.2100 c1        1 H7K     -0.082000
     20 C23         0.5920    0.0800    0.3070 c1        1 H7K     -0.099000
     21 C8          1.8560    0.0540   -0.2930 c1        1 H7K     -0.080000
     22 C7          3.0150    0.6900    0.4760 c3        1 H7K     -0.036000
     23 N1          3.4360    1.8740   -0.1800 n3        1 H7K     -0.301000
     24 C4          4.6710    2.3420    0.4220 c3        1 H7K     -0.021000
     25 C3          4.5060    3.7680    0.8100 c3        1 H7K     -0.169500
     26 C2          5.8100    4.3920    1.2880 c3        1 H7K     -0.168000
     27 C5          5.8220    2.1320   -0.5790 c3        1 H7K     -0.169500
     28 C6          7.1240    2.7540   -0.1100 c3        1 H7K     -0.168000
     29 C1          6.9630    4.1840    0.2800 c3        1 H7K      0.029000
     30 O1          6.6910    4.9480   -0.8910 oh        1 H7K     -0.327000
     31 H23       -10.9720   -4.8170    1.3860 h1        1 H7K      0.094333
     32 H24        -9.7000   -5.2660    2.2630 h1        1 H7K      0.094333
     33 H25       -10.3690   -3.8500    2.5460 h1        1 H7K      0.094333
     34 H20        -8.0010   -1.1000    0.1280 DU        1 H7K      0.213333
     35 H21        -5.8890   -0.4670   -1.1400 DU        1 H7K      0.213333
     36 H3         -4.0920   -3.7040   -2.5810 DU        1 H7K      0.213333
     37 H17         1.1940   -2.0810   -2.7040 ha        1 H7K      0.140500
     38 H16         2.9750   -0.7760   -1.8450 ha        1 H7K      0.140500
     39 H18        -1.9170   -1.1520    1.0430 ha        1 H7K      0.113000
     40 H19        -2.2730    0.0590    0.1060 ha        1 H7K      0.113000
     41 H22         0.4380    0.6320    1.0770 ha        1 H7K      0.150000
     42 H15         2.7180    0.9120    1.3990 h1        1 H7K      0.078000
     43 H14         3.7920    0.0320    0.5190 h1        1 H7K      0.078000
     44 H13         3.5710    1.7040   -1.0530 hn        1 H7K      0.159000
     45 H2          4.8510    1.8110    1.2320 h1        1 H7K      0.092000
     46 H8          3.8550    3.8280    1.5130 hc        1 H7K      0.089750
     47 H7          4.1800    4.2710    0.0330 hc        1 H7K      0.089750
     48 H6          5.6730    5.3540    1.4250 hc        1 H7K      0.087500
     49 H5          6.0840    3.9490    2.2120 hc        1 H7K      0.087500
     50 H9          5.9570    1.1920   -0.6980 hc        1 H7K      0.089750
     51 H10         5.5620    2.5440   -1.4690 hc        1 H7K      0.089750
     52 H12         7.4770    2.2240    0.6980 hc        1 H7K      0.087500
     53 H11         7.7910    2.6970   -0.8510 hc        1 H7K      0.087500
     54 H1          7.8500    4.5210    0.7050 h1        1 H7K      0.070000
     55 H4          7.2880    5.6050   -0.9660 ho        1 H7K      0.198000
@<TRIPOS>BOND
     1    1    2 1   
     2    2    3 1   
     3    3    4 1   
     4    4   31 1   
     5    4   32 1   
     6    4   33 1   
     7    5    6 1   
     8    5    7 1   
     9    6    9 1   
    10    7    8 1   
    11    8    9 1   
    12   10   11 1   
    13   10   17 1   
    14   11   12 1   
    15   12   13 1   
    16   13   17 1   
    17   14   19 1   
    18   15   16 1   
    19   15   37 1   
    20   16   38 1   
    21   18   19 1   
    22   18   39 1   
    23   18   40 1   
    24   20   21 1   
    25   20   41 1   
    26   21   22 1   
    27   22   23 1   
    28   22   42 1   
    29   22   43 1   
    30   23   24 1   
    31   23   44 1   
    32   24   25 1   
    33   24   27 1   
    34   24   45 1   
    35   25   26 1   
    36   25   46 1   
    37   25   47 1   
    38   26   29 1   
    39   26   48 1   
    40   26   49 1   
    41   27   28 1   
    42   27   50 1   
    43   27   51 1   
    44   28   29 1   
    45   28   52 1   
    46   28   53 1   
    47   29   30 1   
    48   29   54 1   
    49   30   55 1   
@<TRIPOS>SUBSTRUCTURE
     1 H7K         1 TEMP              0 ****  ****    0 ROOT
