@<TRIPOS>MOLECULE
H86
   65    66     1     0     0
SMALL
bcc


@<TRIPOS>ATOM
      1 CAA         0.0000    0.0000    0.0000 c3        1 H86      0.005900
      2 CAP         1.5300    0.0000    0.0000 c3        1 H86     -0.029400
      3 CAQ         2.0400    0.0000    1.4420 c3        1 H86     -0.030400
      4 CAR         3.5700    0.0010    1.4420 c3        1 H86     -0.030400
      5 CAS         4.0800    0.0010    2.8850 c3        1 H86     -0.029400
      6 CAT         5.6100    0.0010    2.8850 c3        1 H86     -0.030400
      7 CAU         6.1200    0.0010    4.3270 c3        1 H86     -0.029400
      8 CAV         7.6500    0.0010    4.3270 c3        1 H86     -0.025400
      9 CAW         8.1600    0.0010    5.7690 c3        1 H86     -0.039400
     10 CAX         9.6900    0.0010    5.7690 c3        1 H86      0.202400
     11 OAZ        10.1670    0.0010    7.1160 os        1 H86     -0.318900
     12 CBC        11.5140    0.0010    7.2950 ca        1 H86      0.187100
     13 CAM        12.3680    0.0020    6.1990 ca        1 H86     -0.309000
     14 CAN        12.0550    0.0070    8.5740 ca        1 H86     -0.603300
     15 NBG        13.3600    0.0080    8.7580 na        1 H86      0.703900
     16 CAY        13.8840    0.0140   10.1250 c3        1 H86     -0.114700
     17 CBF        13.8800   -1.4120   10.6800 c3        1 H86      0.252900
     18 PBI        15.0630   -2.4330    9.7410 p5        1 H86      0.466200
     19 OAF        16.4200   -1.8580    9.8700 o         1 H86     -0.606333
     20 OAG        15.0590   -3.9330   10.3250 o         1 H86     -0.606333
     21 OAC        14.6360   -2.4590    8.1890 o         1 H86     -0.606333
     22 PBH        14.3630   -1.3820   12.4370 p5        1 H86      0.466200
     23 OAD        13.3150   -0.4870   13.2680 o         1 H86     -0.606333
     24 OAE        14.3650   -2.8840   13.0190 o         1 H86     -0.606333
     25 OAB        15.7190   -0.8020   12.5660 o         1 H86     -0.606333
     26 CAO        14.2060    0.0020    7.7480 ca        1 H86     -0.144300
     27 CBE        13.7450    0.0020    6.4330 cp        1 H86     -0.155000
     28 CBD        14.7030   -0.0030    5.3000 cp        1 H86      0.049000
     29 CAK        14.2320   -0.0040    3.9890 ca        1 H86     -0.206000
     30 CBA        15.1280   -0.0080    2.9360 ca        1 H86      0.113400
     31 FAH        14.6730   -0.0100    1.6630 f         1 H86     -0.171900
     32 CAJ        16.4910   -0.0130    3.1820 ca        1 H86     -0.366000
     33 CBB        16.9630   -0.0130    4.4850 ca        1 H86      0.113400
     34 FAI        18.2920   -0.0170    4.7200 f         1 H86     -0.171900
     35 CAL        16.0750   -0.0020    5.5440 ca        1 H86     -0.206000
     36 HAA1       -0.3610   -0.8840    0.5110 hc        1 H86     -0.003633
     37 HAA2       -0.3610   -0.0000   -1.0210 hc        1 H86     -0.003633
     38 HAA3       -0.3610    0.8850    0.5100 hc        1 H86     -0.003633
     39 HAP1        1.8910    0.8850   -0.5110 hc        1 H86      0.011200
     40 HAP2        1.8910   -0.8850   -0.5110 hc        1 H86      0.011200
     41 HAQ1        1.6780    0.8840    1.9530 hc        1 H86      0.013200
     42 HAQ2        1.6790   -0.8850    1.9520 hc        1 H86      0.013200
     43 HAR1        3.9310   -0.8830    0.9310 hc        1 H86      0.013700
     44 HAR2        3.9300    0.8860    0.9320 hc        1 H86      0.013700
     45 HAS1        3.7190   -0.8840    3.3950 hc        1 H86      0.012700
     46 HAS2        3.7190    0.8850    3.3960 hc        1 H86      0.012700
     47 HAT1        5.9710    0.8850    2.3740 hc        1 H86      0.014200
     48 HAT2        5.9710   -0.8840    2.3740 hc        1 H86      0.014200
     49 HAU1        5.7590    0.8850    4.8370 hc        1 H86      0.011700
     50 HAU2        5.7590   -0.8840    4.8370 hc        1 H86      0.011700
     51 HAV1        8.0110    0.8850    3.8160 hc        1 H86      0.014700
     52 HAV2        8.0110   -0.8840    3.8160 hc        1 H86      0.014700
     53 HAW1        7.7990   -0.8840    6.2800 hc        1 H86      0.015700
     54 HAW2        7.7990    0.8850    6.2800 hc        1 H86      0.015700
     55 HAX1       10.0510   -0.8840    5.2590 h1        1 H86      0.001200
     56 HAX2       10.0510    0.8850    5.2590 h1        1 H86      0.001200
     57 HAM        11.9760    0.0020    5.1890 ha        1 H86      0.102000
     58 HAN        11.3940    0.0120    9.4320 h4        1 H86      0.146000
     59 HAY1       14.8970    0.3970   10.1220 h1        1 H86      0.053700
     60 HAY2       13.2620    0.6450   10.7480 h1        1 H86      0.053700
     61 HBF        12.8860   -1.8330   10.5870 hc        1 H86      0.023700
     62 HAO        15.2710    0.0070    7.9430 h4        1 H86      0.166000
     63 HAK        13.1690    0.0690    3.7950 ha        1 H86      0.123000
     64 HAJ        17.1900   -0.0170    2.3550 ha        1 H86      0.094000
     65 HAL        16.4440   -0.0030    6.5620 ha        1 H86      0.123000
@<TRIPOS>BOND
     1    1    2 1   
     2    1   36 1   
     3    1   37 1   
     4    1   38 1   
     5    2    3 1   
     6    2   39 1   
     7    2   40 1   
     8    3    4 1   
     9    3   41 1   
    10    3   42 1   
    11    4    5 1   
    12    4   43 1   
    13    4   44 1   
    14    5    6 1   
    15    5   45 1   
    16    5   46 1   
    17    6    7 1   
    18    6   47 1   
    19    6   48 1   
    20    7    8 1   
    21    7   49 1   
    22    7   50 1   
    23    8    9 1   
    24    8   51 1   
    25    8   52 1   
    26    9   10 1   
    27    9   53 1   
    28    9   54 1   
    29   10   11 1   
    30   10   55 1   
    31   10   56 1   
    32   11   12 1   
    33   12   13 ar  
    34   12   14 ar  
    35   13   27 ar  
    36   13   57 1   
    37   14   15 1   
    38   14   58 1   
    39   15   16 1   
    40   15   26 2   
    41   16   17 1   
    42   16   59 1   
    43   16   60 1   
    44   17   18 1   
    45   17   22 1   
    46   17   61 1   
    47   18   19 1   
    48   18   20 1   
    49   18   21 1   
    50   22   23 1   
    51   22   24 1   
    52   22   25 1   
    53   26   27 ar  
    54   26   62 1   
    55   27   28 1   
    56   28   29 ar  
    57   28   35 ar  
    58   29   30 ar  
    59   29   63 1   
    60   30   31 1   
    61   30   32 ar  
    62   32   33 ar  
    63   32   64 1   
    64   33   34 1   
    65   33   35 ar  
    66   35   65 1   
@<TRIPOS>SUBSTRUCTURE
     1 H86         1 TEMP              0 ****  ****    0 ROOT
