@<TRIPOS>MOLECULE
H89
   52    56     1     0     0
SMALL
bcc


@<TRIPOS>ATOM
      1 C1         -0.0750   -0.0890    0.4780 ca        1 H89      0.380700
      2 C2          1.3200   -0.2070    0.3440 ca        1 H89     -0.222800
      3 C3          2.1240    0.0730    1.4550 ca        1 H89     -0.073300
      4 C4          1.5050    0.4730    2.6450 ca        1 H89     -0.222800
      5 C5          0.1020    0.5630    2.6750 ca        1 H89      0.380700
      6 N6         -0.6880    0.2830    1.6190 nb        1 H89     -0.674000
      7 C7          3.6150   -0.0860    1.3780 c3        1 H89      0.086600
      8 N8          4.4010    1.1330    1.3680 na        1 H89     -0.013800
      9 C9          4.4800    1.9360    0.1700 ca        1 H89      0.393800
     10 C10         4.7310    3.2960    0.6140 ca        1 H89     -0.287200
     11 C11         4.6790    3.2110    2.0720 cc        1 H89      0.433800
     12 N12         4.4260    1.9600    2.4610 nd        1 H89     -0.579100
     13 N13         4.4330    1.5430   -1.1220 nb        1 H89     -0.697000
     14 C14         4.6500    2.5450   -2.0230 cp        1 H89      0.448800
     15 C15         4.9060    3.8910   -1.6700 ca        1 H89     -0.238300
     16 C16         4.9580    4.2900   -0.3270 ca        1 H89     -0.023600
     17 C18         5.2560    5.7370    0.0580 c         1 H89      0.911200
     18 O19         5.2510    6.0280    1.2860 o         1 H89     -0.813800
     19 O20         5.4900    6.5470   -0.8780 o         1 H89     -0.813800
     20 C21         4.6130    2.1950   -3.4560 cp        1 H89     -0.146500
     21 C22         5.5380    2.7800   -4.3360 ca        1 H89     -0.077000
     22 C23         5.5170    2.4760   -5.6910 ca        1 H89     -0.188000
     23 C24         4.5580    1.5700   -6.1790 ca        1 H89      0.112100
     24 C25         3.6310    0.9790   -5.3150 ca        1 H89     -0.188000
     25 C26         3.6670    1.2950   -3.9570 ca        1 H89     -0.077000
     26 O27         4.6350    1.3270   -7.5420 os        1 H89     -0.334900
     27 C28         3.7920    0.3940   -9.5530 ca        1 H89     -0.084300
     28 C29         5.0180    0.6850  -10.1580 ca        1 H89     -0.114500
     29 C30         5.1640    0.5510  -11.5390 ca        1 H89     -0.134000
     30 C31         4.0910    0.1230  -12.3190 ca        1 H89     -0.133000
     31 C32         2.8660   -0.1670  -11.7180 ca        1 H89     -0.134000
     32 C33         2.7140   -0.0300  -10.3400 ca        1 H89     -0.114500
     33 C34         3.5980    0.4980   -8.0750 c3        1 H89      0.173700
     34 H1         -0.7410   -0.3000   -0.3770 h4        1 H89      0.013100
     35 H2          1.7660   -0.4970   -0.6160 ha        1 H89      0.154000
     36 H4          2.1030    0.7240    3.5320 ha        1 H89      0.154000
     37 H5         -0.4210    0.8810    3.5940 h4        1 H89      0.013100
     38 H7          3.8870   -0.6490    0.4390 h1        1 H89      0.070700
     39 H7A         3.9490   -0.6940    2.2690 h1        1 H89      0.070700
     40 H11         4.8360    4.0670    2.7410 h4        1 H89      0.088800
     41 H15         5.0620    4.6590   -2.4440 ha        1 H89      0.168000
     42 H22         6.2880    3.4880   -3.9470 ha        1 H89      0.149000
     43 H23         6.2360    2.9320   -6.3860 ha        1 H89      0.134000
     44 H25         2.8770    0.2710   -5.6830 ha        1 H89      0.134000
     45 H26         2.9390    0.8270   -3.2760 ha        1 H89      0.149000
     46 H29         5.8620    1.0270   -9.5380 ha        1 H89      0.142000
     47 H30         6.1300    0.7850  -12.0100 ha        1 H89      0.127500
     48 H31         4.2080    0.0180  -13.4070 ha        1 H89      0.125000
     49 H32         2.0170   -0.5010  -12.3320 ha        1 H89      0.127500
     50 H33         1.7460   -0.2540   -9.8680 ha        1 H89      0.142000
     51 H34         3.6660   -0.5240   -7.6100 h1        1 H89      0.048200
     52 H34A        2.5970    0.9510   -7.8390 h1        1 H89      0.048200
@<TRIPOS>BOND
     1    1    2 ar  
     2    1    6 ar  
     3    1   34 1   
     4    2    3 ar  
     5    2   35 1   
     6    3    4 ar  
     7    3    7 1   
     8    4    5 ar  
     9    4   36 1   
    10    5    6 ar  
    11    5   37 1   
    12    7    8 1   
    13    7   38 1   
    14    7   39 1   
    15    8    9 1   
    16    8   12 1   
    17    9   10 ar  
    18    9   13 ar  
    19   10   11 1   
    20   10   16 ar  
    21   11   12 2   
    22   11   40 1   
    23   13   14 ar  
    24   14   15 ar  
    25   14   20 1   
    26   15   16 ar  
    27   15   41 1   
    28   16   17 1   
    29   17   18 1   
    30   17   19 1   
    31   20   21 ar  
    32   20   25 ar  
    33   21   22 ar  
    34   21   42 1   
    35   22   23 ar  
    36   22   43 1   
    37   23   24 ar  
    38   23   26 1   
    39   24   25 ar  
    40   24   44 1   
    41   25   45 1   
    42   26   33 1   
    43   27   28 ar  
    44   27   32 ar  
    45   27   33 1   
    46   28   29 ar  
    47   28   46 1   
    48   29   30 ar  
    49   29   47 1   
    50   30   31 ar  
    51   30   48 1   
    52   31   32 ar  
    53   31   49 1   
    54   32   50 1   
    55   33   51 1   
    56   33   52 1   
@<TRIPOS>SUBSTRUCTURE
     1 H89         1 TEMP              0 ****  ****    0 ROOT
