@<TRIPOS>MOLECULE
H89
   52    56     1     0     0
SMALL
bcc


@<TRIPOS>ATOM
      1 C1         -0.0540   -0.1180    0.4870 ca        1 H89      0.380700
      2 C2          1.3410   -0.2220    0.3500 ca        1 H89     -0.222800
      3 C3          2.1460    0.0650    1.4580 ca        1 H89     -0.073300
      4 C4          1.5260    0.4580    2.6500 ca        1 H89     -0.222800
      5 C5          0.1220    0.5350    2.6830 ca        1 H89      0.380700
      6 N6         -0.6670    0.2480    1.6290 nb        1 H89     -0.674000
      7 C7          3.6390   -0.0800    1.3780 c3        1 H89      0.086600
      8 N8          4.4120    1.1460    1.3660 na        1 H89     -0.013800
      9 C9          4.4810    1.9490    0.1670 ca        1 H89      0.393800
     10 C10         4.7200    3.3120    0.6100 ca        1 H89     -0.287200
     11 C11         4.6720    3.2270    2.0680 cc        1 H89      0.433800
     12 N12         4.4320    1.9740    2.4590 nd        1 H89     -0.579100
     13 N13         4.4350    1.5550   -1.1250 nb        1 H89     -0.697000
     14 C14         4.6400    2.5590   -2.0260 cp        1 H89      0.448800
     15 C15         4.8830    3.9080   -1.6750 ca        1 H89     -0.238300
     16 C16         4.9340    4.3070   -0.3320 ca        1 H89     -0.023600
     17 C18         5.2190    5.7580    0.0520 c         1 H89      0.911200
     18 O19         5.2140    6.0490    1.2790 o         1 H89     -0.813800
     19 O20         5.4440    6.5690   -0.8860 o         1 H89     -0.813800
     20 C21         4.6030    2.2080   -3.4590 cp        1 H89     -0.146500
     21 C22         5.5200    2.8010   -4.3420 ca        1 H89     -0.077000
     22 C23         5.5000    2.4970   -5.6970 ca        1 H89     -0.188000
     23 C24         4.5480    1.5810   -6.1820 ca        1 H89      0.112100
     24 C25         3.6300    0.9800   -5.3150 ca        1 H89     -0.188000
     25 C26         3.6660    1.2980   -3.9570 ca        1 H89     -0.077000
     26 O27         4.6250    1.3390   -7.5450 os        1 H89     -0.334900
     27 C28         3.7930    0.3850   -9.5510 ca        1 H89     -0.084300
     28 C29         5.0120    0.6980  -10.1600 ca        1 H89     -0.114500
     29 C30         5.1590    0.5610  -11.5400 ca        1 H89     -0.134000
     30 C31         4.0930    0.1090  -12.3180 ca        1 H89     -0.133000
     31 C32         2.8750   -0.2030  -11.7130 ca        1 H89     -0.134000
     32 C33         2.7230   -0.0640  -10.3350 ca        1 H89     -0.114500
     33 C34         3.6000    0.4920   -8.0740 c3        1 H89      0.173700
     34 H1         -0.7200   -0.3350   -0.3670 h4        1 H89      0.013100
     35 H2          1.7890   -0.5080   -0.6120 ha        1 H89      0.154000
     36 H4          2.1230    0.7150    3.5360 ha        1 H89      0.154000
     37 H5         -0.4020    0.8470    3.6030 h4        1 H89      0.013100
     38 H7          3.9130   -0.6410    0.4390 h1        1 H89      0.070700
     39 H7A         3.9800   -0.6850    2.2690 h1        1 H89      0.070700
     40 H11         4.8220    4.0850    2.7360 h4        1 H89      0.088800
     41 H15         5.0300    4.6770   -2.4490 ha        1 H89      0.168000
     42 H22         6.2640    3.5170   -3.9540 ha        1 H89      0.149000
     43 H23         6.2120    2.9590   -6.3930 ha        1 H89      0.134000
     44 H25         2.8820    0.2650   -5.6810 ha        1 H89      0.134000
     45 H26         2.9440    0.8230   -3.2740 ha        1 H89      0.149000
     46 H29         5.8500    1.0600   -9.5430 ha        1 H89      0.142000
     47 H30         6.1190    0.8120  -12.0150 ha        1 H89      0.127500
     48 H31         4.2100    0.0010  -13.4050 ha        1 H89      0.125000
     49 H32         2.0320   -0.5570  -12.3230 ha        1 H89      0.127500
     50 H33         1.7600   -0.3040   -9.8600 ha        1 H89      0.142000
     51 H34         3.6830   -0.5270   -7.6050 h1        1 H89      0.048200
     52 H34A        2.5930    0.9310   -7.8380 h1        1 H89      0.048200
@<TRIPOS>BOND
     1    1    2 ar  
     2    1    6 ar  
     3    1   34 1   
     4    2    3 ar  
     5    2   35 1   
     6    3    4 ar  
     7    3    7 1   
     8    4    5 ar  
     9    4   36 1   
    10    5    6 ar  
    11    5   37 1   
    12    7    8 1   
    13    7   38 1   
    14    7   39 1   
    15    8    9 1   
    16    8   12 1   
    17    9   10 ar  
    18    9   13 ar  
    19   10   11 1   
    20   10   16 ar  
    21   11   12 2   
    22   11   40 1   
    23   13   14 ar  
    24   14   15 ar  
    25   14   20 1   
    26   15   16 ar  
    27   15   41 1   
    28   16   17 1   
    29   17   18 1   
    30   17   19 1   
    31   20   21 ar  
    32   20   25 ar  
    33   21   22 ar  
    34   21   42 1   
    35   22   23 ar  
    36   22   43 1   
    37   23   24 ar  
    38   23   26 1   
    39   24   25 ar  
    40   24   44 1   
    41   25   45 1   
    42   26   33 1   
    43   27   28 ar  
    44   27   32 ar  
    45   27   33 1   
    46   28   29 ar  
    47   28   46 1   
    48   29   30 ar  
    49   29   47 1   
    50   30   31 ar  
    51   30   48 1   
    52   31   32 ar  
    53   31   49 1   
    54   32   50 1   
    55   33   51 1   
    56   33   52 1   
@<TRIPOS>SUBSTRUCTURE
     1 H89         1 TEMP              0 ****  ****    0 ROOT
