@<TRIPOS>MOLECULE
H89
   52    56     1     0     0
SMALL
bcc


@<TRIPOS>ATOM
      1 C1         -3.2600   -4.2770   -1.1520 ca        1 H89      0.380700
      2 C2         -3.0280   -3.4330   -0.0510 ca        1 H89     -0.222800
      3 C3         -4.1210   -2.7900    0.5410 ca        1 H89     -0.073300
      4 C4         -5.3940   -3.0030    0.0000 ca        1 H89     -0.222800
      5 C5         -5.5200   -3.8640   -1.1040 ca        1 H89      0.380700
      6 N6         -4.4800   -4.5020   -1.6770 nb        1 H89     -0.674000
      7 C7         -3.9330   -1.9190    1.7490 c3        1 H89      0.086600
      8 N8         -4.0780   -0.4900    1.5510 na        1 H89     -0.013800
      9 C9         -3.0270    0.2660    0.9110 ca        1 H89      0.393800
     10 C10        -3.6750    1.4090    0.2900 ca        1 H89     -0.287200
     11 C11        -5.0980    1.1850    0.5280 cc        1 H89      0.433800
     12 N12        -5.2900    0.0500    1.2030 nd        1 H89     -0.579100
     13 N13        -1.6920    0.0530    0.9320 nb        1 H89     -0.697000
     14 C14        -0.9590    1.0220    0.3120 cp        1 H89      0.448800
     15 C15        -1.5140    2.1650   -0.3100 ca        1 H89     -0.238300
     16 C16        -2.8980    2.3810   -0.3230 ca        1 H89     -0.023600
     17 C18        -3.5000    3.6250   -0.9740 c         1 H89      0.911200
     18 O19        -4.7560    3.7330   -0.9780 o         1 H89     -0.813800
     19 O20        -2.6970    4.4660   -1.4630 o         1 H89     -0.813800
     20 C21         0.5080    0.8600    0.2920 cp        1 H89     -0.146500
     21 C22         1.3320    1.9830    0.4750 ca        1 H89     -0.077000
     22 C23         2.7150    1.8600    0.4490 ca        1 H89     -0.188000
     23 C24         3.2890    0.5930    0.2390 ca        1 H89      0.112100
     24 C25         2.4830   -0.5340    0.0580 ca        1 H89     -0.188000
     25 C26         1.0950   -0.3920    0.0870 ca        1 H89     -0.077000
     26 O27         4.6750    0.5810    0.2470 os        1 H89     -0.334900
     27 C28         6.7610   -0.5000   -0.0830 ca        1 H89     -0.084300
     28 C29         7.3790    0.5810    0.5510 ca        1 H89     -0.114500
     29 C30         8.7690    0.6960    0.5400 ca        1 H89     -0.134000
     30 C31         9.5470   -0.2670   -0.1010 ca        1 H89     -0.133000
     31 C32         8.9330   -1.3480   -0.7350 ca        1 H89     -0.134000
     32 C33         7.5450   -1.4640   -0.7300 ca        1 H89     -0.114500
     33 C34         5.2780   -0.6780   -0.0730 c3        1 H89      0.173700
     34 H1         -2.4220   -4.8000   -1.6460 h4        1 H89      0.013100
     35 H2         -2.0080   -3.2720    0.3240 ha        1 H89      0.154000
     36 H4         -6.2750   -2.4980    0.4210 ha        1 H89      0.154000
     37 H5         -6.5070   -4.0510   -1.5610 h4        1 H89      0.013100
     38 H7         -4.6900   -2.2300    2.5270 h1        1 H89      0.070700
     39 H7A        -2.8990   -2.0790    2.1720 h1        1 H89      0.070700
     40 H11        -5.8890    1.8690    0.1960 h4        1 H89      0.088800
     41 H15        -0.8700    2.9090   -0.8050 ha        1 H89      0.168000
     42 H22         0.8750    2.9730    0.6400 ha        1 H89      0.149000
     43 H23         3.3650    2.7340    0.5880 ha        1 H89      0.134000
     44 H25         2.9180   -1.5280   -0.1070 ha        1 H89      0.134000
     45 H26         0.4600   -1.2800   -0.0530 ha        1 H89      0.149000
     46 H29         6.7600    1.3430    1.0520 ha        1 H89      0.142000
     47 H30         9.2500    1.5510    1.0370 ha        1 H89      0.127500
     48 H31        10.6430   -0.1760   -0.1080 ha        1 H89      0.125000
     49 H32         9.5440   -2.1070   -1.2440 ha        1 H89      0.127500
     50 H33         7.0610   -2.3130   -1.2360 ha        1 H89      0.142000
     51 H34         4.9910   -1.4340    0.7090 h1        1 H89      0.048200
     52 H34A        4.9140   -1.0220   -1.0790 h1        1 H89      0.048200
@<TRIPOS>BOND
     1    1    2 ar  
     2    1    6 ar  
     3    1   34 1   
     4    2    3 ar  
     5    2   35 1   
     6    3    4 ar  
     7    3    7 1   
     8    4    5 ar  
     9    4   36 1   
    10    5    6 ar  
    11    5   37 1   
    12    7    8 1   
    13    7   38 1   
    14    7   39 1   
    15    8    9 1   
    16    8   12 1   
    17    9   10 ar  
    18    9   13 ar  
    19   10   11 1   
    20   10   16 ar  
    21   11   12 2   
    22   11   40 1   
    23   13   14 ar  
    24   14   15 ar  
    25   14   20 1   
    26   15   16 ar  
    27   15   41 1   
    28   16   17 1   
    29   17   18 1   
    30   17   19 1   
    31   20   21 ar  
    32   20   25 ar  
    33   21   22 ar  
    34   21   42 1   
    35   22   23 ar  
    36   22   43 1   
    37   23   24 ar  
    38   23   26 1   
    39   24   25 ar  
    40   24   44 1   
    41   25   45 1   
    42   26   33 1   
    43   27   28 ar  
    44   27   32 ar  
    45   27   33 1   
    46   28   29 ar  
    47   28   46 1   
    48   29   30 ar  
    49   29   47 1   
    50   30   31 ar  
    51   30   48 1   
    52   31   32 ar  
    53   31   49 1   
    54   32   50 1   
    55   33   51 1   
    56   33   52 1   
@<TRIPOS>SUBSTRUCTURE
     1 H89         1 TEMP              0 ****  ****    0 ROOT
