@<TRIPOS>MOLECULE
H89
   52    43     1     0     0
SMALL
bcc


@<TRIPOS>ATOM
      1 C1         -3.4420   -1.6220    7.5880 c1        1 H89     -0.084000
      2 C2         -3.0610   -1.5680    6.2840 c1        1 H89     -0.183000
      3 C3         -1.6970   -1.5570    5.9460 c1        1 H89     -0.024000
      4 C4         -0.7450   -1.5990    6.9310 c1        1 H89     -0.123750
      5 C5         -1.1200   -1.6540    8.2460 c1        1 H89     -0.123750
      6 N6         -2.4860   -1.6650    8.5830 n1        1 H89     -0.153000
      7 C7         -1.2820   -1.5240    4.5070 c3        1 H89      0.015000
      8 N8         -0.8280   -0.1900    4.1660 n3        1 H89     -0.153000
      9 C9         -0.4470    0.5840    3.0880 c1        1 H89     -0.004000
     10 C10        -0.0780    1.8130    3.5560 c1        1 H89     -0.136000
     11 C11        -0.2330    1.8100    4.9660 c1        1 H89     -0.071000
     12 N12        -0.6900    0.5880    5.3320 n2        1 H89     -0.103000
     13 N13        -0.3500    0.2970    1.7260 n1        1 H89     -0.166000
     14 C14         0.1110    1.2370    0.8610 c1        1 H89      0.007000
     15 C15         0.4920    2.5010    1.3350 c2        1 H89     -0.171000
     16 C16         0.3980    2.7850    2.6670 c1        1 H89     -0.005000
     17 C18         0.7460    4.1570    3.1410 c2        1 H89      0.360000
     18 O19         2.0350    4.4800    3.3810 o         1 H89     -0.547500
     19 O20        -0.1810    4.9760    3.4430 o         1 H89     -0.547500
     20 C21         0.2160    0.8330   -0.6100 c1        1 H89     -0.047000
     21 C22         1.2940    0.1310   -1.0460 c2        1 H89     -0.096000
     22 C23         1.3660   -0.2830   -2.3900 c1        1 H89     -0.152500
     23 C24         0.3370    0.0290   -3.2590 c1        1 H89      0.035000
     24 C25        -0.7440    0.7380   -2.8080 c1        1 H89     -0.143000
     25 C26        -0.8070    1.1420   -1.4830 c1        1 H89     -0.117000
     26 O27         0.3550   -0.4820   -4.6350 os        1 H89     -0.233000
     27 C28         1.3010   -0.5080   -6.7390 c1        1 H89     -0.047000
     28 C29         0.2480   -0.5410   -7.6300 c2        1 H89     -0.096000
     29 C30         0.3810   -1.2330   -8.8420 c1        1 H89     -0.152500
     30 C31         1.5770   -1.8880   -9.1460 c1        1 H89     -0.123750
     31 C32         2.6300   -1.8540   -8.2530 c1        1 H89     -0.123750
     32 C33         2.5000   -1.1670   -7.0480 c1        1 H89     -0.117000
     33 C34         1.1770    0.2180   -5.4830 c2        1 H89      0.017000
     34 H1         -4.3710   -1.6300    7.8140 ha        1 H89      0.147000
     35 H2         -3.7440   -1.5370    5.5710 ha        1 H89      0.139000
     36 H4          0.1950   -1.6490    6.6920 ha        1 H89      0.141750
     37 H5         -0.4000   -1.8260    8.9830 ha        1 H89      0.141750
     38 H7         -0.5370   -2.1800    4.3610 h1        1 H89      0.103000
     39 H7A        -2.0430   -1.7630    3.9420 h1        1 H89      0.103000
     40 H11        -0.1990    2.4130    5.7800 DU        1 H89      0.219000
     41 H15         0.8170    3.1910    0.7030 ha        1 H89      0.169000
     42 H22         2.0480   -0.0970   -0.3970 ha        1 H89      0.152000
     43 H23         2.0400   -0.8170   -2.6640 ha        1 H89      0.130000
     44 H25        -1.4890    0.9630   -3.4320 ha        1 H89      0.141000
     45 H26        -1.6420    1.6400   -1.1390 ha        1 H89      0.141500
     46 H29        -0.6220   -0.0630   -7.4090 ha        1 H89      0.152000
     47 H30        -0.3550   -1.2580   -9.4690 ha        1 H89      0.130000
     48 H31         1.7050   -2.3280  -10.0840 ha        1 H89      0.141750
     49 H32         3.5230   -2.3430   -8.4800 ha        1 H89      0.141750
     50 H33         3.2530   -1.1430   -6.4110 ha        1 H89      0.141500
     51 H34         0.7880    1.1260   -5.6550 h4        1 H89      0.086000
     52 H34A        2.0580    0.3140   -5.0770 h4        1 H89      0.086000
@<TRIPOS>BOND
     1    1    6 1   
     2    1   34 1   
     3    2    3 1   
     4    2   35 1   
     5    3    7 1   
     6    4    5 1   
     7    4   36 1   
     8    5   37 1   
     9    7    8 1   
    10    7   38 1   
    11    7   39 1   
    12    8    9 1   
    13    8   12 1   
    14    9   10 1   
    15   11   12 1   
    16   13   14 1   
    17   14   15 1   
    18   15   16 1   
    19   15   41 1   
    20   16   17 1   
    21   17   18 1   
    22   17   19 1   
    23   20   21 1   
    24   20   25 1   
    25   21   22 1   
    26   21   42 1   
    27   22   43 1   
    28   23   24 1   
    29   23   26 1   
    30   24   44 1   
    31   25   45 1   
    32   26   33 1   
    33   27   28 1   
    34   27   32 1   
    35   28   29 1   
    36   28   46 1   
    37   29   47 1   
    38   30   31 1   
    39   30   48 1   
    40   31   49 1   
    41   32   50 1   
    42   33   51 1   
    43   33   52 1   
@<TRIPOS>SUBSTRUCTURE
     1 H89         1 TEMP              0 ****  ****    0 ROOT
