@<TRIPOS>MOLECULE
H8H
   70    70     1     0     0
SMALL
bcc


@<TRIPOS>ATOM
      1 C1          4.0320   -7.4730    3.1530 c3        1 H8H     -0.119000
      2 N2          3.1110   -6.5600    2.6080 n3        1 H8H     -0.259000
      3 C3          1.9430   -7.0570    2.6320 c3        1 H8H     -0.089500
      4 C4          0.9220   -6.0750    2.1240 c3        1 H8H     -0.087500
      5 N5          1.5560   -4.9300    1.2650 n3        1 H8H     -0.263000
      6 C6          0.5390   -3.9670    0.9270 c3        1 H8H     -0.070000
      7 C7          1.0510   -3.0580   -0.1710 c3        1 H8H     -0.026000
      8 O8         -0.1070   -2.5440   -0.9710 os        1 H8H     -0.217000
      9 C9          0.0670   -1.2510   -1.4530 c2        1 H8H      0.142000
     10 C10        -0.8970   -0.4340   -0.9040 c1        1 H8H     -0.243000
     11 C11        -0.9430    0.9210   -1.2480 c1        1 H8H      0.156000
     12 O12        -2.0790    1.7970   -1.1780 os        1 H8H     -0.241000
     13 C13        -3.1550    1.1520   -0.3930 c3        1 H8H      0.039000
     14 C14        -3.2420    1.8130    0.9390 c3        1 H8H     -0.211500
     15 C15        -4.4490    1.3370    1.7500 c3        1 H8H     -0.022000
     16 O16        -5.6930    1.4290    0.9960 os        1 H8H     -0.267000
     17 C17        -5.6100    0.7720   -0.3440 c3        1 H8H     -0.022000
     18 C18        -4.4160    1.2440   -1.1480 c3        1 H8H     -0.211500
     19 C19         0.0020    1.4570   -2.1630 c1        1 H8H     -0.201000
     20 C20         0.0320    2.8090   -2.3890 c1        1 H8H      0.217000
     21 N21        -0.5870    3.9240   -1.6950 n3        1 H8H     -0.242000
     22 C22        -0.1460    5.2450   -1.9490 c2        1 H8H      0.080000
     23 C23         0.7140    5.8930   -1.0210 c2        1 H8H      0.033000
     24 O24         1.3440    5.4340    0.1840 os        1 H8H     -0.194000
     25 C25         2.0590    6.5260    0.7500 c3        1 H8H      0.097000
     26 O26         1.7810    7.6660   -0.0210 os        1 H8H     -0.215000
     27 C27         1.0020    7.2500   -1.1670 c2        1 H8H      0.026000
     28 C28         0.4500    7.9660   -2.2170 c2        1 H8H     -0.116000
     29 C29        -0.4050    7.3240   -3.1400 c1        1 H8H     -0.112000
     30 C30        -0.6960    5.9630   -2.9960 c1        1 H8H     -0.094000
     31 CL3        -1.7510    5.1720   -4.1330 cl        1 H8H     -0.010000
     32 N32         1.0160    3.3530   -3.1600 n1        1 H8H     -0.253000
     33 C33         1.9750    2.5560   -3.7090 c1        1 H8H      0.025000
     34 N34         1.9520    1.2010   -3.4870 n1        1 H8H     -0.210000
     35 C35         0.9600    0.6520   -2.7090 c1        1 H8H      0.099000
     36 C36         1.0090   -0.7190   -2.3630 c2        1 H8H     -0.234000
     37 C37         2.4670   -4.3470    2.4240 c3        1 H8H     -0.087500
     38 C38         3.4620   -5.3320    2.9210 c3        1 H8H     -0.089500
     39 H11         4.6590   -6.9980    3.7200 h1        1 H8H      0.071000
     40 H12         4.5140   -7.9130    2.4370 h1        1 H8H      0.071000
     41 H13A        3.5480   -8.1530    3.6920 h1        1 H8H      0.071000
     42 H31         1.9250   -7.8430    2.0850 h1        1 H8H      0.089250
     43 H32         1.7140   -7.3090    3.5740 h1        1 H8H      0.089250
     44 H41         0.4510   -5.6720    2.8990 h1        1 H8H      0.089250
     45 H42         0.2510   -6.5730    1.5570 h1        1 H8H      0.089250
     46 H61         0.3130   -3.4200    1.7380 h1        1 H8H      0.086500
     47 H62        -0.2640   -4.4360    0.6150 h1        1 H8H      0.086500
     48 H71         1.5500   -2.2830    0.2380 h1        1 H8H      0.093000
     49 H72         1.6660   -3.5720   -0.7690 h1        1 H8H      0.093000
     50 H10        -1.4920   -0.7800   -0.2150 ha        1 H8H      0.158000
     51 H13        -2.9250    0.1830   -0.2610 h1        1 H8H      0.093000
     52 H141       -2.4350    1.6260    1.4360 hc        1 H8H      0.108250
     53 H142       -3.3190    2.8280    0.7990 hc        1 H8H      0.108250
     54 H151       -4.3000    0.3710    2.0250 h1        1 H8H      0.091750
     55 H152       -4.5250    1.8850    2.5540 h1        1 H8H      0.091750
     56 H171       -6.4630    0.9840   -0.8690 h1        1 H8H      0.091750
     57 H172       -5.5480   -0.1590   -0.2250 h1        1 H8H      0.091750
     58 H181       -4.3410    0.6920   -1.9600 hc        1 H8H      0.108250
     59 H182       -4.5660    2.2150   -1.4200 hc        1 H8H      0.108250
     60 HN21       -1.3420    3.7730   -1.1250 hn        1 H8H      0.262000
     61 H251        3.0270    6.3360    0.7100 h2        1 H8H      0.114500
     62 H252        1.7440    6.6740    1.6790 h2        1 H8H      0.114500
     63 H28         0.6470    8.8970   -2.3180 ha        1 H8H      0.162000
     64 H29        -0.8020    7.8420   -3.8980 ha        1 H8H      0.154000
     65 H33         2.6910    2.9580   -4.2700 ha        1 H8H      0.188000
     66 H36         1.6480   -1.2480   -2.7100 ha        1 H8H      0.164000
     67 H371        2.9360   -3.5710    2.0930 h1        1 H8H      0.089250
     68 H372        1.8590   -4.0570    3.2140 h1        1 H8H      0.089250
     69 H381        3.5370   -5.2530    3.9270 h1        1 H8H      0.089250
     70 H382        4.3690   -5.1300    2.5020 h1        1 H8H      0.089250
@<TRIPOS>BOND
     1    1    2 1   
     2    1   39 1   
     3    1   40 1   
     4    1   41 1   
     5    2    3 1   
     6    2   38 1   
     7    3    4 1   
     8    3   42 1   
     9    3   43 1   
    10    4    5 1   
    11    4   44 1   
    12    4   45 1   
    13    5    6 1   
    14    5   37 1   
    15    6    7 1   
    16    6   46 1   
    17    6   47 1   
    18    7    8 1   
    19    7   48 1   
    20    7   49 1   
    21    8    9 1   
    22    9   10 1   
    23    9   36 1   
    24   10   50 1   
    25   11   12 1   
    26   11   19 1   
    27   12   13 1   
    28   13   14 1   
    29   13   18 1   
    30   13   51 1   
    31   14   15 1   
    32   14   52 1   
    33   14   53 1   
    34   15   16 1   
    35   15   54 1   
    36   15   55 1   
    37   16   17 1   
    38   17   18 1   
    39   17   56 1   
    40   17   57 1   
    41   18   58 1   
    42   18   59 1   
    43   19   35 1   
    44   20   21 1   
    45   20   32 1   
    46   21   22 1   
    47   21   60 1   
    48   22   23 1   
    49   22   30 1   
    50   23   24 1   
    51   23   27 1   
    52   24   25 1   
    53   25   26 1   
    54   25   61 1   
    55   25   62 1   
    56   26   27 1   
    57   27   28 1   
    58   28   29 1   
    59   28   63 1   
    60   29   64 1   
    61   30   31 1   
    62   33   34 1   
    63   33   65 1   
    64   35   36 1   
    65   36   66 1   
    66   37   38 1   
    67   37   67 1   
    68   37   68 1   
    69   38   69 1   
    70   38   70 1   
@<TRIPOS>SUBSTRUCTURE
     1 H8H         1 TEMP              0 ****  ****    0 ROOT
