@<TRIPOS>MOLECULE
H8H
   71    76     1     0     0
SMALL
bcc


@<TRIPOS>ATOM
      1 C1         -0.3830    0.0120    0.5040 c3        1 H8H      0.156100
      2 N2          1.0620    0.0130    0.5120 n3        1 H8H     -0.732600
      3 C3          1.6160    0.5230    1.7570 c3        1 H8H      0.169300
      4 C4          3.1570    0.5190    1.7710 c3        1 H8H      0.170800
      5 N5          3.7360    1.1640    0.6010 n3        1 H8H     -0.741600
      6 C6          5.1880    1.1370    0.6060 c3        1 H8H      0.170800
      7 C7          5.8080    2.3850   -0.0390 c3        1 H8H      0.121400
      8 O8          5.7880    3.3960    0.9890 os        1 H8H     -0.299900
      9 C9          6.1730    4.6520    0.6230 ca        1 H8H      0.226100
     10 C10         6.0240    5.6200    1.6590 ca        1 H8H     -0.209000
     11 C11         6.3860    6.9290    1.4290 ca        1 H8H      0.180100
     12 O12         6.2970    7.9200    2.3840 os        1 H8H     -0.407900
     13 C13         5.7330    7.5940    3.6760 c3        1 H8H      0.152100
     14 C14         6.1840    8.7320    4.5890 c3        1 H8H     -0.132900
     15 C15         5.4740    8.6220    5.9300 c3        1 H8H      0.125400
     16 O16         4.0620    8.6020    5.7720 os        1 H8H     -0.397600
     17 C17         3.6130    7.5050    4.9850 c3        1 H8H      0.125400
     18 C18         4.2140    7.5380    3.5890 c3        1 H8H     -0.132900
     19 C19         6.9010    7.3470    0.1590 ca        1 H8H     -0.317600
     20 C20         7.2990    8.6790   -0.2270 ca        1 H8H      0.567200
     21 N21         7.1630    9.7770    0.7730 n4        1 H8H     -0.606100
     22 C22         7.4780   11.1150    0.3000 ca        1 H8H     -0.025400
     23 C23         8.7410   11.6610    0.4860 ca        1 H8H      0.101100
     24 O24         9.8340   11.0990    1.1150 os        1 H8H     -0.341900
     25 C25        10.9090   12.0830    1.0430 c3        1 H8H      0.329200
     26 O26        10.3770   13.2480    0.3670 os        1 H8H     -0.303900
     27 C27         9.0610   12.9690    0.0340 ca        1 H8H      0.082100
     28 C28         8.1420   13.7600   -0.6230 ca        1 H8H     -0.057000
     29 C29         6.8600   13.2090   -0.8180 ca        1 H8H     -0.097000
     30 C30         6.5260   11.9300   -0.3800 ca        1 H8H      0.031400
     31 CL3         4.9640   11.3320   -0.6430 cl        1 H8H     -0.038400
     32 N32         7.7840    8.9910   -1.4280 nb        1 H8H     -0.681000
     33 C33         7.8900    7.9430   -2.3290 ca        1 H8H      0.670900
     34 N34         7.5560    6.6770   -2.1210 nb        1 H8H     -0.642000
     35 C35         7.0520    6.3470   -0.8730 ca        1 H8H      0.493600
     36 C36         6.6810    5.0020   -0.6180 ca        1 H8H     -0.297300
     37 C37         3.1690    0.6690   -0.6460 c3        1 H8H      0.170800
     38 C38         1.6290    0.6770   -0.6520 c3        1 H8H      0.169300
     39 H11        -0.7380   -0.4740   -0.4430 h1        1 H8H      0.036367
     40 H12        -0.8300    1.0420    0.5680 h1        1 H8H      0.036367
     41 H13A       -0.7480   -0.5900    1.3770 h1        1 H8H      0.036367
     42 H31         1.2650   -0.1470    2.5910 h1        1 H8H      0.039700
     43 H32         1.2550    1.5700    1.9780 h1        1 H8H      0.039700
     44 H41         3.4920    1.0900    2.6810 h1        1 H8H      0.038450
     45 H42         3.5140   -0.5470    1.8760 h1        1 H8H      0.038450
     46 H61         5.5610    1.0790    1.6690 h1        1 H8H      0.058200
     47 H62         5.6020    0.2480    0.0450 h1        1 H8H      0.058200
     48 H71         5.2310    2.7420   -0.9310 h1        1 H8H      0.058200
     49 H72         6.8750    2.1830   -0.3170 h1        1 H8H      0.058200
     50 H10         5.6110    5.2750    2.6190 ha        1 H8H      0.180000
     51 H13         6.1620    6.6200    4.0370 h1        1 H8H      0.073700
     52 H141        5.9350    9.7140    4.1110 hc        1 H8H      0.063200
     53 H142        7.2920    8.6860    4.7420 hc        1 H8H      0.063200
     54 H151        5.6670    9.5320    6.5590 h1        1 H8H      0.066700
     55 H152        5.8110    7.7010    6.4770 h1        1 H8H      0.066700
     56 H171        2.4980    7.6370    4.9440 h1        1 H8H      0.066700
     57 H172        3.8650    6.5400    5.4990 h1        1 H8H      0.066700
     58 H181        3.8870    6.6330    3.0170 hc        1 H8H      0.063200
     59 H182        3.8430    8.4440    3.0420 hc        1 H8H      0.063200
     60 HN21        7.7880    9.5400    1.5630 hn        1 H8H      0.484300
     61 H251       11.1910   12.3680    2.0860 h2        1 H8H      0.101700
     62 H252       11.7360   11.6530    0.4250 h2        1 H8H      0.101700
     63 H28         8.3900   14.7710   -0.9810 ha        1 H8H      0.192000
     64 H29         6.1000   13.8180   -1.3400 ha        1 H8H      0.185000
     65 H33         8.2990    8.2250   -3.3260 h5        1 H8H      0.090100
     66 H36         6.8060    4.2550   -1.4190 ha        1 H8H      0.183000
     67 H371        3.5240   -0.3790   -0.8770 h1        1 H8H      0.038450
     68 H372        3.5210    1.3430   -1.4770 h1        1 H8H      0.038450
     69 H381        1.2720    1.7450   -0.7410 h1        1 H8H      0.039700
     70 H382        1.2860    0.1200   -1.5680 h1        1 H8H      0.039700
     71 H212        6.1860    9.7520    1.1170 hn        1 H8H      0.484300
@<TRIPOS>BOND
     1    1    2 1   
     2    1   39 1   
     3    1   40 1   
     4    1   41 1   
     5    2    3 1   
     6    2   38 1   
     7    3    4 1   
     8    3   42 1   
     9    3   43 1   
    10    4    5 1   
    11    4   44 1   
    12    4   45 1   
    13    5    6 1   
    14    5   37 1   
    15    6    7 1   
    16    6   46 1   
    17    6   47 1   
    18    7    8 1   
    19    7   48 1   
    20    7   49 1   
    21    8    9 1   
    22    9   10 ar  
    23    9   36 ar  
    24   10   11 ar  
    25   10   50 1   
    26   11   12 1   
    27   11   19 ar  
    28   12   13 1   
    29   13   14 1   
    30   13   18 1   
    31   13   51 1   
    32   14   15 1   
    33   14   52 1   
    34   14   53 1   
    35   15   16 1   
    36   15   54 1   
    37   15   55 1   
    38   16   17 1   
    39   17   18 1   
    40   17   56 1   
    41   17   57 1   
    42   18   58 1   
    43   18   59 1   
    44   19   20 ar  
    45   19   35 ar  
    46   20   21 1   
    47   20   32 ar  
    48   21   22 1   
    49   21   60 1   
    50   21   71 1   
    51   22   23 ar  
    52   22   30 ar  
    53   23   24 1   
    54   23   27 ar  
    55   24   25 1   
    56   25   26 1   
    57   25   61 1   
    58   25   62 1   
    59   26   27 1   
    60   27   28 ar  
    61   28   29 ar  
    62   28   63 1   
    63   29   30 ar  
    64   29   64 1   
    65   30   31 1   
    66   32   33 ar  
    67   33   34 ar  
    68   33   65 1   
    69   34   35 ar  
    70   35   36 ar  
    71   36   66 1   
    72   37   38 1   
    73   37   67 1   
    74   37   68 1   
    75   38   69 1   
    76   38   70 1   
@<TRIPOS>SUBSTRUCTURE
     1 H8H         1 TEMP              0 ****  ****    0 ROOT
