@<TRIPOS>MOLECULE
H8H
   70    75     1     0     0
SMALL
bcc


@<TRIPOS>ATOM
      1 C1         -0.2130   -0.5550   -0.2680 c3        1 H8H      0.157100
      2 N2          1.1920   -0.4170    0.0420 n3        1 H8H     -0.732600
      3 C3          1.4170    0.2000    1.3410 c3        1 H8H      0.167800
      4 C4          2.9110    0.3750    1.6750 c3        1 H8H      0.172800
      5 N5          3.6520    1.0380    0.6120 n3        1 H8H     -0.735600
      6 C6          5.0620    1.1980    0.9240 c3        1 H8H      0.171800
      7 C7          5.6840    2.4490    0.2860 c3        1 H8H      0.125400
      8 O8          5.4280    3.5190    1.2070 os        1 H8H     -0.320900
      9 C9          5.8300    4.7710    0.8020 ca        1 H8H      0.185100
     10 C10         5.4350    5.8140    1.6790 ca        1 H8H     -0.227000
     11 C11         5.8040    7.1160    1.3990 ca        1 H8H      0.188100
     12 O12         5.3160    8.1450    2.1850 os        1 H8H     -0.358900
     13 C13         5.4060    7.9500    3.6120 c3        1 H8H      0.147100
     14 C14         6.0770    9.2000    4.1760 c3        1 H8H     -0.132400
     15 C15         6.0000    9.1880    5.6920 c3        1 H8H      0.127900
     16 O16         4.6620    9.0590    6.1580 os        1 H8H     -0.411600
     17 C17         4.0210    7.8800    5.6840 c3        1 H8H      0.127900
     18 C18         3.9920    7.8150    4.1670 c3        1 H8H     -0.132400
     19 C19         6.5930    7.4490    0.2580 ca        1 H8H     -0.329600
     20 C20         7.0990    8.7750   -0.1020 ca        1 H8H      0.735200
     21 N21         6.9630    9.8440    0.7850 nh        1 H8H     -0.722300
     22 C22         7.4140   11.1380    0.4720 ca        1 H8H      0.159600
     23 C23         8.7590   11.4350    0.2540 ca        1 H8H      0.078100
     24 O24         9.8470   10.5710    0.2630 os        1 H8H     -0.310900
     25 C25        11.0120   11.3620   -0.0680 c3        1 H8H      0.319200
     26 O26        10.5850   12.7370   -0.2100 os        1 H8H     -0.332900
     27 C27         9.2080   12.7530   -0.0210 ca        1 H8H      0.070100
     28 C28         8.3530   13.8330   -0.0650 ca        1 H8H     -0.116000
     29 C29         6.9950   13.5590    0.1730 ca        1 H8H     -0.113000
     30 C30         6.5380   12.2680    0.4250 ca        1 H8H     -0.016600
     31 CL3         4.8730   12.0340    0.6930 cl        1 H8H     -0.084400
     32 N32         7.7650    8.9760   -1.2680 nb        1 H8H     -0.777000
     33 C33         7.9910    7.8750   -2.0480 ca        1 H8H      0.685900
     34 N34         7.6430    6.6110   -1.8090 nb        1 H8H     -0.736000
     35 C35         6.9370    6.3810   -0.6410 ca        1 H8H      0.490600
     36 C36         6.5550    5.0400   -0.3420 ca        1 H8H     -0.298300
     37 C37         3.4270    0.4230   -0.6880 c3        1 H8H      0.172800
     38 C38         1.9320    0.2520   -1.0180 c3        1 H8H      0.167800
     39 H11        -0.3150   -1.1110   -1.2360 h1        1 H8H      0.032367
     40 H12        -0.7490    0.4290   -0.3630 h1        1 H8H      0.032367
     41 H13A       -0.7040   -1.1510    0.5450 h1        1 H8H      0.032367
     42 H31         0.9100    1.2060    1.4180 h1        1 H8H      0.038200
     43 H32         0.9680   -0.4740    2.1230 h1        1 H8H      0.038200
     44 H41         2.9820    1.0170    2.5970 h1        1 H8H      0.036700
     45 H42         3.3480   -0.6370    1.9190 h1        1 H8H      0.036700
     46 H61         5.6730    0.3130    0.5780 h1        1 H8H      0.049200
     47 H62         5.1850    1.2870    2.0410 h1        1 H8H      0.049200
     48 H71         5.2410    2.6940   -0.7130 h1        1 H8H      0.050200
     49 H72         6.7930    2.3100    0.1910 h1        1 H8H      0.050200
     50 H10         4.8240    5.5660    2.5590 ha        1 H8H      0.159000
     51 H13         6.0160    7.0380    3.8530 h1        1 H8H      0.063700
     52 H141        5.5550   10.1080    3.7750 hc        1 H8H      0.067200
     53 H142        7.1460    9.2420    3.8470 hc        1 H8H      0.067200
     54 H151        6.3420   10.1690    6.1180 h1        1 H8H      0.051700
     55 H152        6.6250    8.3540    6.1100 h1        1 H8H      0.051700
     56 H171        2.9820    7.9500    6.1020 h1        1 H8H      0.051700
     57 H172        4.5400    6.9770    6.1050 h1        1 H8H      0.051700
     58 H181        3.5390    6.8460    3.8380 hc        1 H8H      0.067200
     59 H182        3.3590    8.6460    3.7600 hc        1 H8H      0.067200
     60 HN21        6.1910    9.8050    1.4230 hn        1 H8H      0.467800
     61 H251       11.4210   11.0110   -1.0470 h2        1 H8H      0.074700
     62 H252       11.7350   11.3000    0.7830 h2        1 H8H      0.074700
     63 H28         8.7050   14.8500   -0.2740 ha        1 H8H      0.162000
     64 H29         6.2770   14.3940    0.1490 ha        1 H8H      0.155000
     65 H33         8.5380    8.0780   -2.9930 h5        1 H8H      0.051100
     66 H36         6.8500    4.2420   -1.0390 ha        1 H8H      0.160000
     67 H371        3.8780    1.0940   -1.4710 h1        1 H8H      0.036700
     68 H372        3.9310   -0.5860   -0.7640 h1        1 H8H      0.036700
     69 H381        1.8560   -0.3840   -1.9440 h1        1 H8H      0.038200
     70 H382        1.4960    1.2660   -1.2570 h1        1 H8H      0.038200
@<TRIPOS>BOND
     1    1    2 1   
     2    1   39 1   
     3    1   40 1   
     4    1   41 1   
     5    2    3 1   
     6    2   38 1   
     7    3    4 1   
     8    3   42 1   
     9    3   43 1   
    10    4    5 1   
    11    4   44 1   
    12    4   45 1   
    13    5    6 1   
    14    5   37 1   
    15    6    7 1   
    16    6   46 1   
    17    6   47 1   
    18    7    8 1   
    19    7   48 1   
    20    7   49 1   
    21    8    9 1   
    22    9   10 ar  
    23    9   36 ar  
    24   10   11 ar  
    25   10   50 1   
    26   11   12 1   
    27   11   19 ar  
    28   12   13 1   
    29   13   14 1   
    30   13   18 1   
    31   13   51 1   
    32   14   15 1   
    33   14   52 1   
    34   14   53 1   
    35   15   16 1   
    36   15   54 1   
    37   15   55 1   
    38   16   17 1   
    39   17   18 1   
    40   17   56 1   
    41   17   57 1   
    42   18   58 1   
    43   18   59 1   
    44   19   20 ar  
    45   19   35 ar  
    46   20   21 1   
    47   20   32 ar  
    48   21   22 1   
    49   21   60 1   
    50   22   23 ar  
    51   22   30 ar  
    52   23   24 1   
    53   23   27 ar  
    54   24   25 1   
    55   25   26 1   
    56   25   61 1   
    57   25   62 1   
    58   26   27 1   
    59   27   28 ar  
    60   28   29 ar  
    61   28   63 1   
    62   29   30 ar  
    63   29   64 1   
    64   30   31 1   
    65   32   33 ar  
    66   33   34 ar  
    67   33   65 1   
    68   34   35 ar  
    69   35   36 ar  
    70   36   66 1   
    71   37   38 1   
    72   37   67 1   
    73   37   68 1   
    74   38   69 1   
    75   38   70 1   
@<TRIPOS>SUBSTRUCTURE
     1 H8H         1 TEMP              0 ****  ****    0 ROOT
