@<TRIPOS>MOLECULE
H8H
   70    75     1     0     0
SMALL
bcc


@<TRIPOS>ATOM
      1 C1          0.1330    1.2130   -0.1370 c3        1 H8H      0.157100
      2 N2          1.4980    0.7540   -0.2450 n3        1 H8H     -0.732600
      3 C3          2.2950    1.0960    0.9250 c3        1 H8H      0.167800
      4 C4          3.7470    0.5920    0.8280 c3        1 H8H      0.172800
      5 N5          3.8330   -0.8230    0.4990 n3        1 H8H     -0.735600
      6 C6          5.2040   -1.2980    0.4060 c3        1 H8H      0.171800
      7 C7          5.8200   -1.6360    1.7720 c3        1 H8H      0.125400
      8 O8          5.4430   -2.9940    2.0400 os        1 H8H     -0.320900
      9 C9          5.8210   -3.4930    3.2650 ca        1 H8H      0.185100
     10 C10         5.3110   -4.7880    3.5400 ca        1 H8H     -0.227000
     11 C11         5.6450   -5.4120    4.7280 ca        1 H8H      0.188100
     12 O12         5.0500   -6.6200    5.0500 os        1 H8H     -0.358900
     13 C13         5.0340   -7.6180    4.0080 c3        1 H8H      0.147100
     14 C14         5.6030   -8.8930    4.6240 c3        1 H8H     -0.132400
     15 C15         5.4050  -10.0590    3.6710 c3        1 H8H      0.127900
     16 O16         4.0410  -10.2210    3.3010 os        1 H8H     -0.411600
     17 C17         3.4920   -9.0620    2.6840 c3        1 H8H      0.127900
     18 C18         3.5870   -7.8390    3.5790 c3        1 H8H     -0.132400
     19 C19         6.5080   -4.8030    5.6860 ca        1 H8H     -0.329600
     20 C20         6.9820   -5.3930    6.9400 ca        1 H8H      0.735200
     21 N21         6.7270   -6.7350    7.2260 nu        1 H8H     -0.722300
     22 C22         7.1440   -7.3360    8.4270 ca        1 H8H      0.159600
     23 C23         8.4870   -7.4720    8.7750 ca        1 H8H      0.078100
     24 O24         9.6090   -7.0420    8.0770 os        1 H8H     -0.310900
     25 C25        10.7600   -7.3810    8.8840 c3        1 H8H      0.319200
     26 O26        10.2840   -8.0860   10.0550 os        1 H8H     -0.332900
     27 C27         8.8970   -8.1170    9.9700 ca        1 H8H      0.070100
     28 C28         8.0000   -8.6770   10.8550 ca        1 H8H     -0.116000
     29 C29         6.6420   -8.5680   10.5140 ca        1 H8H     -0.113000
     30 C30         6.2250   -7.9210    9.3530 ca        1 H8H     -0.016600
     31 Cl3         4.5560   -7.8330    9.0290 cl        1 H8H     -0.084400
     32 N32         7.7290   -4.6710    7.8130 nb        1 H8H     -0.777000
     33 C33         8.0660   -3.4000    7.4330 ca        1 H8H      0.685900
     34 N34         7.7560   -2.7690    6.3010 nb        1 H8H     -0.736000
     35 C35         6.9690   -3.4710    5.4050 ca        1 H8H      0.490600
     36 C36         6.6230   -2.8360    4.1760 ca        1 H8H     -0.298300
     37 C37         3.0360   -1.1710   -0.6670 c3        1 H8H      0.172800
     38 C38         1.5850   -0.6620   -0.5720 c3        1 H8H      0.167800
     39 H11         0.1370    2.3220    0.0300 h1        1 H8H      0.032367
     40 H12        -0.4370    0.7280    0.7030 h1        1 H8H      0.032367
     41 H13A       -0.3990    0.9950   -1.1000 h1        1 H8H      0.032367
     42 H31         2.3250    2.2190    1.0030 h1        1 H8H      0.038200
     43 H32         1.8350    0.6950    1.8750 h1        1 H8H      0.038200
     44 H41         4.3000    1.2290    0.0760 h1        1 H8H      0.036700
     45 H42         4.2320    0.7440    1.8320 h1        1 H8H      0.036700
     46 H61         5.8810   -0.5370   -0.0820 h1        1 H8H      0.049200
     47 H62         5.2290   -2.2350   -0.2210 h1        1 H8H      0.049200
     48 H71         5.4500   -0.9690    2.5930 h1        1 H8H      0.050200
     49 H72         6.9380   -1.5770    1.7040 h1        1 H8H      0.050200
     50 H10         4.6420   -5.2630    2.8090 ha        1 H8H      0.159000
     51 H13         5.6610   -7.2930    3.1340 h1        1 H8H      0.063700
     52 H141        5.0760   -9.0990    5.5920 hc        1 H8H      0.067200
     53 H142        6.6910   -8.7590    4.8440 hc        1 H8H      0.067200
     54 H151        5.6690  -11.0310    4.1670 h1        1 H8H      0.051700
     55 H152        6.0310   -9.9220    2.7480 h1        1 H8H      0.051700
     56 H171        2.4210   -9.3380    2.4950 h1        1 H8H      0.051700
     57 H172        4.0140   -8.8760    1.7080 h1        1 H8H      0.051700
     58 H181        3.2050   -6.9400    3.0330 hc        1 H8H      0.067200
     59 H182        2.9540   -7.9820    4.4920 hc        1 H8H      0.067200
     60 HN21        5.9090   -7.1370    6.8100 hn        1 H8H      0.467800
     61 H251       11.2610   -6.4380    9.2130 h2        1 H8H      0.074700
     62 H252       11.4140   -8.0700    8.2950 h2        1 H8H      0.074700
     63 H28         8.3220   -9.1780   11.7770 ha        1 H8H      0.162000
     64 H29         5.8910   -9.0030   11.1930 ha        1 H8H      0.155000
     65 H33         8.6790   -2.8410    8.1720 h5        1 H8H      0.051100
     66 H36         7.0090   -1.8240    3.9820 ha        1 H8H      0.160000
     67 H371        3.0000   -2.2940   -0.7380 h1        1 H8H      0.036700
     68 H372        3.4950   -0.7750   -1.6190 h1        1 H8H      0.036700
     69 H381        1.0280   -1.2980    0.1780 h1        1 H8H      0.038200
     70 H382        1.1020   -0.8130   -1.5780 h1        1 H8H      0.038200
@<TRIPOS>BOND
     1    1    2 1   
     2    1   39 1   
     3    1   40 1   
     4    1   41 1   
     5    2    3 1   
     6    2   38 1   
     7    3    4 1   
     8    3   42 1   
     9    3   43 1   
    10    4    5 1   
    11    4   44 1   
    12    4   45 1   
    13    5    6 1   
    14    5   37 1   
    15    6    7 1   
    16    6   46 1   
    17    6   47 1   
    18    7    8 1   
    19    7   48 1   
    20    7   49 1   
    21    8    9 1   
    22    9   10 ar  
    23    9   36 ar  
    24   10   11 ar  
    25   10   50 1   
    26   11   12 1   
    27   11   19 ar  
    28   12   13 1   
    29   13   14 1   
    30   13   18 1   
    31   13   51 1   
    32   14   15 1   
    33   14   52 1   
    34   14   53 1   
    35   15   16 1   
    36   15   54 1   
    37   15   55 1   
    38   16   17 1   
    39   17   18 1   
    40   17   56 1   
    41   17   57 1   
    42   18   58 1   
    43   18   59 1   
    44   19   20 ar  
    45   19   35 ar  
    46   20   21 1   
    47   20   32 ar  
    48   21   22 1   
    49   21   60 1   
    50   22   23 ar  
    51   22   30 ar  
    52   23   24 1   
    53   23   27 ar  
    54   24   25 1   
    55   25   26 1   
    56   25   61 1   
    57   25   62 1   
    58   26   27 1   
    59   27   28 ar  
    60   28   29 ar  
    61   28   63 1   
    62   29   30 ar  
    63   29   64 1   
    64   30   31 1   
    65   32   33 ar  
    66   33   34 ar  
    67   33   65 1   
    68   34   35 ar  
    69   35   36 ar  
    70   36   66 1   
    71   37   38 1   
    72   37   67 1   
    73   37   68 1   
    74   38   69 1   
    75   38   70 1   
@<TRIPOS>SUBSTRUCTURE
     1 H8H         1 TEMP              0 ****  ****    0 ROOT
