@<TRIPOS>MOLECULE
H8H
   70    75     1     0     0
SMALL
bcc


@<TRIPOS>ATOM
      1 C1         -9.5410   -0.4580   -2.6540 c3        1 H8H      0.157100
      2 N2         -8.7990   -0.8480   -1.4760 n3        1 H8H     -0.732600
      3 C3         -8.2290    0.2940   -0.7750 c3        1 H8H      0.167800
      4 C4         -7.4150   -0.1080    0.4700 c3        1 H8H      0.172800
      5 N5         -6.4230   -1.1350    0.1870 n3        1 H8H     -0.735600
      6 C6         -5.6600   -1.5180    1.3620 c3        1 H8H      0.171800
      7 C7         -4.2250   -1.9570    1.0340 c3        1 H8H      0.125400
      8 O8         -3.4480   -0.7510    1.0110 os        1 H8H     -0.320900
      9 C9         -2.1270   -0.8920    0.6520 ca        1 H8H      0.185100
     10 C10        -1.4350    0.3380    0.5110 ca        1 H8H     -0.227000
     11 C11        -0.0930    0.3300    0.1830 ca        1 H8H      0.188100
     12 O12         0.5510    1.5280   -0.0760 os        1 H8H     -0.358900
     13 C13         0.3290    2.5860    0.8790 c3        1 H8H      0.147100
     14 C14         1.7090    3.1010    1.2800 c3        1 H8H     -0.132400
     15 C15         1.5680    4.3710    2.1010 c3        1 H8H      0.127900
     16 O16         0.8160    5.3670    1.4180 os        1 H8H     -0.411600
     17 C17        -0.4920    4.9330    1.0670 c3        1 H8H      0.127900
     18 C18        -0.4670    3.6910    0.1930 c3        1 H8H     -0.132400
     19 C19         0.6330   -0.8840   -0.0010 ca        1 H8H     -0.329600
     20 C20         2.0650   -1.0170   -0.2820 ca        1 H8H      0.735200
     21 N21         2.8970    0.1020   -0.2350 nh        1 H8H     -0.722300
     22 C22         4.2720    0.0250   -0.5190 ca        1 H8H      0.159600
     23 C23         5.1600   -0.7220    0.2540 ca        1 H8H      0.078100
     24 O24         4.8870   -1.5160    1.3610 os        1 H8H     -0.310900
     25 C25         6.1390   -2.1130    1.7680 c3        1 H8H      0.319200
     26 O26         7.1760   -1.5950    0.9010 os        1 H8H     -0.332900
     27 C27         6.5520   -0.7600   -0.0180 ca        1 H8H      0.070100
     28 C28         7.1260   -0.0420   -1.0460 ca        1 H8H     -0.116000
     29 C29         6.2510    0.7340   -1.8250 ca        1 H8H     -0.113000
     30 C30         4.8800    0.7650   -1.5810 ca        1 H8H     -0.016600
     31 CL3         3.8990    1.7290   -2.5840 cl        1 H8H     -0.084400
     32 N32         2.6190   -2.2310   -0.5270 nb        1 H8H     -0.777000
     33 C33         1.7910   -3.3180   -0.4340 ca        1 H8H      0.685900
     34 N34         0.4950   -3.3420   -0.1270 nb        1 H8H     -0.736000
     35 C35        -0.1030   -2.1150    0.0990 ca        1 H8H      0.490600
     36 C36        -1.4880   -2.0970    0.4420 ca        1 H8H     -0.298300
     37 C37        -6.9900   -2.2760   -0.5150 c3        1 H8H      0.172800
     38 C38        -7.8010   -1.8700   -1.7610 c3        1 H8H      0.167800
     39 H11        -8.9040    0.0280   -3.4440 h1        1 H8H      0.032367
     40 H12       -10.0210   -1.3710   -3.0950 h1        1 H8H      0.032367
     41 H13A      -10.3440    0.2630   -2.3510 h1        1 H8H      0.032367
     42 H31        -7.5710    0.9130   -1.4520 h1        1 H8H      0.038200
     43 H32        -9.0810    0.9450   -0.4320 h1        1 H8H      0.038200
     44 H41        -6.8710    0.8080    0.8320 h1        1 H8H      0.036700
     45 H42        -8.1320   -0.4330    1.2800 h1        1 H8H      0.036700
     46 H61        -5.5950   -0.6380    2.0650 h1        1 H8H      0.049200
     47 H62        -6.1460   -2.3720    1.9210 h1        1 H8H      0.049200
     48 H71        -3.8390   -2.6210    1.8520 h1        1 H8H      0.050200
     49 H72        -4.1450   -2.4800    0.0470 h1        1 H8H      0.050200
     50 H10        -1.9880    1.2780    0.6470 ha        1 H8H      0.159000
     51 H13        -0.2210    2.2020    1.7800 h1        1 H8H      0.063700
     52 H141        2.2510    2.3210    1.8710 hc        1 H8H      0.067200
     53 H142        2.3050    3.3100    0.3540 hc        1 H8H      0.067200
     54 H151        1.0830    4.1470    3.0890 h1        1 H8H      0.051700
     55 H152        2.5680    4.8520    2.2690 h1        1 H8H      0.051700
     56 H171       -1.0860    4.7430    2.0010 h1        1 H8H      0.051700
     57 H172       -0.9280    5.8050    0.5110 h1        1 H8H      0.051700
     58 H181        0.0100    3.9260   -0.7930 hc        1 H8H      0.067200
     59 H182       -1.5140    3.3470   -0.0050 hc        1 H8H      0.067200
     60 HN21        2.4720    0.9890   -0.4270 hn        1 H8H      0.467800
     61 H251        6.0750   -3.2200    1.6260 h2        1 H8H      0.074700
     62 H252        6.3590   -1.7940    2.8160 h2        1 H8H      0.074700
     63 H28         8.2030   -0.0720   -1.2500 ha        1 H8H      0.162000
     64 H29         6.6680    1.3250   -2.6560 ha        1 H8H      0.155000
     65 H33         2.2800   -4.2940   -0.6410 h5        1 H8H      0.051100
     66 H36        -2.0190   -3.0570    0.5300 ha        1 H8H      0.160000
     67 H371       -6.1400   -2.9290   -0.8570 h1        1 H8H      0.036700
     68 H372       -7.6520   -2.8940    0.1600 h1        1 H8H      0.036700
     69 H381       -8.3430   -2.7840   -2.1310 h1        1 H8H      0.038200
     70 H382       -7.0840   -1.5400   -2.5680 h1        1 H8H      0.038200
@<TRIPOS>BOND
     1    1    2 1   
     2    1   39 1   
     3    1   40 1   
     4    1   41 1   
     5    2    3 1   
     6    2   38 1   
     7    3    4 1   
     8    3   42 1   
     9    3   43 1   
    10    4    5 1   
    11    4   44 1   
    12    4   45 1   
    13    5    6 1   
    14    5   37 1   
    15    6    7 1   
    16    6   46 1   
    17    6   47 1   
    18    7    8 1   
    19    7   48 1   
    20    7   49 1   
    21    8    9 1   
    22    9   10 ar  
    23    9   36 ar  
    24   10   11 ar  
    25   10   50 1   
    26   11   12 1   
    27   11   19 ar  
    28   12   13 1   
    29   13   14 1   
    30   13   18 1   
    31   13   51 1   
    32   14   15 1   
    33   14   52 1   
    34   14   53 1   
    35   15   16 1   
    36   15   54 1   
    37   15   55 1   
    38   16   17 1   
    39   17   18 1   
    40   17   56 1   
    41   17   57 1   
    42   18   58 1   
    43   18   59 1   
    44   19   20 ar  
    45   19   35 ar  
    46   20   21 1   
    47   20   32 ar  
    48   21   22 1   
    49   21   60 1   
    50   22   23 ar  
    51   22   30 ar  
    52   23   24 1   
    53   23   27 ar  
    54   24   25 1   
    55   25   26 1   
    56   25   61 1   
    57   25   62 1   
    58   26   27 1   
    59   27   28 ar  
    60   28   29 ar  
    61   28   63 1   
    62   29   30 ar  
    63   29   64 1   
    64   30   31 1   
    65   32   33 ar  
    66   33   34 ar  
    67   33   65 1   
    68   34   35 ar  
    69   35   36 ar  
    70   36   66 1   
    71   37   38 1   
    72   37   67 1   
    73   37   68 1   
    74   38   69 1   
    75   38   70 1   
@<TRIPOS>SUBSTRUCTURE
     1 H8H         1 TEMP              0 ****  ****    0 ROOT
