@<TRIPOS>MOLECULE
H8K
   49    53     1     0     0
SMALL
bcc


@<TRIPOS>ATOM
      1 O1          8.8370    0.8430    0.4940 oh        1 H8K     -0.599800
      2 C1          7.4480    0.7460    0.7860 c3        1 H8K      0.140100
      3 C6          6.6760    1.9180    0.1890 c3        1 H8K     -0.092900
      4 C5          5.1870    1.7420    0.3740 c3        1 H8K     -0.090400
      5 C4          4.7130    0.4270   -0.2710 c3        1 H8K      0.174500
      6 C3          5.4810   -0.7390    0.3780 c3        1 H8K     -0.090400
      7 C2          6.9730   -0.5770    0.1930 c3        1 H8K     -0.092900
      8 N1          3.2620    0.3200   -0.2080 n3        1 H8K     -0.823200
      9 C7          2.7000   -0.6560   -1.1230 c3        1 H8K      0.209100
     10 C8          1.2600   -0.9740   -0.8410 ca        1 H8K     -0.091300
     11 C21         0.3230    0.0720   -0.7390 ca        1 H8K     -0.102000
     12 C12        -1.0030   -0.2370   -0.5120 ca        1 H8K     -0.086300
     13 C13        -2.1730    0.7110   -0.3670 c3        1 H8K      0.052200
     14 C14        -3.3150   -0.2070   -0.1430 cc        1 H8K     -0.257600
     15 C16        -4.6860   -0.2980    0.0800 cd        1 H8K      0.014700
     16 C17        -5.6950    0.7060    0.1970 cd        1 H8K     -0.160300
     17 C20        -7.1130    0.4930    0.4360 cd        1 H8K     -0.259300
     18 C19        -7.6970    1.7400    0.4730 cc        1 H8K      0.246600
     19 O2         -6.7320    2.7300    0.2710 os        1 H8K     -0.355800
     20 C18        -5.5160    2.0790    0.1040 cc        1 H8K      0.270600
     21 N3         -4.9520   -1.6890    0.1850 na        1 H8K     -0.034600
     22 N2         -3.8710   -2.4620    0.0460 nd        1 H8K     -0.459800
     23 C15        -2.8440   -1.6100   -0.1570 cc        1 H8K      0.337800
     24 C11        -1.4120   -1.6050   -0.3860 ca        1 H8K     -0.105500
     25 C10        -0.4890   -2.6300   -0.4880 ca        1 H8K     -0.100000
     26 C9          0.8550   -2.3020   -0.7150 ca        1 H8K     -0.129000
     27 H4          9.1250    1.7100    0.8000 ho        1 H8K      0.399000
     28 H1          7.3080    0.7340    1.9050 h1        1 H8K      0.032700
     29 H11         7.0050    2.8710    0.6800 hc        1 H8K      0.051700
     30 H12         6.9230    2.0000   -0.9020 hc        1 H8K      0.051700
     31 H9          4.9390    1.7370    1.4680 hc        1 H8K      0.046450
     32 H10         4.6490    2.6070   -0.0930 hc        1 H8K      0.046450
     33 H2          4.9980    0.4600   -1.3660 h1        1 H8K      0.058700
     34 H8          5.2380   -0.7860    1.4720 hc        1 H8K      0.046450
     35 H7          5.1620   -1.7110   -0.0810 hc        1 H8K      0.046450
     36 H6          7.2360   -0.6040   -0.8960 hc        1 H8K      0.051700
     37 H5          7.5170   -1.4190    0.6920 hc        1 H8K      0.051700
     38 H13         2.9640    0.1430    0.7330 hn        1 H8K      0.362800
     39 H15         2.7710   -0.2140   -2.1600 h1        1 H8K      0.039200
     40 H14         3.2910   -1.6210   -1.1350 h1        1 H8K      0.039200
     41 H23         0.6540    1.1160   -0.8410 ha        1 H8K      0.149000
     42 H19        -2.0190    1.4050    0.4990 hc        1 H8K      0.067700
     43 H18        -2.3060    1.3250   -1.2940 hc        1 H8K      0.067700
     44 H22        -7.6020   -0.4690    0.5600 ha        1 H8K      0.160000
     45 H21        -8.7040    2.1190    0.6180 h4        1 H8K      0.058100
     46 H20        -4.6630    2.7300   -0.0650 h4        1 H8K      0.061100
     47 H3         -5.8420   -2.0960    0.3430 hn        1 H8K      0.320700
     48 H17        -0.7980   -3.6810   -0.3930 ha        1 H8K      0.146000
     49 H16         1.5950   -3.1130   -0.7960 ha        1 H8K      0.132000
@<TRIPOS>BOND
     1    1    2 1   
     2    1   27 1   
     3    2    3 1   
     4    2    7 1   
     5    2   28 1   
     6    3    4 1   
     7    3   29 1   
     8    3   30 1   
     9    4    5 1   
    10    4   31 1   
    11    4   32 1   
    12    5    6 1   
    13    5    8 1   
    14    5   33 1   
    15    6    7 1   
    16    6   34 1   
    17    6   35 1   
    18    7   36 1   
    19    7   37 1   
    20    8    9 1   
    21    8   38 1   
    22    9   10 1   
    23    9   39 1   
    24    9   40 1   
    25   10   11 ar  
    26   10   26 ar  
    27   11   12 ar  
    28   11   41 1   
    29   12   13 1   
    30   12   24 ar  
    31   13   14 1   
    32   13   42 1   
    33   13   43 1   
    34   14   15 2   
    35   14   23 1   
    36   15   16 1   
    37   15   21 1   
    38   16   17 1   
    39   16   20 2   
    40   17   18 2   
    41   17   44 1   
    42   18   19 1   
    43   18   45 1   
    44   19   20 1   
    45   20   46 1   
    46   21   22 1   
    47   21   47 1   
    48   22   23 2   
    49   23   24 1   
    50   24   25 ar  
    51   25   26 ar  
    52   25   48 1   
    53   26   49 1   
@<TRIPOS>SUBSTRUCTURE
     1 H8K         1 TEMP              0 ****  ****    0 ROOT
