@<TRIPOS>MOLECULE
H8K
   50    54     1     0     0
SMALL
bcc


@<TRIPOS>ATOM
      1 O1         -0.0620   -0.2390   -0.1200 oh        1 H8K     -0.580800
      2 C1          1.3390   -0.0380   -0.1910 c3        1 H8K      0.142100
      3 C6          1.9050    0.2340    1.2020 c3        1 H8K     -0.101400
      4 C5          3.4180    0.2520    1.1920 c3        1 H8K     -0.094900
      5 C4          3.9430   -1.0830    0.6460 c3        1 H8K      0.115500
      6 C3          3.4280   -1.2950   -0.7820 c3        1 H8K     -0.094900
      7 C2          1.9150   -1.3250   -0.7770 c3        1 H8K     -0.101400
      8 N1          5.4470   -1.1350    0.7100 n4        1 H8K     -0.770000
      9 C7          5.9870   -2.5370    0.7320 c3        1 H8K      0.179100
     10 C8          7.4750   -2.5240    0.7330 ca        1 H8K     -0.206300
     11 C21         8.1670   -2.6290    1.9550 ca        1 H8K     -0.095000
     12 C12         9.5460   -2.6450    1.9380 ca        1 H8K     -0.078300
     13 C13        10.5010   -2.7600    3.1090 c3        1 H8K      0.052200
     14 C14        11.8290   -2.7190    2.4530 cc        1 H8K     -0.262600
     15 C16        13.2080   -2.7520    2.6500 cd        1 H8K      0.044700
     16 C17        13.9980   -2.8640    3.8340 cd        1 H8K     -0.184300
     17 C20        15.4460   -2.7650    3.9240 cd        1 H8K     -0.258300
     18 C19        15.7680   -2.9340    5.2530 cc        1 H8K      0.263600
     19 O2         14.6090   -3.1330    6.0070 os        1 H8K     -0.345800
     20 C18        13.5390   -3.0870    5.1250 cc        1 H8K      0.283600
     21 N3         13.7670   -2.6440    1.3490 na        1 H8K     -0.012600
     22 N2         12.8690   -2.5520    0.3720 nd        1 H8K     -0.427800
     23 C15        11.6650   -2.5910    0.9900 cc        1 H8K      0.294800
     24 C11        10.2520   -2.5510    0.6900 ca        1 H8K     -0.033500
     25 C10         9.5650   -2.4530   -0.5090 ca        1 H8K     -0.106000
     26 C9          8.1660   -2.4420   -0.4790 ca        1 H8K     -0.095000
     27 H4         -0.4590    0.6070    0.1250 ho        1 H8K      0.417000
     28 H1          1.5720    0.8310   -0.8700 h1        1 H8K      0.044700
     29 H11         1.5310    1.2240    1.5720 hc        1 H8K      0.078950
     30 H12         1.5280   -0.5510    1.9100 hc        1 H8K      0.078950
     31 H9          3.7810    1.0980    0.5510 hc        1 H8K      0.064450
     32 H10         3.7900    0.4220    2.2380 hc        1 H8K      0.064450
     33 H2          3.5620   -1.9220    1.3040 hx        1 H8K      0.108700
     34 H8          3.8100   -2.2640   -1.1990 hc        1 H8K      0.064450
     35 H7          3.7870   -0.4650   -1.4470 hc        1 H8K      0.064450
     36 H6          1.5400   -1.4480   -1.8280 hc        1 H8K      0.078950
     37 H5          1.5390   -2.2000   -0.1850 hc        1 H8K      0.078950
     38 H13         5.7660   -0.6460    1.5540 hn        1 H8K      0.446300
     39 H15         5.5870   -3.0700   -0.1780 hx        1 H8K      0.104700
     40 H14         5.5840   -3.0440    1.6550 hx        1 H8K      0.104700
     41 H23         7.6160   -2.7140    2.9030 ha        1 H8K      0.138000
     42 H19        10.3360   -3.7220    3.6610 hc        1 H8K      0.078700
     43 H18        10.3600   -1.9100    3.8250 hc        1 H8K      0.078700
     44 H22        16.1290   -2.5900    3.0970 ha        1 H8K      0.165000
     45 H21        16.6880   -2.9470    5.8320 h4        1 H8K      0.069100
     46 H20        12.5630   -3.2330    5.5790 h4        1 H8K      0.060100
     47 H3         14.7400   -2.6480    1.1370 hn        1 H8K      0.335700
     48 H17        10.1050   -2.3930   -1.4670 ha        1 H8K      0.170000
     49 H16         7.6110   -2.3840   -1.4280 ha        1 H8K      0.134000
     50 H121        5.8400   -0.6430   -0.1010 hn        1 H8K      0.446300
@<TRIPOS>BOND
     1    1    2 1   
     2    1   27 1   
     3    2    3 1   
     4    2    7 1   
     5    2   28 1   
     6    3    4 1   
     7    3   29 1   
     8    3   30 1   
     9    4    5 1   
    10    4   31 1   
    11    4   32 1   
    12    5    6 1   
    13    5    8 1   
    14    5   33 1   
    15    6    7 1   
    16    6   34 1   
    17    6   35 1   
    18    7   36 1   
    19    7   37 1   
    20    8    9 1   
    21    8   38 1   
    22    8   50 1   
    23    9   10 1   
    24    9   39 1   
    25    9   40 1   
    26   10   11 ar  
    27   10   26 ar  
    28   11   12 ar  
    29   11   41 1   
    30   12   13 1   
    31   12   24 ar  
    32   13   14 1   
    33   13   42 1   
    34   13   43 1   
    35   14   15 2   
    36   14   23 1   
    37   15   16 1   
    38   15   21 1   
    39   16   17 1   
    40   16   20 2   
    41   17   18 2   
    42   17   44 1   
    43   18   19 1   
    44   18   45 1   
    45   19   20 1   
    46   20   46 1   
    47   21   22 1   
    48   21   47 1   
    49   22   23 2   
    50   23   24 1   
    51   24   25 ar  
    52   25   26 ar  
    53   25   48 1   
    54   26   49 1   
@<TRIPOS>SUBSTRUCTURE
     1 H8K         1 TEMP              0 ****  ****    0 ROOT
