@<TRIPOS>MOLECULE
H8K
   50    54     1     0     0
SMALL
bcc


@<TRIPOS>ATOM
      1 O1         -0.0610   -0.2280   -0.1120 oh        1 H8K     -0.580800
      2 C1          1.3410   -0.0330   -0.1890 c3        1 H8K      0.142100
      3 C6          1.9120    0.2480    1.2000 c3        1 H8K     -0.101400
      4 C5          3.4250    0.2610    1.1850 c3        1 H8K     -0.094900
      5 C4          3.9440   -1.0800    0.6480 c3        1 H8K      0.115500
      6 C3          3.4240   -1.3020   -0.7770 c3        1 H8K     -0.094900
      7 C2          1.9110   -1.3260   -0.7670 c3        1 H8K     -0.101400
      8 N1          5.4480   -1.1360    0.7080 ny        1 H8K     -0.770000
      9 C7          5.9830   -2.5410    0.7410 c3        1 H8K      0.179100
     10 C8          7.4710   -2.5320    0.7380 ca        1 H8K     -0.206300
     11 C21         8.1660   -2.6250    1.9600 ca        1 H8K     -0.095000
     12 C12         9.5450   -2.6460    1.9400 ca        1 H8K     -0.078300
     13 C13        10.5020   -2.7500    3.1100 c3        1 H8K      0.052200
     14 C14        11.8280   -2.7210    2.4500 cc        1 H8K     -0.262600
     15 C16        13.2070   -2.7560    2.6450 cd        1 H8K      0.044700
     16 C17        14.0010   -2.8570    3.8280 cd        1 H8K     -0.184300
     17 C20        15.4490   -2.7630    3.9130 cd        1 H8K     -0.258300
     18 C19        15.7740   -2.9160    5.2430 cc        1 H8K      0.263600
     19 O2         14.6160   -3.1010    6.0030 os        1 H8K     -0.345800
     20 C18        13.5440   -3.0620    5.1230 cc        1 H8K      0.283600
     21 N3         13.7640   -2.6660    1.3410 na        1 H8K     -0.012600
     22 N2         12.8640   -2.5830    0.3650 nd        1 H8K     -0.427800
     23 C15        11.6610   -2.6110    0.9860 cc        1 H8K      0.294800
     24 C11        10.2480   -2.5700    0.6890 ca        1 H8K     -0.033500
     25 C10         9.5580   -2.4840   -0.5090 ca        1 H8K     -0.106000
     26 C9          8.1590   -2.4670   -0.4760 ca        1 H8K     -0.095000
     27 H4         -0.4540    0.6210    0.1270 ho        1 H8K      0.417000
     28 H1          1.5750    0.8300   -0.8750 h1        1 H8K      0.044700
     29 H11         1.5350   -0.5290    1.9150 hc        1 H8K      0.078950
     30 H12         1.5420    1.2430    1.5630 hc        1 H8K      0.078950
     31 H9          3.7890    1.1010    0.5360 hc        1 H8K      0.064450
     32 H10         3.8010    0.4390    2.2280 hc        1 H8K      0.064450
     33 H2          3.5620   -1.9120    1.3150 hx        1 H8K      0.108700
     34 H8          3.8010   -2.2750   -1.1870 hc        1 H8K      0.064450
     35 H7          3.7840   -0.4780   -1.4490 hc        1 H8K      0.064450
     36 H6          1.5330   -2.1950   -0.1660 hc        1 H8K      0.078950
     37 H5          1.5320   -1.4560   -1.8150 hc        1 H8K      0.078950
     38 H13         5.7710   -0.6410    1.5470 hn        1 H8K      0.446300
     39 H15         5.5800   -3.0380    1.6700 hx        1 H8K      0.104700
     40 H14         5.5780   -3.0800   -0.1630 hx        1 H8K      0.104700
     41 H23         7.6160   -2.6970    2.9100 ha        1 H8K      0.138000
     42 H19        10.3350   -3.7050    3.6740 hc        1 H8K      0.078700
     43 H18        10.3650   -1.8910    3.8160 hc        1 H8K      0.078700
     44 H22        16.1300   -2.6010    3.0820 ha        1 H8K      0.165000
     45 H21        16.6950   -2.9260    5.8200 h4        1 H8K      0.069100
     46 H20        12.5680   -3.1970    5.5810 h4        1 H8K      0.060100
     47 H3         14.7360   -2.6760    1.1270 hn        1 H8K      0.335700
     48 H17        10.0960   -2.4370   -1.4690 ha        1 H8K      0.170000
     49 H16         7.6020   -2.4190   -1.4250 ha        1 H8K      0.134000
     50 H121        5.8400   -0.6530   -0.1090 hn        1 H8K      0.446300
@<TRIPOS>BOND
     1    1    2 1   
     2    1   27 1   
     3    2    3 1   
     4    2    7 1   
     5    2   28 1   
     6    3    4 1   
     7    3   29 1   
     8    3   30 1   
     9    4    5 1   
    10    4   31 1   
    11    4   32 1   
    12    5    6 1   
    13    5    8 1   
    14    5   33 1   
    15    6    7 1   
    16    6   34 1   
    17    6   35 1   
    18    7   36 1   
    19    7   37 1   
    20    8    9 1   
    21    8   38 1   
    22    8   50 1   
    23    9   10 1   
    24    9   39 1   
    25    9   40 1   
    26   10   11 ar  
    27   10   26 ar  
    28   11   12 ar  
    29   11   41 1   
    30   12   13 1   
    31   12   24 ar  
    32   13   14 1   
    33   13   42 1   
    34   13   43 1   
    35   14   15 2   
    36   14   23 1   
    37   15   16 1   
    38   15   21 1   
    39   16   17 1   
    40   16   20 2   
    41   17   18 2   
    42   17   44 1   
    43   18   19 1   
    44   18   45 1   
    45   19   20 1   
    46   20   46 1   
    47   21   22 1   
    48   21   47 1   
    49   22   23 2   
    50   23   24 1   
    51   24   25 ar  
    52   25   26 ar  
    53   25   48 1   
    54   26   49 1   
@<TRIPOS>SUBSTRUCTURE
     1 H8K         1 TEMP              0 ****  ****    0 ROOT
