@<TRIPOS>MOLECULE
H8K
   49    45     1     0     0
SMALL
bcc


@<TRIPOS>ATOM
      1 O1         -6.0110    3.2970    3.3120 oh        1 H8K     -0.328000
      2 C1         -4.6600    2.8650    3.3390 c3        1 H8K      0.030000
      3 C6         -4.6210    1.3620    3.1320 c3        1 H8K     -0.173500
      4 C5         -3.2110    0.8380    2.9640 c3        1 H8K     -0.155500
      5 C4         -2.4350    1.5910    1.8970 c3        1 H8K     -0.019000
      6 C3         -2.4740    3.0950    2.1030 c3        1 H8K     -0.155500
      7 C2         -3.8830    3.6190    2.2710 c3        1 H8K     -0.173500
      8 N1         -1.0690    1.1550    1.9230 n3        1 H8K     -0.304000
      9 C7         -0.5840    1.0370    0.5910 c3        1 H8K     -0.035000
     10 C8          0.9100    0.7990    0.6170 c2        1 H8K     -0.086000
     11 C21         0.8190    0.4080   -0.7160 c2        1 H8K     -0.117000
     12 C12         1.9030   -0.2200   -1.3360 c1        1 H8K     -0.078000
     13 C13         2.0640   -0.8050   -2.6590 c3        1 H8K     -0.040000
     14 C14         3.3860   -1.4370   -2.7160 c2        1 H8K     -0.186000
     15 C16         4.2210   -2.2010   -3.4940 c1        1 H8K     -0.029000
     16 C17         3.3680   -3.3870   -3.8960 c1        1 H8K     -0.144000
     17 C20         3.2190   -4.5460   -3.1870 c1        1 H8K     -0.144000
     18 C19         2.3330   -5.3530   -3.8720 c1        1 H8K     -0.073000
     19 O2          1.9400   -4.6860   -5.0030 os        1 H8K     -0.097000
     20 C18         2.5760   -3.4720   -5.0230 c1        1 H8K     -0.073000
     21 N3          5.3470   -2.4630   -2.7730 n2        1 H8K     -0.103000
     22 N2          5.2140   -1.8560   -1.5330 n2        1 H8K     -0.103000
     23 C15         4.0110   -1.2270   -1.4990 c1        1 H8K     -0.029000
     24 C11         3.0730   -0.4550   -0.6190 c1        1 H8K      0.001000
     25 C10         3.1630   -0.0620    0.7200 c1        1 H8K     -0.100000
     26 C9          2.0840    0.5630    1.3360 c1        1 H8K     -0.114000
     27 H4         -6.1410    3.9050    3.9480 ho        1 H8K      0.198000
     28 H1         -4.2780    3.0740    4.2140 h1        1 H8K      0.074000
     29 H11        -5.1380    1.1390    2.3330 hc        1 H8K      0.090750
     30 H12        -5.0300    0.9260    3.9060 hc        1 H8K      0.090750
     31 H9         -3.2530   -0.1080    2.7170 hc        1 H8K      0.088500
     32 H10        -2.7390    0.9220    3.8160 hc        1 H8K      0.088500
     33 H2         -2.8170    1.3820    1.0210 h1        1 H8K      0.061000
     34 H8         -2.0640    3.5310    1.3290 hc        1 H8K      0.088500
     35 H7         -1.9570    3.3180    2.9030 hc        1 H8K      0.088500
     36 H6         -4.3550    3.5350    1.4180 hc        1 H8K      0.090750
     37 H5         -3.8410    4.5640    2.5180 hc        1 H8K      0.090750
     38 H13        -1.0170    0.3420    2.3400 hn        1 H8K      0.161000
     39 H15        -1.0270    0.2840    0.1470 h1        1 H8K      0.076500
     40 H14        -0.7740    1.8630    0.0990 h1        1 H8K      0.076500
     41 H23         0.0130    0.6080   -1.2290 ha        1 H8K      0.134000
     42 H19         1.3700   -1.4760   -2.8110 hc        1 H8K      0.106000
     43 H18         2.0030   -0.1050   -3.3400 hc        1 H8K      0.106000
     44 H22         3.6600   -4.7640   -2.3450 DU        1 H8K      0.206000
     45 H21         2.0380   -6.2420   -3.5990 DU        1 H8K      0.206000
     46 H20         2.4840   -2.7870   -5.7130 DU        1 H8K      0.206000
     47 H3          6.0600   -2.9570   -3.0530 DU        1 H8K      0.206000
     48 H17         3.9840   -0.2260    1.2220 ha        1 H8K      0.146000
     49 H16         2.1360    0.8110    2.2790 ha        1 H8K      0.148000
@<TRIPOS>BOND
     1    1    2 1   
     2    1   27 1   
     3    2    3 1   
     4    2    7 1   
     5    2   28 1   
     6    3    4 1   
     7    3   29 1   
     8    3   30 1   
     9    4    5 1   
    10    4   31 1   
    11    4   32 1   
    12    5    6 1   
    13    5    8 1   
    14    5   33 1   
    15    6    7 1   
    16    6   34 1   
    17    6   35 1   
    18    7   36 1   
    19    7   37 1   
    20    8    9 1   
    21    8   38 1   
    22    9   10 1   
    23    9   39 1   
    24    9   40 1   
    25   10   11 1   
    26   10   26 1   
    27   11   12 1   
    28   11   41 1   
    29   12   13 1   
    30   13   14 1   
    31   13   42 1   
    32   13   43 1   
    33   14   15 1   
    34   14   23 1   
    35   15   21 1   
    36   16   17 1   
    37   16   20 1   
    38   17   18 1   
    39   18   19 1   
    40   19   20 1   
    41   21   22 1   
    42   22   23 1   
    43   24   25 1   
    44   25   48 1   
    45   26   49 1   
@<TRIPOS>SUBSTRUCTURE
     1 H8K         1 TEMP              0 ****  ****    0 ROOT
