@<TRIPOS>MOLECULE
H8N
   14    14     1     0     0
SMALL
bcc


@<TRIPOS>ATOM
      1 NAA        -1.3530   -0.1780   -2.1910 n1        1 H8N     -0.367800
      2 CAC        -0.7480   -0.1210   -1.1990 cg        1 H8N      0.237800
      3 CAI        -0.0090   -0.0510    0.0120 ca        1 H8N     -0.058000
      4 CAF         1.3950   -0.0680   -0.0220 ca        1 H8N     -0.053500
      5 CAD         2.1250   -0.0010    1.1570 ca        1 H8N     -0.193000
      6 CAH         1.4410    0.0850    2.3830 ca        1 H8N      0.149100
      7 OAB         2.2190    0.1490    3.5130 oh        1 H8N     -0.490100
      8 CAE         0.0390    0.1030    2.4270 ca        1 H8N     -0.193000
      9 CAG        -0.6820    0.0340    1.2390 ca        1 H8N     -0.053500
     10 H1          1.9190   -0.1350   -0.9880 ha        1 H8N      0.148000
     11 H2          3.2240   -0.0130    1.1490 ha        1 H8N      0.150500
     12 H3          1.6320    0.2040    4.2810 ho        1 H8N      0.425000
     13 H4         -0.4860    0.1700    3.3900 ha        1 H8N      0.150500
     14 H5         -1.7830    0.0480    1.2640 ha        1 H8N      0.148000
@<TRIPOS>BOND
     1    1    2 3   
     2    2    3 1   
     3    3    4 ar  
     4    3    9 ar  
     5    4    5 ar  
     6    4   10 1   
     7    5    6 ar  
     8    5   11 1   
     9    6    7 1   
    10    6    8 ar  
    11    7   12 1   
    12    8    9 ar  
    13    8   13 1   
    14    9   14 1   
@<TRIPOS>SUBSTRUCTURE
     1 H8N         1 TEMP              0 ****  ****    0 ROOT
