@<TRIPOS>MOLECULE
H8N
   14    14     1     0     0
SMALL
bcc


@<TRIPOS>ATOM
      1 NAA        -1.1520   -0.1780   -2.3390 n1        1 H8N     -0.367800
      2 CAC        -0.6250   -0.1250   -1.3020 cg        1 H8N      0.237800
      3 CAI         0.0180   -0.0600   -0.0380 ca        1 H8N     -0.058000
      4 CAF         1.4150    0.0330    0.0340 ca        1 H8N     -0.053500
      5 CAD         2.0480    0.0970    1.2710 ca        1 H8N     -0.193000
      6 CAH         1.2750    0.0670    2.4420 ca        1 H8N      0.149100
      7 OAB         1.8280    0.1260    3.6970 oh        1 H8N     -0.490100
      8 CAE        -0.1270   -0.0260    2.3810 ca        1 H8N     -0.193000
      9 CAG        -0.7470   -0.0890    1.1400 ca        1 H8N     -0.053500
     10 H1          2.0130    0.0550   -0.8900 ha        1 H8N      0.148000
     11 H2          3.1430    0.1690    1.3300 ha        1 H8N      0.150500
     12 H3          2.7900    0.1870    3.6010 ho        1 H8N      0.425000
     13 H4         -0.7110   -0.0470    3.3120 ha        1 H8N      0.150500
     14 H5         -1.8450   -0.1610    1.0790 ha        1 H8N      0.148000
@<TRIPOS>BOND
     1    1    2 3   
     2    2    3 1   
     3    3    4 ar  
     4    3    9 ar  
     5    4    5 ar  
     6    4   10 1   
     7    5    6 ar  
     8    5   11 1   
     9    6    7 1   
    10    6    8 ar  
    11    7   12 1   
    12    8    9 ar  
    13    8   13 1   
    14    9   14 1   
@<TRIPOS>SUBSTRUCTURE
     1 H8N         1 TEMP              0 ****  ****    0 ROOT
