@<TRIPOS>MOLECULE
H90
   50    54     1     0     0
SMALL
bcc


@<TRIPOS>ATOM
      1 C1          6.1800    2.7370    1.2690 ca        1 H90      0.380700
      2 C2          5.8600    1.9270    0.1660 ca        1 H90     -0.223300
      3 C3          4.6090    2.0870   -0.4420 ca        1 H90     -0.074300
      4 C4          3.7290    3.0390    0.0840 ca        1 H90     -0.223300
      5 C5          4.1450    3.8020    1.1900 ca        1 H90      0.380700
      6 N6          5.3480    3.6670    1.7800 nb        1 H90     -0.673000
      7 C7          4.2310    1.2820   -1.6520 c3        1 H90      0.086600
      8 N8          3.9460   -0.1230   -1.4350 na        1 H90     -0.013800
      9 C9          2.6910   -0.5290   -0.8470 ca        1 H90      0.393800
     10 C10         2.9490   -1.8010   -0.1910 ca        1 H90     -0.282200
     11 C11         4.3860   -2.0040   -0.3580 cc        1 H90      0.431800
     12 N12         4.9300   -0.9850   -1.0270 nd        1 H90     -0.574100
     13 N13         1.4790    0.0610   -0.9350 nb        1 H90     -0.690000
     14 C14         0.4680   -0.6450   -0.3520 cp        1 H90      0.433800
     15 C15         0.6350   -1.8890    0.3000 ca        1 H90     -0.234300
     16 C16         1.8960   -2.4960    0.3850 ca        1 H90     -0.025600
     17 C18         2.0750   -3.8490    1.0710 c         1 H90      0.912200
     18 O19         1.0390   -4.4020    1.5290 o         1 H90     -0.812300
     19 O20         3.2410   -4.3240    1.1320 o         1 H90     -0.812300
     20 C21        -0.8890   -0.0660   -0.4020 cp        1 H90     -0.083500
     21 C22        -1.1020    1.3070   -0.2180 ca        1 H90     -0.125500
     22 C23        -2.3930    1.8260   -0.2420 ca        1 H90     -0.093500
     23 C24        -3.4950    0.9820   -0.4360 ca        1 H90     -0.183600
     24 C25        -3.2810   -0.3880   -0.6380 ca        1 H90     -0.093500
     25 C26        -1.9900   -0.9070   -0.6240 ca        1 H90     -0.125500
     26 C27        -4.8520    1.5610   -0.4510 c         1 H90      0.593300
     27 O27        -5.0610    2.7230   -0.8310 o         1 H90     -0.546100
     28 C28        -5.9720    0.7080    0.0140 ca        1 H90     -0.162600
     29 C29        -5.7970   -0.2260    1.0420 ca        1 H90     -0.085500
     30 C30        -6.8750   -0.9990    1.4740 ca        1 H90     -0.146000
     31 C31        -8.1280   -0.8470    0.8820 ca        1 H90     -0.113000
     32 C32        -8.3090    0.0860   -0.1400 ca        1 H90     -0.146000
     33 C33        -7.2370    0.8670   -0.5690 ca        1 H90     -0.085500
     34 H1          7.1540    2.6340    1.7780 h4        1 H90      0.014100
     35 H2          6.5720    1.1750   -0.2030 ha        1 H90      0.154500
     36 H4          2.7280    3.1800   -0.3470 ha        1 H90      0.154500
     37 H5          3.4760    4.5610    1.6320 h4        1 H90      0.014100
     38 H7          3.3100    1.7260   -2.1280 h1        1 H90      0.072200
     39 H7A         5.0820    1.3430   -2.3930 h1        1 H90      0.072200
     40 H11         4.9280   -2.8820    0.0150 h4        1 H90      0.089800
     41 H15        -0.2200   -2.4070    0.7630 ha        1 H90      0.169000
     42 H22        -0.2450    1.9780   -0.0570 ha        1 H90      0.151500
     43 H23        -2.5620    2.9060   -0.1100 ha        1 H90      0.139000
     44 H25        -4.1370   -1.0570   -0.8140 ha        1 H90      0.139000
     45 H26        -1.8290   -1.9850   -0.7870 ha        1 H90      0.151500
     46 H29        -4.8060   -0.3490    1.5080 ha        1 H90      0.149500
     47 H30        -6.7310   -1.7310    2.2830 ha        1 H90      0.133000
     48 H31        -8.9750   -1.4610    1.2210 ha        1 H90      0.128000
     49 H32        -9.2970    0.2090   -0.6050 ha        1 H90      0.133000
     50 H33        -7.3720    1.6180   -1.3630 ha        1 H90      0.149500
@<TRIPOS>BOND
     1    1    2 ar  
     2    1    6 ar  
     3    1   34 1   
     4    2    3 ar  
     5    2   35 1   
     6    3    4 ar  
     7    3    7 1   
     8    4    5 ar  
     9    4   36 1   
    10    5    6 ar  
    11    5   37 1   
    12    7    8 1   
    13    7   38 1   
    14    7   39 1   
    15    8    9 1   
    16    8   12 1   
    17    9   10 ar  
    18    9   13 ar  
    19   10   11 1   
    20   10   16 ar  
    21   11   12 2   
    22   11   40 1   
    23   13   14 ar  
    24   14   15 ar  
    25   14   20 1   
    26   15   16 ar  
    27   15   41 1   
    28   16   17 1   
    29   17   18 1   
    30   17   19 1   
    31   20   21 ar  
    32   20   25 ar  
    33   21   22 ar  
    34   21   42 1   
    35   22   23 ar  
    36   22   43 1   
    37   23   24 ar  
    38   23   26 1   
    39   24   25 ar  
    40   24   44 1   
    41   25   45 1   
    42   26   27 2   
    43   26   28 1   
    44   28   29 ar  
    45   28   33 ar  
    46   29   30 ar  
    47   29   46 1   
    48   30   31 ar  
    49   30   47 1   
    50   31   32 ar  
    51   31   48 1   
    52   32   33 ar  
    53   32   49 1   
    54   33   50 1   
@<TRIPOS>SUBSTRUCTURE
     1 H90         1 TEMP              0 ****  ****    0 ROOT
