@<TRIPOS>MOLECULE
H90
   50    54     1     0     0
SMALL
bcc


@<TRIPOS>ATOM
      1 C1          0.2970    0.2830   -0.2870 ca        1 H90      0.380700
      2 C2          1.6960    0.2900   -0.1530 ca        1 H90     -0.223300
      3 C3          2.2500   -0.0380    1.0900 ca        1 H90     -0.074300
      4 C4          1.3860   -0.3480    2.1460 ca        1 H90     -0.223300
      5 C5         -0.0000   -0.3310    1.9070 ca        1 H90      0.380700
      6 N6         -0.5490   -0.0270    0.7150 nb        1 H90     -0.673000
      7 C7          3.7390   -0.0910    1.2800 c3        1 H90      0.086600
      8 N8          4.4370    1.1800    1.3040 na        1 H90     -0.013800
      9 C9          4.3770    2.0220    2.4750 ca        1 H90      0.393800
     10 C10         4.5750    3.3830    2.0010 ca        1 H90     -0.282200
     11 C11         4.6380    3.2490    0.5480 cc        1 H90      0.431800
     12 N12         4.4930    1.9720    0.1870 nd        1 H90     -0.574100
     13 N13         4.2580    1.6680    3.7730 nb        1 H90     -0.690000
     14 C14         4.3470    2.7100    4.6490 cp        1 H90      0.433800
     15 C15         4.5440    4.0580    4.2690 ca        1 H90     -0.234300
     16 C16         4.6690    4.4170    2.9200 ca        1 H90     -0.025600
     17 C18         4.9020    5.8700    2.5090 c         1 H90      0.912200
     18 O19         5.0030    6.7200    3.4350 o         1 H90     -0.812300
     19 O20         4.9800    6.1230    1.2760 o         1 H90     -0.812300
     20 C21         4.2240    2.4070    6.0890 cp        1 H90     -0.083500
     21 C22         3.2930    1.4710    6.5580 ca        1 H90     -0.125500
     22 C23         3.1750    1.2220    7.9230 ca        1 H90     -0.093500
     23 C24         3.9760    1.9120    8.8420 ca        1 H90     -0.183600
     24 C25         4.9190    2.8350    8.3720 ca        1 H90     -0.093500
     25 C26         5.0450    3.0780    7.0080 ca        1 H90     -0.125500
     26 C27         3.8240    1.6310   10.2830 c         1 H90      0.593300
     27 O27         3.4660    0.5170   10.6960 o         1 H90     -0.546100
     28 C28         4.1080    2.7310   11.2360 ca        1 H90     -0.162600
     29 C29         3.8220    4.0630   10.9150 ca        1 H90     -0.085500
     30 C30         4.0780    5.0740   11.8400 ca        1 H90     -0.146000
     31 C31         4.6240    4.7630   13.0850 ca        1 H90     -0.113000
     32 C32         4.9070    3.4370   13.4110 ca        1 H90     -0.146000
     33 C33         4.6440    2.4220   12.4930 ca        1 H90     -0.085500
     34 H1         -0.1760    0.5420   -1.2510 h4        1 H90      0.014100
     35 H2          2.3400    0.5610   -1.0010 ha        1 H90      0.154500
     36 H4          1.7780   -0.5870    3.1440 ha        1 H90      0.154500
     37 H5         -0.7120   -0.5680    2.7170 h4        1 H90      0.014100
     38 H7          3.9770   -0.6040    2.2550 h1        1 H90      0.072200
     39 H7A         4.1790   -0.7010    0.4370 h1        1 H90      0.072200
     40 H11         4.7900    4.0910   -0.1390 h4        1 H90      0.089800
     41 H15         4.5970    4.8590    5.0240 ha        1 H90      0.169000
     42 H22         2.6530    0.9280    5.8460 ha        1 H90      0.151500
     43 H23         2.4520    0.4780    8.2930 ha        1 H90      0.139000
     44 H25         5.5690    3.3660    9.0840 ha        1 H90      0.139000
     45 H26         5.7920    3.8020    6.6440 ha        1 H90      0.151500
     46 H29         3.3930    4.3100    9.9310 ha        1 H90      0.149500
     47 H30         3.8500    6.1190   11.5830 ha        1 H90      0.133000
     48 H31         4.8310    5.5640   13.8100 ha        1 H90      0.128000
     49 H32         5.3350    3.1900   14.3930 ha        1 H90      0.133000
     50 H33         4.8480    1.3690   12.7460 ha        1 H90      0.149500
@<TRIPOS>BOND
     1    1    2 ar  
     2    1    6 ar  
     3    1   34 1   
     4    2    3 ar  
     5    2   35 1   
     6    3    4 ar  
     7    3    7 1   
     8    4    5 ar  
     9    4   36 1   
    10    5    6 ar  
    11    5   37 1   
    12    7    8 1   
    13    7   38 1   
    14    7   39 1   
    15    8    9 1   
    16    8   12 1   
    17    9   10 ar  
    18    9   13 ar  
    19   10   11 1   
    20   10   16 ar  
    21   11   12 2   
    22   11   40 1   
    23   13   14 ar  
    24   14   15 ar  
    25   14   20 1   
    26   15   16 ar  
    27   15   41 1   
    28   16   17 1   
    29   17   18 1   
    30   17   19 1   
    31   20   21 ar  
    32   20   25 ar  
    33   21   22 ar  
    34   21   42 1   
    35   22   23 ar  
    36   22   43 1   
    37   23   24 ar  
    38   23   26 1   
    39   24   25 ar  
    40   24   44 1   
    41   25   45 1   
    42   26   27 2   
    43   26   28 1   
    44   28   29 ar  
    45   28   33 ar  
    46   29   30 ar  
    47   29   46 1   
    48   30   31 ar  
    49   30   47 1   
    50   31   32 ar  
    51   31   48 1   
    52   32   33 ar  
    53   32   49 1   
    54   33   50 1   
@<TRIPOS>SUBSTRUCTURE
     1 H90         1 TEMP              0 ****  ****    0 ROOT
