@<TRIPOS>MOLECULE
H90
   50    54     1     0     0
SMALL
bcc


@<TRIPOS>ATOM
      1 C1          0.2990    0.2860   -0.2910 ca        1 H90      0.380700
      2 C2          1.6990    0.2950   -0.1560 ca        1 H90     -0.223300
      3 C3          2.2520   -0.0340    1.0860 ca        1 H90     -0.074300
      4 C4          1.3880   -0.3460    2.1420 ca        1 H90     -0.223300
      5 C5          0.0020   -0.3290    1.9030 ca        1 H90      0.380700
      6 N6         -0.5460   -0.0250    0.7110 nb        1 H90     -0.673000
      7 C7          3.7410   -0.0850    1.2770 c3        1 H90      0.086600
      8 N8          4.4380    1.1870    1.3020 na        1 H90     -0.013800
      9 C9          4.3770    2.0270    2.4750 ca        1 H90      0.393800
     10 C10         4.5740    3.3880    2.0030 ca        1 H90     -0.282200
     11 C11         4.6360    3.2560    0.5490 cc        1 H90      0.431800
     12 N12         4.4930    1.9800    0.1860 nd        1 H90     -0.574100
     13 N13         4.2580    1.6710    3.7720 nb        1 H90     -0.690000
     14 C14         4.3460    2.7120    4.6500 cp        1 H90      0.433800
     15 C15         4.5420    4.0600    4.2720 ca        1 H90     -0.234300
     16 C16         4.6670    4.4210    2.9230 ca        1 H90     -0.025600
     17 C18         4.8980    5.8750    2.5140 c         1 H90      0.912200
     18 O19         4.9980    6.7240    3.4410 o         1 H90     -0.812300
     19 O20         4.9760    6.1300    1.2820 o         1 H90     -0.812300
     20 C21         4.2240    2.4070    6.0890 cp        1 H90     -0.083500
     21 C22         3.2940    1.4690    6.5570 ca        1 H90     -0.125500
     22 C23         3.1760    1.2180    7.9220 ca        1 H90     -0.093500
     23 C24         3.9770    1.9080    8.8420 ca        1 H90     -0.183600
     24 C25         4.9180    2.8330    8.3730 ca        1 H90     -0.093500
     25 C26         5.0440    3.0780    7.0090 ca        1 H90     -0.125500
     26 C27         3.8250    1.6250   10.2820 c         1 H90      0.593300
     27 O27         3.4680    0.5100   10.6940 o         1 H90     -0.546100
     28 C28         4.1080    2.7240   11.2370 ca        1 H90     -0.162600
     29 C29         3.8200    4.0560   10.9180 ca        1 H90     -0.085500
     30 C30         4.0750    5.0670   11.8440 ca        1 H90     -0.146000
     31 C31         4.6220    4.7550   13.0890 ca        1 H90     -0.113000
     32 C32         4.9070    3.4280   13.4120 ca        1 H90     -0.146000
     33 C33         4.6450    2.4140   12.4930 ca        1 H90     -0.085500
     34 H1         -0.1740    0.5460   -1.2550 h4        1 H90      0.014100
     35 H2          2.3420    0.5670   -1.0040 ha        1 H90      0.154500
     36 H4          1.7800   -0.5850    3.1400 ha        1 H90      0.154500
     37 H5         -0.7100   -0.5680    2.7120 h4        1 H90      0.014100
     38 H7          3.9790   -0.6000    2.2520 h1        1 H90      0.072200
     39 H7A         4.1820   -0.6940    0.4340 h1        1 H90      0.072200
     40 H11         4.7880    4.0990   -0.1370 h4        1 H90      0.089800
     41 H15         4.5940    4.8600    5.0270 ha        1 H90      0.169000
     42 H22         2.6550    0.9260    5.8440 ha        1 H90      0.151500
     43 H23         2.4540    0.4730    8.2910 ha        1 H90      0.139000
     44 H25         5.5680    3.3640    9.0850 ha        1 H90      0.139000
     45 H26         5.7900    3.8030    6.6460 ha        1 H90      0.151500
     46 H29         3.3910    4.3040    9.9340 ha        1 H90      0.149500
     47 H30         3.8460    6.1120   11.5880 ha        1 H90      0.133000
     48 H31         4.8280    5.5550   13.8150 ha        1 H90      0.128000
     49 H32         5.3350    3.1800   14.3940 ha        1 H90      0.133000
     50 H33         4.8500    1.3610   12.7450 ha        1 H90      0.149500
@<TRIPOS>BOND
     1    1    2 ar  
     2    1    6 ar  
     3    1   34 1   
     4    2    3 ar  
     5    2   35 1   
     6    3    4 ar  
     7    3    7 1   
     8    4    5 ar  
     9    4   36 1   
    10    5    6 ar  
    11    5   37 1   
    12    7    8 1   
    13    7   38 1   
    14    7   39 1   
    15    8    9 1   
    16    8   12 1   
    17    9   10 ar  
    18    9   13 ar  
    19   10   11 1   
    20   10   16 ar  
    21   11   12 2   
    22   11   40 1   
    23   13   14 ar  
    24   14   15 ar  
    25   14   20 1   
    26   15   16 ar  
    27   15   41 1   
    28   16   17 1   
    29   17   18 1   
    30   17   19 1   
    31   20   21 ar  
    32   20   25 ar  
    33   21   22 ar  
    34   21   42 1   
    35   22   23 ar  
    36   22   43 1   
    37   23   24 ar  
    38   23   26 1   
    39   24   25 ar  
    40   24   44 1   
    41   25   45 1   
    42   26   27 2   
    43   26   28 1   
    44   28   29 ar  
    45   28   33 ar  
    46   29   30 ar  
    47   29   46 1   
    48   30   31 ar  
    49   30   47 1   
    50   31   32 ar  
    51   31   48 1   
    52   32   33 ar  
    53   32   49 1   
    54   33   50 1   
@<TRIPOS>SUBSTRUCTURE
     1 H90         1 TEMP              0 ****  ****    0 ROOT
