@<TRIPOS>MOLECULE
H9K
   42    46     1     0     0
SMALL
bcc


@<TRIPOS>ATOM
      1 O2          7.5190   -2.3280   -0.4640 oh        1 H9K     -0.497100
      2 C19         6.4950   -1.4230   -0.2920 ca        1 H9K      0.128100
      3 C18         5.1400   -1.8070   -0.3740 ca        1 H9K     -0.202000
      4 C20         6.8750   -0.0990   -0.0310 ca        1 H9K     -0.165000
      5 C21         5.8940    0.8810    0.1560 ca        1 H9K     -0.062000
      6 C22         4.5600    0.5200    0.0780 ca        1 H9K     -0.146500
      7 C14         3.3420    1.2920    0.2230 cc        1 H9K      0.345800
      8 N2          2.9210    2.5520    0.4600 nd        1 H9K     -0.462800
      9 N1          1.5860    2.4940    0.4210 na        1 H9K     -0.035600
     10 C17         4.1790   -0.8350   -0.1890 ca        1 H9K     -0.043300
     11 C16         2.6740   -0.9950   -0.2280 c3        1 H9K      0.050200
     12 C15         2.1900    0.3800    0.0410 cc        1 H9K     -0.256600
     13 C13         1.0690    1.1940    0.1800 cd        1 H9K     -0.015300
     14 C10        -0.3430    0.8830    0.1100 ca        1 H9K     -0.018000
     15 C9         -0.7630   -0.4360    0.3400 ca        1 H9K     -0.115000
     16 C8         -2.1120   -0.7680    0.2780 ca        1 H9K     -0.120000
     17 C11        -1.3030    1.8600   -0.1920 ca        1 H9K     -0.115000
     18 C12        -2.6520    1.5250   -0.2540 ca        1 H9K     -0.120000
     19 C7         -3.0740    0.2090   -0.0180 cp        1 H9K     -0.020000
     20 C4         -4.4910   -0.1390   -0.0810 cp        1 H9K     -0.080000
     21 C3         -5.3130    0.4090   -1.0780 ca        1 H9K     -0.080000
     22 C2         -6.6620    0.0850   -1.1490 ca        1 H9K     -0.186000
     23 C5         -5.0470   -1.0240    0.8530 ca        1 H9K     -0.080000
     24 C6         -6.3970   -1.3580    0.8000 ca        1 H9K     -0.186000
     25 C1         -7.2030   -0.8020   -0.2030 ca        1 H9K      0.130100
     26 O1         -8.5430   -1.0830   -0.3210 oh        1 H9K     -0.495100
     27 H14         7.1250   -3.1950   -0.6390 ho        1 H9K      0.419000
     28 H13         4.8680   -2.8510   -0.5800 ha        1 H9K      0.136000
     29 H15         7.9420    0.1560    0.0240 ha        1 H9K      0.152000
     30 H16         6.1860    1.9220    0.3600 ha        1 H9K      0.149000
     31 H1          1.0460    3.2980    0.6370 hn        1 H9K      0.319700
     32 H12         2.3370   -1.3680   -1.2300 hc        1 H9K      0.070200
     33 H11         2.3310   -1.7200    0.5550 hc        1 H9K      0.070200
     34 H8         -0.0130   -1.2100    0.5690 ha        1 H9K      0.135000
     35 H7         -2.4280   -1.8080    0.4560 ha        1 H9K      0.138500
     36 H9         -1.0010    2.8980   -0.3940 ha        1 H9K      0.135000
     37 H10        -3.3960    2.3020   -0.4860 ha        1 H9K      0.138500
     38 H4         -4.8820    1.1000   -1.8200 ha        1 H9K      0.138000
     39 H3         -7.3110    0.5080   -1.9290 ha        1 H9K      0.144500
     40 H5         -4.4110   -1.4550    1.6420 ha        1 H9K      0.138000
     41 H6         -6.8270   -2.0490    1.5380 ha        1 H9K      0.144500
     42 H2         -8.7830   -1.7010    0.3850 ho        1 H9K      0.421000
@<TRIPOS>BOND
     1    1    2 1   
     2    1   27 1   
     3    2    3 ar  
     4    2    4 ar  
     5    3   10 ar  
     6    3   28 1   
     7    4    5 ar  
     8    4   29 1   
     9    5    6 ar  
    10    5   30 1   
    11    6    7 1   
    12    6   10 ar  
    13    7    8 2   
    14    7   12 1   
    15    8    9 1   
    16    9   13 1   
    17    9   31 1   
    18   10   11 1   
    19   11   12 1   
    20   11   32 1   
    21   11   33 1   
    22   12   13 2   
    23   13   14 1   
    24   14   15 ar  
    25   14   17 ar  
    26   15   16 ar  
    27   15   34 1   
    28   16   19 ar  
    29   16   35 1   
    30   17   18 ar  
    31   17   36 1   
    32   18   19 ar  
    33   18   37 1   
    34   19   20 1   
    35   20   21 ar  
    36   20   23 ar  
    37   21   22 ar  
    38   21   38 1   
    39   22   25 ar  
    40   22   39 1   
    41   23   24 ar  
    42   23   40 1   
    43   24   25 ar  
    44   24   41 1   
    45   25   26 1   
    46   26   42 1   
@<TRIPOS>SUBSTRUCTURE
     1 H9K         1 TEMP              0 ****  ****    0 ROOT
