@<TRIPOS>MOLECULE
H9K
   42    46     1     0     0
SMALL
bcc


@<TRIPOS>ATOM
      1 O2          0.0120    0.0640   -0.3010 oh        1 H9K     -0.497100
      2 C19         1.3830    0.0540   -0.1740 ca        1 H9K      0.128100
      3 C18         2.0130    0.0600    1.0880 ca        1 H9K     -0.202000
      4 C20         2.1170    0.0360   -1.3680 ca        1 H9K     -0.165000
      5 C21         3.5140    0.0240   -1.3240 ca        1 H9K     -0.062000
      6 C22         4.1490    0.0310   -0.0940 ca        1 H9K     -0.146500
      7 C14         5.5520    0.0220    0.2690 cc        1 H9K      0.345800
      8 N2          6.7800    0.0140   -0.2920 nd        1 H9K     -0.463800
      9 N1          7.6380    0.0370    0.7330 na        1 H9K     -0.035600
     10 C17         3.3930    0.0490    1.1230 ca        1 H9K     -0.043300
     11 C16         4.2930    0.0530    2.3410 c3        1 H9K      0.050200
     12 C15         5.6510    0.0340    1.7460 cc        1 H9K     -0.256600
     13 C13         7.0180    0.0390    2.0090 cd        1 H9K     -0.015300
     14 C10         7.7410    0.0470    3.2630 ca        1 H9K     -0.018000
     15 C9          7.1020   -0.4180    4.4230 ca        1 H9K     -0.115000
     16 C8          7.7690   -0.4220    5.6430 ca        1 H9K     -0.120000
     17 C11         9.0600    0.5150    3.3540 ca        1 H9K     -0.115000
     18 C12         9.7250    0.5120    4.5770 ca        1 H9K     -0.120000
     19 C7          9.0900    0.0410    5.7350 cp        1 H9K     -0.020000
     20 C4          9.7910    0.0360    7.0160 cp        1 H9K     -0.080000
     21 C3         10.6160    1.1120    7.3790 ca        1 H9K     -0.080000
     22 C2         11.2880    1.1190    8.5950 ca        1 H9K     -0.186000
     23 C5          9.6490   -1.0440    7.8980 ca        1 H9K     -0.080000
     24 C6         10.3160   -1.0570    9.1190 ca        1 H9K     -0.186000
     25 C1         11.1350    0.0260    9.4650 ca        1 H9K      0.130100
     26 O1         11.8260    0.0870   10.6530 oh        1 H9K     -0.495100
     27 H14        -0.3710    0.0790    0.5880 ho        1 H9K      0.419000
     28 H13         1.4160    0.0750    2.0100 ha        1 H9K      0.136000
     29 H15         1.5840    0.0310   -2.3290 ha        1 H9K      0.152000
     30 H16         4.0960    0.0110   -2.2580 ha        1 H9K      0.149000
     31 H1          8.6140   -0.0330    0.5660 hn        1 H9K      0.319700
     32 H12         4.1030   -0.8480    2.9780 hc        1 H9K      0.070200
     33 H11         4.1220    0.9700    2.9610 hc        1 H9K      0.070200
     34 H8          6.0640   -0.7800    4.3590 ha        1 H9K      0.135000
     35 H7          7.2540   -0.7850    6.5460 ha        1 H9K      0.138500
     36 H9          9.5800    0.9020    2.4650 ha        1 H9K      0.135000
     37 H10        10.7610    0.8770    4.6340 ha        1 H9K      0.138500
     38 H4         10.7270    1.9680    6.6940 ha        1 H9K      0.138000
     39 H3         11.9320    1.9600    8.8870 ha        1 H9K      0.144500
     40 H5          9.0090   -1.8960    7.6200 ha        1 H9K      0.138000
     41 H6         10.2040   -1.9090    9.8040 ha        1 H9K      0.144500
     42 H2         11.6340   -0.7200   11.1520 ho        1 H9K      0.421000
@<TRIPOS>BOND
     1    1    2 1   
     2    1   27 1   
     3    2    3 ar  
     4    2    4 ar  
     5    3   10 ar  
     6    3   28 1   
     7    4    5 ar  
     8    4   29 1   
     9    5    6 ar  
    10    5   30 1   
    11    6    7 1   
    12    6   10 ar  
    13    7    8 2   
    14    7   12 1   
    15    8    9 1   
    16    9   13 1   
    17    9   31 1   
    18   10   11 1   
    19   11   12 1   
    20   11   32 1   
    21   11   33 1   
    22   12   13 2   
    23   13   14 1   
    24   14   15 ar  
    25   14   17 ar  
    26   15   16 ar  
    27   15   34 1   
    28   16   19 ar  
    29   16   35 1   
    30   17   18 ar  
    31   17   36 1   
    32   18   19 ar  
    33   18   37 1   
    34   19   20 1   
    35   20   21 ar  
    36   20   23 ar  
    37   21   22 ar  
    38   21   38 1   
    39   22   25 ar  
    40   22   39 1   
    41   23   24 ar  
    42   23   40 1   
    43   24   25 ar  
    44   24   41 1   
    45   25   26 1   
    46   26   42 1   
@<TRIPOS>SUBSTRUCTURE
     1 H9K         1 TEMP              0 ****  ****    0 ROOT
