@<TRIPOS>MOLECULE
HA0
   61    62     1     0     0
SMALL
bcc


@<TRIPOS>ATOM
      1 C           1.1460   -0.6030    0.0560 c2        1 HA0      0.285000
      2 N           1.7030    0.1530    1.0850 n         1 HA0     -0.306000
      3 O           1.7550   -1.5600   -0.4600 o         1 HA0     -0.361000
      4 C1          3.4410    1.8680    0.4630 c2        1 HA0      0.328000
      5 OXT         4.5750    2.3530    0.6850 o         1 HA0     -0.566000
      6 N3          4.3340   -2.0500    2.9670 n2        1 HA0     -0.158000
      7 C4         -1.2340   -0.1910    0.8240 c3        1 HA0     -0.148000
      8 C5         -0.8140   -1.3290   -1.3530 c3        1 HA0     -0.230000
      9 O6          2.6090   -1.0560    4.0700 os        1 HA0     -0.124000
     10 CA         -0.1500    1.2130   -2.5500 c3        1 HA0     -0.141000
     11 CB          3.7640   -2.9750    3.8450 c2        1 HA0     -0.139000
     12 CD         -0.3140    4.2870   -4.8730 c3        1 HA0     -0.208000
     13 CH          3.7430    0.4090    2.4690 c3        1 HA0     -0.089000
     14 C11         3.1270    0.4490    1.0640 c3        1 HA0     -0.089000
     15 C17         1.8580   -4.1410    6.0200 ca        1 HA0     -0.117000
     16 C20        -0.0880   -2.4100    7.0220 ca        1 HA0     -0.132500
     17 C21        -0.0060   -3.7190    7.4990 ca        1 HA0     -0.139000
     18 CA1        -0.2930   -0.2630   -0.3870 c3        1 HA0     -0.087000
     19 CB1        -0.2100    2.6830   -2.9660 c3        1 HA0     -0.162000
     20 CB2         1.1110    0.6000   -3.1150 c2        1 HA0      0.309000
     21 CD2         1.7820   -2.8250    5.5360 ca        1 HA0      0.014000
     22 CE3         0.7980   -1.9620    6.0460 ca        1 HA0     -0.117000
     23 CG1        -1.2610   -1.4410    1.6650 c3        1 HA0     -0.221000
     24 OG1         1.1130   -0.2760   -3.9910 o         1 HA0     -0.362000
     25 CG2        -0.8430   -2.7110   -0.9460 c1        1 HA0     -0.083000
     26 OG2         2.3410    1.0250   -2.7550 oh        1 HA0     -0.290000
     27 CG3         2.7070   -2.3790    4.5310 c2        1 HA0     -0.071000
     28 CH2        -0.2810    1.1310   -1.0380 c3        1 HA0     -0.180000
     29 O1          2.5310    2.4430   -0.2120 o         1 HA0     -0.566000
     30 CZ1         3.6320   -0.9200    3.1110 c2        1 HA0      0.061000
     31 CZ3         0.9670   -4.5810    6.9950 ca        1 HA0     -0.132500
     32 HN          2.3010    1.6330   -1.9860 ho        1 HA0      0.287000
     33 H4         -0.9450    0.6830    1.4670 hc        1 HA0      0.079000
     34 H4A        -2.2720    0.0170    0.4460 hc        1 HA0      0.079000
     35 H5         -1.8280   -1.0090   -1.7180 hc        1 HA0      0.147500
     36 H5A        -0.1300   -1.3850   -2.2680 hc        1 HA0      0.147500
     37 HA         -1.0140    0.6680   -3.0280 hc        1 HA0      0.110000
     38 HB          4.1470   -3.9920    3.9160 h4        1 HA0      0.176000
     39 HD          0.4990    2.2840   -4.9700 hc        1 HA0      0.085500
     40 HDA        -1.1530    4.8470   -4.3930 hc        1 HA0      0.069000
     41 HDB        -0.4150    4.3800   -5.9810 hc        1 HA0      0.069000
     42 HG          0.6470    4.7640   -4.5640 hc        1 HA0      0.069000
     43 HGA        -1.2970    2.3640   -4.8110 hc        1 HA0      0.085500
     44 HH          3.6490   -0.3140    0.4150 h1        1 HA0      0.138000
     45 HHA         3.2510    1.1730    3.1280 hc        1 HA0      0.129000
     46 H11         4.8290    0.6870    2.3550 hc        1 HA0      0.129000
     47 HB1         0.7170    3.2040   -2.6030 hc        1 HA0      0.097000
     48 HB1A       -1.0860    3.1700   -2.4640 hc        1 HA0      0.097000
     49 HE3         0.7360   -0.9310    5.6640 ha        1 HA0      0.142500
     50 HG1        -1.7840   -1.2360    2.6310 hc        1 HA0      0.081000
     51 HG1A       -1.8150   -2.2620    1.1460 hc        1 HA0      0.081000
     52 HG2        -0.2260   -1.7960    1.8930 hc        1 HA0      0.081000
     53 HG2A       -0.1070   -3.0320   -0.1920 ha        1 HA0      0.062000
     54 HH2        -1.2550    1.6360   -0.7830 hc        1 HA0      0.116500
     55 HH2A        0.5370    1.7640   -0.5880 hc        1 HA0      0.116500
     56 HZ3         1.0320   -5.6140    7.3670 ha        1 HA0      0.126000
     57 CG         -0.3400    2.8360   -4.4660 c3        1 HA0     -0.165000
     58 H17         2.6240   -4.8230    5.6210 ha        1 HA0      0.142500
     59 H20        -0.8560   -1.7290    7.4150 ha        1 HA0      0.126000
     60 H2          1.1720    0.9700    1.3200 hn        1 HA0      0.198000
     61 H21        -0.7090   -4.0700    8.2680 ha        1 HA0      0.123000
@<TRIPOS>BOND
     1    1    2 1   
     2    1    3 1   
     3    1   18 1   
     4    2   14 1   
     5    2   60 1   
     6    4    5 1   
     7    4   14 1   
     8    4   29 1   
     9    6   11 1   
    10    6   30 1   
    11    7   18 1   
    12    7   23 1   
    13    7   33 1   
    14    7   34 1   
    15    8   18 1   
    16    8   25 1   
    17    8   35 1   
    18    8   36 1   
    19    9   27 1   
    20    9   30 1   
    21   10   19 1   
    22   10   20 1   
    23   10   28 1   
    24   10   37 1   
    25   11   27 1   
    26   11   38 1   
    27   12   40 1   
    28   12   41 1   
    29   12   42 1   
    30   12   57 1   
    31   13   14 1   
    32   13   30 1   
    33   13   45 1   
    34   13   46 1   
    35   14   44 1   
    36   15   21 1   
    37   15   31 1   
    38   15   58 1   
    39   16   17 1   
    40   16   22 1   
    41   16   59 1   
    42   17   31 1   
    43   17   61 1   
    44   18   28 1   
    45   19   47 1   
    46   19   48 1   
    47   19   57 1   
    48   20   24 1   
    49   20   26 1   
    50   21   22 1   
    51   21   27 1   
    52   22   49 1   
    53   23   50 1   
    54   23   51 1   
    55   23   52 1   
    56   25   53 1   
    57   26   32 1   
    58   28   54 1   
    59   28   55 1   
    60   31   56 1   
    61   39   57 1   
    62   43   57 1   
@<TRIPOS>SUBSTRUCTURE
     1 HA0         1 TEMP              0 ****  ****    0 ROOT
