@<TRIPOS>MOLECULE
HA0
   61    63     1     0     0
SMALL
bcc


@<TRIPOS>ATOM
      1 C           1.2570   -0.5990    0.1140 c         1 HA0      0.643100
      2 N           1.7960    0.1990    1.1250 ns        1 HA0     -0.503900
      3 O           1.8900   -1.5600   -0.3620 o         1 HA0     -0.588100
      4 C1          3.4860    1.9440    0.4550 c         1 HA0      0.906600
      5 OXT         4.5910    2.4850    0.6960 o         1 HA0     -0.831800
      6 N3          4.4940   -1.8700    3.1120 nc        1 HA0     -0.687000
      7 C4         -1.1440   -0.4480    0.8720 c3        1 HA0     -0.072400
      8 C5         -0.6700   -1.3810   -1.3130 c3        1 HA0     -0.072400
      9 O6          2.6640   -0.9190    4.0770 os        1 HA0     -0.379800
     10 CA         -0.1190    1.2610   -2.4280 c3        1 HA0     -0.146700
     11 CB          3.9110   -2.7920    3.9850 cc        1 HA0      0.260900
     12 CD          0.0910    4.4730   -4.5520 c3        1 HA0     -0.089100
     13 CH          3.8300    0.5440    2.4960 c3        1 HA0     -0.104700
     14 C11         3.2100    0.5340    1.0920 c3        1 HA0     -0.060300
     15 C17         1.9430   -3.9630    6.1020 ca        1 HA0     -0.117500
     16 C20        -0.1740   -2.3160    6.8710 ca        1 HA0     -0.132500
     17 C21        -0.0490   -3.5930    7.4210 ca        1 HA0     -0.140000
     18 CA1        -0.1910   -0.2990   -0.3330 c3        1 HA0     -0.123000
     19 CB1        -0.0050    2.7500   -2.7520 c3        1 HA0     -0.088400
     20 CB2         1.0530    0.5330   -3.0430 c         1 HA0      0.643100
     21 CD2         1.8230   -2.6780    5.5460 ca        1 HA0     -0.091500
     22 CE3         0.7530   -1.8580    5.9390 ca        1 HA0     -0.117500
     23 CG1        -1.6540   -1.8840    0.8680 c3        1 HA0     -0.078400
     24 OG1         0.9500   -0.2930   -3.9600 o         1 HA0     -0.554000
     25 CG2        -1.2640   -2.5000   -0.4690 c3        1 HA0     -0.078400
     26 OG2         2.3260    0.8000   -2.6810 oh        1 HA0     -0.585100
     27 CG3         2.7890   -2.2230    4.5870 cd        1 HA0      0.164900
     28 CH2        -0.2560    1.1100   -0.9190 c3        1 HA0     -0.092400
     29 O1          2.5770    2.4580   -0.2690 o         1 HA0     -0.831800
     30 CZ1         3.7370   -0.7680    3.1760 cd        1 HA0      0.550700
     31 CZ3         1.0110   -4.4130    7.0330 ca        1 HA0     -0.132500
     32 HN          2.3570    1.4040   -1.9080 ho        1 HA0      0.485000
     33 H4         -0.6470   -0.2070    1.8420 hc        1 HA0      0.053700
     34 H4A        -2.0080    0.2570    0.7590 hc        1 HA0      0.053700
     35 H5         -1.4570   -0.9580   -1.9860 hc        1 HA0      0.053700
     36 H5A         0.1750   -1.7460   -1.9510 hc        1 HA0      0.053700
     37 HA         -1.0440    0.8520   -2.9260 hc        1 HA0      0.066700
     38 HB          4.3310   -3.7880    4.1130 h4        1 HA0      0.038100
     39 HD          0.6830    2.4040   -4.7720 hc        1 HA0      0.043200
     40 HDA         1.0930    4.8220   -4.2010 hc        1 HA0      0.029367
     41 HDB         0.0210    4.6470   -5.6530 hc        1 HA0      0.029367
     42 HG         -0.6910    5.0900   -4.0460 hc        1 HA0      0.029367
     43 HGA        -1.0970    2.6690   -4.6210 hc        1 HA0      0.043200
     44 HH          3.7500   -0.2310    0.4610 h1        1 HA0      0.096700
     45 HHA         4.9110    0.8340    2.3740 hc        1 HA0      0.089200
     46 H11         3.3280    1.3190    3.1330 hc        1 HA0      0.089200
     47 HB1         0.9710    3.1390   -2.3480 hc        1 HA0      0.063200
     48 HB1A       -0.8270    3.3000   -2.2230 hc        1 HA0      0.063200
     49 HE3         0.6550   -0.8530    5.4990 ha        1 HA0      0.142500
     50 HG1        -1.1990   -2.4630    1.7110 hc        1 HA0      0.037700
     51 HG1A       -2.7630   -1.9040    1.0100 hc        1 HA0      0.037700
     52 HG2        -0.5020   -3.3060   -0.3170 hc        1 HA0      0.037700
     53 HG2A       -2.1470   -2.9570   -0.9790 hc        1 HA0      0.037700
     54 HH2        -1.2530    1.5590   -0.6520 hc        1 HA0      0.073200
     55 HH2A        0.5290    1.7700   -0.4480 hc        1 HA0      0.073200
     56 HZ3         1.1110   -5.4200    7.4620 ha        1 HA0      0.125500
     57 CG         -0.0980    3.0110   -4.2400 c3        1 HA0     -0.085400
     58 H17         2.7770   -4.6120    5.7950 ha        1 HA0      0.142500
     59 H20        -1.0100   -1.6690    7.1730 ha        1 HA0      0.125500
     60 H2          1.2410    1.0040    1.3430 hn        1 HA0      0.281500
     61 H21        -0.7830   -3.9520    8.1550 ha        1 HA0      0.122000
@<TRIPOS>BOND
     1    1    2 1   
     2    1    3 2   
     3    1   18 1   
     4    2   14 1   
     5    2   60 1   
     6    4    5 1   
     7    4   14 1   
     8    4   29 1   
     9    6   11 1   
    10    6   30 2   
    11    7   18 1   
    12    7   23 1   
    13    7   33 1   
    14    7   34 1   
    15    8   18 1   
    16    8   25 1   
    17    8   35 1   
    18    8   36 1   
    19    9   27 1   
    20    9   30 1   
    21   10   19 1   
    22   10   20 1   
    23   10   28 1   
    24   10   37 1   
    25   11   27 2   
    26   11   38 1   
    27   12   40 1   
    28   12   41 1   
    29   12   42 1   
    30   12   57 1   
    31   13   14 1   
    32   13   30 1   
    33   13   45 1   
    34   13   46 1   
    35   14   44 1   
    36   15   21 ar  
    37   15   31 ar  
    38   15   58 1   
    39   16   17 ar  
    40   16   22 ar  
    41   16   59 1   
    42   17   31 ar  
    43   17   61 1   
    44   18   28 1   
    45   19   47 1   
    46   19   48 1   
    47   19   57 1   
    48   20   24 2   
    49   20   26 1   
    50   21   22 ar  
    51   21   27 1   
    52   22   49 1   
    53   23   25 1   
    54   23   50 1   
    55   23   51 1   
    56   25   52 1   
    57   25   53 1   
    58   26   32 1   
    59   28   54 1   
    60   28   55 1   
    61   31   56 1   
    62   39   57 1   
    63   43   57 1   
@<TRIPOS>SUBSTRUCTURE
     1 HA0         1 TEMP              0 ****  ****    0 ROOT
