@<TRIPOS>MOLECULE
HA0
   60    55     1     0     0
SMALL
bcc


@<TRIPOS>ATOM
      1 C          -0.6390    0.7450    1.7390 c1        1 HA0      0.296000
      2 N           0.0220    1.3290    0.6270 n3        1 HA0     -0.345000
      3 O          -0.0020    0.1280    2.5700 o         1 HA0     -0.417000
      4 C1          1.6370   -0.4310    0.4460 c1        1 HA0      0.329000
      5 OXT         2.3340   -0.9280    1.3690 os        1 HA0     -0.553000
      6 N3          3.3040   -0.5460   -1.3950 n2        1 HA0     -0.165000
      7 C4         -2.3940    0.8870    3.2280 c3        1 HA0     -0.152000
      8 C5         -2.5140    2.4440    1.4490 c3        1 HA0     -0.152000
      9 O6          3.7230    1.3380   -2.4530 os        1 HA0     -0.111000
     10 CA         -3.0950   -1.3460    1.9430 c3        1 HA0     -0.172000
     11 CB          4.3280   -0.7620   -2.2380 c1        1 HA0     -0.136000
     12 CD         -6.0510   -3.7020    1.5150 c3        1 HA0     -0.201000
     13 CG         -4.8990   -3.0120    2.2110 c3        1 HA0     -0.168000
     14 CH          1.7970    1.5930   -0.9590 c3        1 HA0     -0.120000
     15 C11         1.3990    1.0620    0.3990 c3        1 HA0     -0.044000
     16 C17         5.2770    0.8500   -5.1550 c1        1 HA0     -0.103000
     17 C20         6.2800    0.9420   -6.1070 c1        1 HA0     -0.140000
     18 C21         7.5880    0.6370   -5.7680 c1        1 HA0     -0.140000
     19 CA1        -2.0790    0.9090    1.8990 c2        1 HA0     -0.053000
     20 CB1        -4.1680   -2.1310    1.2220 c3        1 HA0     -0.132000
     21 CB2        -1.9470   -2.2660    2.2940 c2        1 HA0      0.331000
     22 CD2         5.5830    0.4530   -3.8630 c1        1 HA0      0.031000
     23 CE3         6.8920    0.1480   -3.5230 c1        1 HA0     -0.140000
     24 CG1        -3.5580    1.9360    3.4160 c3        1 HA0     -0.161000
     25 OG1        -1.3720   -2.9280    1.3910 o         1 HA0     -0.589500
     26 CG2        -3.6200    2.7500    2.1220 c3        1 HA0     -0.161000
     27 OG2        -1.5830   -2.3890    3.4930 o         1 HA0     -0.589500
     28 CG3         4.5890    0.4120   -2.8970 c1        1 HA0     -0.086000
     29 CH2        -2.5950   -0.2340    1.0470 c3        1 HA0     -0.134000
     30 O1          1.1500   -1.1750   -0.4450 o         1 HA0     -0.577000
     31 CZ1         2.9220    0.7510   -1.5210 c2        1 HA0      0.098000
     32 CZ3         7.8940    0.2400   -4.4760 c1        1 HA0     -0.140000
     33 HN         -0.4310    1.8920    0.0720 hn        1 HA0      0.239000
     34 H4         -1.6170    1.1460    3.7640 hc        1 HA0      0.092250
     35 H4A        -2.7000   -0.0050    3.4860 hc        1 HA0      0.092250
     36 H5         -2.6900    2.4720    0.4850 hc        1 HA0      0.092250
     37 H5A        -1.7990    3.0740    1.6760 hc        1 HA0      0.092250
     38 HA         -3.4660   -0.9640    2.7590 hc        1 HA0      0.079000
     39 HB          4.8070   -1.6040   -2.3550 DU        1 HA0      0.165000
     40 HD         -6.6280   -3.0310    1.0940 hc        1 HA0      0.052333
     41 HDA        -6.5700   -4.2140    2.1710 hc        1 HA0      0.052333
     42 HDB        -5.7030   -4.3090    0.8290 hc        1 HA0      0.052333
     43 HG         -5.2420   -2.4640    2.9450 hc        1 HA0      0.091000
     44 HGA        -4.2840   -3.6840    2.5660 hc        1 HA0      0.091000
     45 HH          2.0960    2.5210   -0.8720 hc        1 HA0      0.118000
     46 HHA         1.0280    1.5550   -1.5630 hc        1 HA0      0.118000
     47 H11         1.9340    1.4990    1.0900 h1        1 HA0      0.110000
     48 H17         4.3550    1.0650   -5.3940 ha        1 HA0      0.169000
     49 H20         6.0640    1.2220   -7.0180 ha        1 HA0      0.119750
     50 H21         8.2940    0.7020   -6.4390 ha        1 HA0      0.119750
     51 HB1        -3.7550   -2.6880    0.5320 hc        1 HA0      0.065500
     52 HB1A       -4.8010   -1.5120    0.8060 hc        1 HA0      0.065500
     53 HE3         7.1070   -0.1310   -2.6130 ha        1 HA0      0.119750
     54 HG1        -4.4080    1.4720    3.5620 hc        1 HA0      0.076000
     55 HG1A       -3.3620    2.5230    4.1740 hc        1 HA0      0.076000
     56 HG2        -3.6370    3.7080    2.3260 hc        1 HA0      0.076000
     57 HG2A       -4.4120    2.5000    1.6030 hc        1 HA0      0.076000
     58 HH2        -1.8720   -0.5710    0.4810 hc        1 HA0      0.089000
     59 HH2A       -3.3280    0.0850    0.4830 hc        1 HA0      0.089000
     60 HZ3         8.8180    0.0380   -4.2330 ha        1 HA0      0.119750
@<TRIPOS>BOND
     1    1    2 1   
     2    1    3 1   
     3    2   15 1   
     4    2   33 1   
     5    4   15 1   
     6    4   30 1   
     7    6   11 1   
     8    6   31 1   
     9    7   19 1   
    10    7   24 1   
    11    7   34 1   
    12    7   35 1   
    13    8   19 1   
    14    8   26 1   
    15    8   36 1   
    16    8   37 1   
    17    9   28 1   
    18    9   31 1   
    19   10   20 1   
    20   10   21 1   
    21   10   29 1   
    22   10   38 1   
    23   11   28 1   
    24   12   13 1   
    25   12   40 1   
    26   12   41 1   
    27   12   42 1   
    28   13   20 1   
    29   13   43 1   
    30   13   44 1   
    31   14   15 1   
    32   14   31 1   
    33   14   45 1   
    34   14   46 1   
    35   15   47 1   
    36   16   22 1   
    37   16   48 1   
    38   17   18 1   
    39   17   49 1   
    40   18   50 1   
    41   19   29 1   
    42   20   51 1   
    43   20   52 1   
    44   21   25 1   
    45   21   27 1   
    46   23   32 1   
    47   23   53 1   
    48   24   26 1   
    49   24   54 1   
    50   24   55 1   
    51   26   56 1   
    52   26   57 1   
    53   29   58 1   
    54   29   59 1   
    55   32   60 1   
@<TRIPOS>SUBSTRUCTURE
     1 HA0         1 TEMP              0 ****  ****    0 ROOT
