@<TRIPOS>MOLECULE
HA0
   60    62     1     0     0
SMALL
bcc


@<TRIPOS>ATOM
      1 C           0.4210    0.8720    0.4970 c         1 HA0      0.655100
      2 N           0.4860    1.5920   -0.6770 n         1 HA0     -0.540900
      3 O          -0.1690    1.3300    1.5010 o         1 HA0     -0.650100
      4 C1          1.0250    3.8270   -1.6980 c         1 HA0      0.910600
      5 OXT         0.9340    5.0760   -1.5590 o         1 HA0     -0.829800
      6 N3         -3.4080    3.2210    0.0000 nc        1 HA0     -0.708000
      7 C4          0.5880   -1.3300   -0.7340 c3        1 HA0     -0.085900
      8 C5          0.5780   -1.3380    1.7280 c3        1 HA0     -0.085900
      9 O6         -2.6910    1.2060   -0.7760 os        1 HA0     -0.363800
     10 CA          3.3470   -1.6830    0.5120 c3        1 HA0     -0.185700
     11 CB         -4.2770    2.2270    0.4540 cc        1 HA0      0.251900
     12 CD          6.0400   -3.0470   -1.8760 c3        1 HA0     -0.083100
     13 CH         -1.3180    3.1100   -1.4990 c3        1 HA0     -0.121700
     14 C11         0.0510    2.9590   -0.8060 c3        1 HA0     -0.031300
     15 C17        -5.6410   -0.6030    0.5540 ca        1 HA0     -0.115000
     16 C20        -6.0970   -1.9080    0.7160 ca        1 HA0     -0.137000
     17 C21        -5.2470   -2.9860    0.4690 ca        1 HA0     -0.146000
     18 CA1         1.0510   -0.5370    0.5020 c3        1 HA0     -0.103000
     19 CB1         4.3630   -1.6850   -0.6170 c3        1 HA0     -0.055400
     20 CB2         4.0500   -1.9400    1.8700 c         1 HA0      0.910600
     21 CD2        -4.3210   -0.3630    0.1390 ca        1 HA0     -0.089500
     22 CE3        -3.4680   -1.4520   -0.1060 ca        1 HA0     -0.115000
     23 CG1         0.0480   -2.6700   -0.2520 c3        1 HA0     -0.075400
     24 OG1         5.1630   -1.3920    2.1060 o         1 HA0     -0.853300
     25 CG2        -0.2480   -2.5140    1.2310 c3        1 HA0     -0.075400
     26 OG2         3.4740   -2.7210    2.6860 o         1 HA0     -0.853300
     27 CG3        -3.8510    0.9860   -0.0160 cd        1 HA0      0.165900
     28 CH2         2.5750   -0.3680    0.5380 c3        1 HA0     -0.051400
     29 O1          1.7860    3.2380   -2.5110 o         1 HA0     -0.829800
     30 CZ1        -2.4700    2.5950   -0.7260 cd        1 HA0      0.560700
     31 CZ3        -3.9330   -2.7540    0.0610 ca        1 HA0     -0.137000
     32 HN          1.1350    1.3010   -1.3780 hn        1 HA0      0.325500
     33 H4         -0.2250   -0.7910   -1.2850 hc        1 HA0      0.066200
     34 H4A         1.4410   -1.4730   -1.4430 hc        1 HA0      0.066200
     35 H5          1.4740   -1.7180    2.2970 hc        1 HA0      0.066200
     36 H5A        -0.0210   -0.6960    2.4210 hc        1 HA0      0.066200
     37 HA          2.6300   -2.5360    0.3530 hc        1 HA0      0.038700
     38 HB         -5.1270    2.4660    1.0890 h4        1 HA0      0.028100
     39 HD          5.5840   -2.7640   -2.8560 hc        1 HA0      0.013367
     40 HDA         6.8510   -2.3150   -1.6440 hc        1 HA0      0.013367
     41 HDB         6.5000   -4.0600   -1.9830 hc        1 HA0      0.013367
     42 HG          4.2140   -3.8110   -1.0140 hc        1 HA0      0.044200
     43 HGA         5.4740   -3.3370    0.1960 hc        1 HA0      0.044200
     44 HH         -1.4640    4.2120   -1.6760 hc        1 HA0      0.080700
     45 HHA        -1.2970    2.5820   -2.4900 hc        1 HA0      0.080700
     46 H11        -0.0110    3.4320    0.2150 h1        1 HA0      0.078700
     47 H21        -5.6080   -4.0140    0.6030 ha        1 HA0      0.115000
     48 HB1         3.8710   -1.3840   -1.5800 hc        1 HA0      0.031700
     49 HB1A        5.1580   -0.9290   -0.3810 hc        1 HA0      0.031700
     50 HE3        -2.4230   -1.2640   -0.4130 ha        1 HA0      0.150000
     51 HG1        -0.8730   -2.9590   -0.8190 hc        1 HA0      0.024200
     52 HG1A        0.8070   -3.4770   -0.4120 hc        1 HA0      0.024200
     53 HG2         0.0140   -3.4450    1.7920 hc        1 HA0      0.024200
     54 HG2A       -1.3420   -2.3220    1.3840 hc        1 HA0      0.024200
     55 HH2         2.8410    0.1940    1.4730 hc        1 HA0      0.049200
     56 HH2A        2.8880    0.2700   -0.3310 hc        1 HA0      0.049200
     57 HZ3        -3.2500   -3.5970   -0.1190 ha        1 HA0      0.123500
     58 CG          5.0030   -3.0480   -0.7830 c3        1 HA0     -0.082400
     59 H17        -6.3090    0.2470    0.7530 ha        1 HA0      0.150000
     60 H20        -7.1310   -2.0880    1.0420 ha        1 HA0      0.123500
@<TRIPOS>BOND
     1    1    2 1   
     2    1    3 2   
     3    1   18 1   
     4    2   14 1   
     5    2   32 1   
     6    4    5 1   
     7    4   14 1   
     8    4   29 1   
     9    6   11 1   
    10    6   30 2   
    11    7   18 1   
    12    7   23 1   
    13    7   33 1   
    14    7   34 1   
    15    8   18 1   
    16    8   25 1   
    17    8   35 1   
    18    8   36 1   
    19    9   27 1   
    20    9   30 1   
    21   10   19 1   
    22   10   20 1   
    23   10   28 1   
    24   10   37 1   
    25   11   27 2   
    26   11   38 1   
    27   12   39 1   
    28   12   40 1   
    29   12   41 1   
    30   12   58 1   
    31   13   14 1   
    32   13   30 1   
    33   13   44 1   
    34   13   45 1   
    35   14   46 1   
    36   15   16 ar  
    37   15   21 ar  
    38   15   59 1   
    39   16   17 ar  
    40   16   60 1   
    41   17   31 ar  
    42   17   47 1   
    43   18   28 1   
    44   19   48 1   
    45   19   49 1   
    46   19   58 1   
    47   20   24 1   
    48   20   26 1   
    49   21   22 ar  
    50   21   27 1   
    51   22   31 ar  
    52   22   50 1   
    53   23   25 1   
    54   23   51 1   
    55   23   52 1   
    56   25   53 1   
    57   25   54 1   
    58   28   55 1   
    59   28   56 1   
    60   31   57 1   
    61   42   58 1   
    62   43   58 1   
@<TRIPOS>SUBSTRUCTURE
     1 HA0         1 TEMP              0 ****  ****    0 ROOT
