@<TRIPOS>MOLECULE
HA1
   34    31     1     0     0
SMALL
bcc


@<TRIPOS>ATOM
      1 N9          0.2860   -0.4070    1.3900 n2        1 HA1     -0.103500
      2 C8          1.4430   -1.1070    1.4900 c1        1 HA1     -0.072000
      3 N7          2.0040   -0.8230    2.6930 n2        1 HA1     -0.103500
      4 C5          1.1960    0.0500    3.3360 c1        1 HA1     -0.107000
      5 C6          1.2850    0.6990    4.6940 c1        1 HA1      0.395000
      6 O6          2.2510    0.4940    5.4030 o         1 HA1     -0.359000
      7 N1          0.2830    1.5790    5.1150 n3        1 HA1     -0.342000
      8 C2         -0.8200    1.8620    4.2610 c2        1 HA1      0.175000
      9 N2         -1.8440    2.7420    4.6940 n3        1 HA1     -0.310000
     10 N3         -0.9050    1.2410    2.9620 n1        1 HA1     -0.201000
     11 C4          0.1300    0.3090    2.5280 c1        1 HA1     -0.107000
     12 C10        -0.6560   -0.1770    0.3490 c2        1 HA1     -0.033000
     13 C11        -0.3690   -1.1130   -0.8050 c3        1 HA1     -0.172000
     14 C12        -0.7860   -0.4560   -2.1030 c3        1 HA1     -0.147000
     15 C13        -0.1400   -1.1790   -3.2650 c3        1 HA1     -0.238000
     16 C14        -0.2290   -0.3190   -4.5060 c3        1 HA1     -0.289000
     17 F15        -1.4560   -0.4220   -5.0340 f         1 HA1     -0.219000
     18 F16         0.0120    0.9590   -4.1830 f         1 HA1     -0.219000
     19 P           1.0010   -0.8780   -5.7200 p5        1 HA1      1.591500
     20 O2P         2.3550   -0.9690   -5.0590 o         1 HA1     -0.928500
     21 O1P         1.0630    0.1060   -6.8630 o         1 HA1     -0.928500
     22 O3P         0.6060   -2.2370   -6.2470 o         1 HA1     -0.928500
     23 H8          1.8100   -1.7080    0.8140 DU        1 HA1      0.224000
     24 HN1         0.3270    1.9580    5.9440 hn        1 HA1      0.239000
     25 HN21       -2.5400    2.9430    4.1360 hn        1 HA1      0.188500
     26 HN22       -1.8160    3.0980    5.5350 hn        1 HA1      0.188500
     27 H101       -0.5840    0.7500    0.0430 ha        1 HA1      0.103500
     28 H102       -1.5610   -0.3410    0.6850 ha        1 HA1      0.103500
     29 H111       -0.8720   -1.9430   -0.6840 hc        1 HA1      0.091000
     30 H112        0.5880   -1.3130   -0.8330 hc        1 HA1      0.091000
     31 H121       -0.4990    0.4800   -2.1010 hc        1 HA1      0.067000
     32 H122       -1.7590   -0.4990   -2.1920 hc        1 HA1      0.067000
     33 H131       -0.6040   -2.0250   -3.4200 hc        1 HA1      0.141000
     34 H132        0.8000   -1.3550   -3.0570 hc        1 HA1      0.141000
@<TRIPOS>BOND
     1    1    2 1   
     2    1   11 1   
     3    2    3 1   
     4    3    4 1   
     5    4   11 1   
     6    5    6 1   
     7    5    7 1   
     8    7    8 1   
     9    7   24 1   
    10    8    9 1   
    11    8   10 1   
    12    9   25 1   
    13    9   26 1   
    14   12   13 1   
    15   12   27 1   
    16   12   28 1   
    17   13   14 1   
    18   13   29 1   
    19   13   30 1   
    20   14   15 1   
    21   14   31 1   
    22   14   32 1   
    23   15   16 1   
    24   15   33 1   
    25   15   34 1   
    26   16   17 1   
    27   16   18 1   
    28   16   19 1   
    29   19   20 1   
    30   19   21 1   
    31   19   22 1   
@<TRIPOS>SUBSTRUCTURE
     1 HA1         1 TEMP              0 ****  ****    0 ROOT
