@<TRIPOS>MOLECULE
HA1
   35    36     1     0     0
SMALL
bcc


@<TRIPOS>ATOM
      1 N9          0.0000    0.0000    0.0000 na        1 HA1      0.281100
      2 C8          1.3650    0.0000    0.0000 cc        1 HA1      0.213400
      3 N7          1.8050    0.0000    1.2240 nd        1 HA1     -0.520000
      4 C5          0.7540    0.0000    2.0790 cd        1 HA1      0.133800
      5 C6          0.6310   -0.0010    3.4890 c         1 HA1      0.565000
      6 O6          1.6190   -0.0020    4.2020 o         1 HA1     -0.688500
      7 N1         -0.6090    0.0050    4.0230 ns        1 HA1     -0.009400
      8 C2         -1.7070   -0.0000    3.2160 cd        1 HA1     -0.220200
      9 N2         -2.9550    0.0000    3.7890 nz        1 HA1      0.298400
     10 N3         -1.6060    0.0000    1.9060 nc        1 HA1     -0.487100
     11 C4         -0.4120    0.0000    1.3050 cc        1 HA1     -0.125200
     12 C10        -0.8670    0.0020   -1.1810 c3        1 HA1     -0.045700
     13 C11        -1.1700   -1.4410   -1.5930 c3        1 HA1     -0.044400
     14 C12        -2.0740   -1.4380   -2.8260 c3        1 HA1     -0.037400
     15 C13        -2.3770   -2.8800   -3.2390 c3        1 HA1     -0.064400
     16 C14        -3.2820   -2.8790   -4.4720 c3        1 HA1      0.338400
     17 F15        -4.4780   -2.2180   -4.1720 f         1 HA1     -0.240300
     18 F16        -2.6370   -2.2190   -5.5240 f         1 HA1     -0.240300
     19 P          -3.6420   -4.5950   -4.9640 p5        1 HA1      0.547700
     20 O2P        -2.2660   -5.3560   -5.3090 o         1 HA1     -0.513167
     21 O1P        -4.3860   -5.3550   -3.7540 o         1 HA1     -0.513167
     22 O3P        -4.5180   -4.5950   -6.1570 o         1 HA1     -0.513167
     23 H8          1.9880    0.0010   -0.8860 h5        1 HA1      0.025100
     24 HN1        -0.7220    0.0140    5.0180 hn        1 HA1      0.148500
     25 HN21       -3.0910   -0.8540    4.2930 hn        1 HA1      0.154467
     26 HN22       -3.0330    0.7750    4.4180 hn        1 HA1      0.154467
     27 H101       -1.7930    0.5140   -0.9490 h1        1 HA1      0.034700
     28 H102       -0.3670    0.5130   -1.9950 h1        1 HA1      0.034700
     29 H111       -0.2440   -1.9520   -1.8260 hc        1 HA1      0.024700
     30 H112       -1.6700   -1.9510   -0.7800 hc        1 HA1      0.024700
     31 H121       -3.0010   -0.9270   -2.5940 hc        1 HA1      0.018700
     32 H122       -1.5740   -0.9260   -3.6400 hc        1 HA1      0.018700
     33 H131       -2.8770   -3.3910   -2.4250 hc        1 HA1      0.045700
     34 H132       -1.4510   -3.3910   -3.4720 hc        1 HA1      0.045700
     35 H23        -3.6500    0.0800    3.0740 hn        1 HA1      0.154467
@<TRIPOS>BOND
     1    1    2 1   
     2    1   11 1   
     3    1   12 1   
     4    2    3 2   
     5    2   23 1   
     6    3    4 1   
     7    4    5 1   
     8    4   11 2   
     9    5    6 2   
    10    5    7 1   
    11    7    8 1   
    12    7   24 1   
    13    8    9 1   
    14    8   10 2   
    15    9   25 1   
    16    9   26 1   
    17    9   35 1   
    18   10   11 1   
    19   12   13 1   
    20   12   27 1   
    21   12   28 1   
    22   13   14 1   
    23   13   29 1   
    24   13   30 1   
    25   14   15 1   
    26   14   31 1   
    27   14   32 1   
    28   15   16 1   
    29   15   33 1   
    30   15   34 1   
    31   16   17 1   
    32   16   18 1   
    33   16   19 1   
    34   19   20 1   
    35   19   21 1   
    36   19   22 1   
@<TRIPOS>SUBSTRUCTURE
     1 HA1         1 TEMP              0 ****  ****    0 ROOT
