@<TRIPOS>MOLECULE
HA1
   34    35     1     0     0
SMALL
bcc


@<TRIPOS>ATOM
      1 N9         -1.4210    0.7020   -2.4950 na        1 HA1     -0.166900
      2 C8         -2.5630    0.3580   -3.2520 cc        1 HA1      0.389400
      3 N7         -2.2720   -0.1420   -4.4710 nd        1 HA1     -0.616000
      4 C5         -0.8800   -0.1550   -4.5260 cd        1 HA1      0.169800
      5 C6          0.0250   -0.6050   -5.5620 c         1 HA1      0.651000
      6 O6         -0.2520   -1.0580   -6.6870 o         1 HA1     -0.642500
      7 N1          1.3970   -0.5050   -5.2190 n         1 HA1     -0.504400
      8 C2          1.8390    0.0400   -3.9920 cd        1 HA1      0.637800
      9 N2          3.2530    0.1770   -3.8270 nh        1 HA1     -0.871800
     10 N3          1.0220    0.4770   -3.0150 nc        1 HA1     -0.617100
     11 C4         -0.3290    0.3640   -3.2930 cc        1 HA1      0.099800
     12 C10        -1.3870    1.1920   -1.1390 c3        1 HA1      0.032300
     13 C11        -0.8820    0.1980   -0.0950 c3        1 HA1     -0.094400
     14 C12        -0.8400    0.8670    1.2640 c3        1 HA1     -0.068400
     15 C13        -0.1550   -0.0120    2.2820 c3        1 HA1     -0.156400
     16 C14         0.0190    0.6180    3.6600 c3        1 HA1      0.260400
     17 F15         0.7020    1.8090    3.6500 f         1 HA1     -0.290300
     18 F16        -1.1610    0.9470    4.2800 f         1 HA1     -0.290300
     19 P           0.9450   -0.7020    4.5820 p5        1 HA1      1.183700
     20 O2P        -0.0210   -1.8550    4.4630 o         1 HA1     -0.929167
     21 O1P         1.1670   -0.1600    5.9640 o         1 HA1     -0.929167
     22 O3P         2.1740   -0.8390    3.7150 o         1 HA1     -0.929167
     23 H8         -3.5720    0.5010   -2.8500 h5        1 HA1      0.062100
     24 HN1         2.0620   -0.7820   -5.9040 hn        1 HA1      0.326500
     25 HN21        3.4900    0.5970   -2.9470 hn        1 HA1      0.404300
     26 HN22        3.7290   -0.6940   -3.9500 hn        1 HA1      0.404300
     27 H101       -0.7180    2.1020   -1.1260 h1        1 HA1      0.059700
     28 H102       -2.4340    1.5130   -0.8740 h1        1 HA1      0.059700
     29 H111       -1.5500   -0.7010   -0.0550 hc        1 HA1      0.057200
     30 H112        0.1480   -0.1560   -0.3650 hc        1 HA1      0.057200
     31 H121       -0.2860    1.8400    1.1940 hc        1 HA1      0.024700
     32 H122       -1.8820    1.0990    1.6070 hc        1 HA1      0.024700
     33 H131       -0.7180   -0.9670    2.4610 hc        1 HA1      0.100200
     34 H132        0.8860   -0.2880    1.9550 hc        1 HA1      0.100200
@<TRIPOS>BOND
     1    1    2 1   
     2    1   11 1   
     3    1   12 1   
     4    2    3 2   
     5    2   23 1   
     6    3    4 1   
     7    4    5 1   
     8    4   11 2   
     9    5    6 2   
    10    5    7 1   
    11    7    8 1   
    12    7   24 1   
    13    8    9 1   
    14    8   10 2   
    15    9   25 1   
    16    9   26 1   
    17   10   11 1   
    18   12   13 1   
    19   12   27 1   
    20   12   28 1   
    21   13   14 1   
    22   13   29 1   
    23   13   30 1   
    24   14   15 1   
    25   14   31 1   
    26   14   32 1   
    27   15   16 1   
    28   15   33 1   
    29   15   34 1   
    30   16   17 1   
    31   16   18 1   
    32   16   19 1   
    33   19   20 1   
    34   19   21 1   
    35   19   22 1   
@<TRIPOS>SUBSTRUCTURE
     1 HA1         1 TEMP              0 ****  ****    0 ROOT
