@<TRIPOS>MOLECULE
HA2
   56    57     1     0     0
SMALL
bcc


@<TRIPOS>ATOM
      1 C3         -0.8840   -0.5360    0.4320 ca        1 HA2     -0.110500
      2 C2          0.4970   -0.6150    0.6040 ca        1 HA2     -0.134000
      3 C1          1.1180    0.1170    1.6160 ca        1 HA2     -0.130000
      4 C6          0.3560    0.9340    2.4520 ca        1 HA2     -0.134000
      5 C5         -1.0250    1.0170    2.2800 ca        1 HA2     -0.110500
      6 C4         -1.6530    0.2770    1.2730 ca        1 HA2     -0.115300
      7 C7         -3.1380    0.3280    1.1150 c3        1 HA2      0.174700
      8 O1         -3.5400    0.4680   -0.2470 os        1 HA2     -0.341900
      9 C8         -3.6650    1.7710   -0.7160 ca        1 HA2      0.093100
     10 C13        -4.4600    1.9160   -1.8640 ca        1 HA2     -0.181000
     11 C12        -4.6260    3.1830   -2.4140 ca        1 HA2     -0.103000
     12 C9         -3.0430    2.8800   -0.1310 ca        1 HA2     -0.181000
     13 C10        -3.2290    4.1430   -0.6870 ca        1 HA2     -0.103000
     14 C11        -4.0220    4.3040   -1.8320 ca        1 HA2     -0.096300
     15 C14        -4.2210    5.6600   -2.4100 c3        1 HA2     -0.093100
     16 C15        -3.0950    6.0120   -3.4020 c3        1 HA2      0.159500
     17 N2         -1.8740    6.5170   -2.8030 n3        1 HA2     -0.906800
     18 C16        -3.6370    6.9420   -4.5130 c3        1 HA2      0.043000
     19 N3         -4.0810    8.2940   -4.1670 n         1 HA2     -0.294300
     20 O2         -3.1750    9.0150   -3.4940 oh        1 HA2     -0.421100
     21 C17        -5.4000    8.4360   -3.6310 c         1 HA2      0.652100
     22 O3         -6.2980    7.6870   -4.0590 o         1 HA2     -0.598100
     23 C18        -5.7130    9.5650   -2.6710 c3        1 HA2     -0.141400
     24 C19        -5.8010    9.0430   -1.2470 c3        1 HA2     -0.072400
     25 C20        -4.4440    8.9920   -0.5740 c3        1 HA2     -0.079400
     26 C21        -4.4490    8.1460    0.6760 c3        1 HA2     -0.195400
     27 C22        -3.0680    7.5330    0.9530 c         1 HA2      0.911600
     28 O5         -2.6720    7.4620    2.1480 o         1 HA2     -0.857800
     29 O4         -2.3950    7.0890   -0.0300 o         1 HA2     -0.857800
     30 H3         -1.3820   -1.0950   -0.3750 ha        1 HA2      0.140000
     31 H2          1.0970   -1.2480   -0.0640 ha        1 HA2      0.128000
     32 H1          2.2080    0.0590    1.7480 ha        1 HA2      0.123000
     33 H6          0.8450    1.5260    3.2390 ha        1 HA2      0.128000
     34 H5         -1.6190    1.6790    2.9290 ha        1 HA2      0.140000
     35 H7C1       -3.5880    1.1360    1.7500 h1        1 HA2      0.058200
     36 H7C2       -3.5790   -0.6670    1.4070 h1        1 HA2      0.058200
     37 H13        -4.9360    1.0350   -2.3120 ha        1 HA2      0.134500
     38 H9         -2.4040    2.7640    0.7560 ha        1 HA2      0.134500
     39 H12        -5.2490    3.3050   -3.3120 ha        1 HA2      0.169500
     40 H10        -2.7590    5.0370   -0.2180 ha        1 HA2      0.169500
     41 H141       -5.2110    5.7090   -2.9370 hc        1 HA2      0.074700
     42 H142       -4.2340    6.4200   -1.5750 hc        1 HA2      0.074700
     43 H15        -2.8130    5.0560   -3.9460 h1        1 HA2      0.045700
     44 H2N1       -2.0540    7.3850   -2.3240 hn        1 HA2      0.374800
     45 H2N2       -1.5660    5.8670   -2.0990 hn        1 HA2      0.374800
     46 H161       -2.8260    7.0800   -5.2830 h1        1 HA2      0.062200
     47 H162       -4.5170    6.4330   -4.9970 h1        1 HA2      0.062200
     48 HA         -2.5060    9.2660   -4.1590 ho        1 HA2      0.414000
     49 H181       -6.7030    9.9930   -2.9810 hc        1 HA2      0.060700
     50 H182       -4.9420   10.3760   -2.7350 hc        1 HA2      0.060700
     51 H191       -6.2650    8.0210   -1.2550 hc        1 HA2      0.039200
     52 H192       -6.4850    9.7130   -0.6630 hc        1 HA2      0.039200
     53 H201       -3.6830    8.5710   -1.2890 hc        1 HA2      0.051700
     54 H202       -4.1130   10.0350   -0.3270 hc        1 HA2      0.051700
     55 H211       -4.7690    8.7510    1.5610 hc        1 HA2      0.026700
     56 H212       -5.1680    7.2930    0.5690 hc        1 HA2      0.026700
@<TRIPOS>BOND
     1    1    2 ar  
     2    1    6 ar  
     3    1   30 1   
     4    2    3 ar  
     5    2   31 1   
     6    3    4 ar  
     7    3   32 1   
     8    4    5 ar  
     9    4   33 1   
    10    5    6 ar  
    11    5   34 1   
    12    6    7 1   
    13    7    8 1   
    14    7   35 1   
    15    7   36 1   
    16    8    9 1   
    17    9   10 ar  
    18    9   12 ar  
    19   10   11 ar  
    20   10   37 1   
    21   11   14 ar  
    22   11   39 1   
    23   12   13 ar  
    24   12   38 1   
    25   13   14 ar  
    26   13   40 1   
    27   14   15 1   
    28   15   16 1   
    29   15   41 1   
    30   15   42 1   
    31   16   17 1   
    32   16   18 1   
    33   16   43 1   
    34   17   44 1   
    35   17   45 1   
    36   18   19 1   
    37   18   46 1   
    38   18   47 1   
    39   19   20 1   
    40   19   21 1   
    41   20   48 1   
    42   21   22 2   
    43   21   23 1   
    44   23   24 1   
    45   23   49 1   
    46   23   50 1   
    47   24   25 1   
    48   24   51 1   
    49   24   52 1   
    50   25   26 1   
    51   25   53 1   
    52   25   54 1   
    53   26   27 1   
    54   26   55 1   
    55   26   56 1   
    56   27   28 1   
    57   27   29 1   
@<TRIPOS>SUBSTRUCTURE
     1 HA2         1 TEMP              0 ****  ****    0 ROOT
