@<TRIPOS>MOLECULE
HA2
   58    59     1     0     0
SMALL
bcc


@<TRIPOS>ATOM
      1 C3          0.0000    0.0000    0.0000 ca        1 HA2     -0.095000
      2 C2          1.4070    0.0000    0.0000 ca        1 HA2     -0.094000
      3 C1          2.1400    0.0000    1.1950 ca        1 HA2     -0.089000
      4 C6          1.4520   -0.0000    2.4280 ca        1 HA2     -0.094000
      5 C5          0.0420   -0.0120    2.4350 ca        1 HA2     -0.095000
      6 C4         -0.6890   -0.0120    1.2360 ca        1 HA2     -0.153300
      7 C7         -2.2100   -0.0200    1.2890 c3        1 HA2      0.295700
      8 O1         -2.7780    0.0790   -0.0160 os        1 HA2     -0.331900
      9 C8         -3.1840    1.3120   -0.6190 ca        1 HA2      0.186100
     10 C13        -4.3850    1.3800   -1.3550 ca        1 HA2     -0.118000
     11 C12        -4.7790    2.5960   -1.9540 ca        1 HA2     -0.070000
     12 C9         -2.3680    2.4670   -0.4900 ca        1 HA2     -0.118000
     13 C10        -2.7680    3.6770   -1.0840 ca        1 HA2     -0.070000
     14 C11        -3.9720    3.7410   -1.8090 ca        1 HA2     -0.238300
     15 C14        -4.4020    5.0910   -2.4020 c3        1 HA2      0.043900
     16 C15        -4.0670    5.1840   -3.9200 c3        1 HA2     -0.072500
     17 N2         -2.7040    4.7080   -4.1650 nz        1 HA2      0.056400
     18 C16        -4.1850    6.6440   -4.4110 c3        1 HA2     -0.033200
     19 N3         -3.6580    7.6040   -3.4050 nx        1 HA2      0.310300
     20 O2         -2.3850    7.4980   -2.9810 oh        1 HA2     -0.501300
     21 C17        -4.4660    8.5640   -2.9040 c         1 HA2      0.307100
     22 O3         -5.6530    8.6460   -3.2590 o         1 HA2     -0.432100
     23 C18        -3.9060    9.5280   -1.8750 c3        1 HA2     -0.068400
     24 C19        -4.9920   10.4540   -1.3400 c3        1 HA2     -0.036400
     25 C20        -5.2390   10.1680    0.1370 c3        1 HA2     -0.029400
     26 C21        -6.6840   10.5010    0.5060 c3        1 HA2     -0.112400
     27 C22        -7.3590    9.3120    1.1670 c         1 HA2      0.995600
     28 O5         -8.0920    9.5630    2.1280 o         1 HA2     -0.762800
     29 O4         -7.1290    8.1700    0.6910 o         1 HA2     -0.762800
     30 H3         -0.5490   -0.0000   -0.9340 ha        1 HA2      0.108000
     31 H2          1.9360    0.0050   -0.9450 ha        1 HA2      0.106500
     32 H1          3.2230    0.0040    1.1730 ha        1 HA2      0.112000
     33 H6          2.0030   -0.0000    3.3610 ha        1 HA2      0.106500
     34 H5         -0.4860   -0.0170    3.3810 ha        1 HA2      0.108000
     35 H7C1       -2.5480    0.8180    1.8870 h1        1 HA2      0.027700
     36 H7C2       -2.5430   -0.9420    1.7510 h1        1 HA2      0.027700
     37 H13        -5.0040    0.4980   -1.4650 ha        1 HA2      0.140000
     38 H9         -1.4410    2.4170    0.0680 ha        1 HA2      0.140000
     39 H12        -5.7360    2.6680   -2.4560 ha        1 HA2      0.111500
     40 H10        -2.1750    4.5720   -0.9420 ha        1 HA2      0.111500
     41 H141       -3.8880    5.8870   -1.8770 hc        1 HA2      0.061700
     42 H142       -5.4700    5.2120   -2.2680 hc        1 HA2      0.061700
     43 H15        -4.7630    4.5660   -4.4750 hx        1 HA2      0.109700
     44 H2N1       -2.3690    5.0870   -5.0290 hn        1 HA2      0.234800
     45 H2N2       -2.1080    5.0030   -3.4180 hn        1 HA2      0.234800
     46 H161       -3.6250    6.7540   -5.3320 hx        1 HA2      0.096200
     47 H162       -5.2270    6.8690   -4.6020 hx        1 HA2      0.096200
     48 HA         -1.8350    8.0680   -3.4930 ho        1 HA2      0.455000
     49 H181       -3.4830    8.9640   -1.0530 hc        1 HA2      0.047200
     50 H182       -3.1260   10.1240   -2.3350 hc        1 HA2      0.047200
     51 H191       -4.6770   11.4840   -1.4590 hc        1 HA2      0.044200
     52 H192       -5.9080   10.2930   -1.8960 hc        1 HA2      0.044200
     53 H201       -5.0500    9.1200    0.3360 hc        1 HA2      0.024700
     54 H202       -4.5680   10.7720    0.7360 hc        1 HA2      0.024700
     55 H211       -6.6930   11.3410    1.1890 hc        1 HA2      0.030200
     56 H212       -7.2290   10.7660   -0.3920 hc        1 HA2      0.030200
     57 H23        -2.7050    3.7080   -4.2180 hn        1 HA2      0.234800
     58 H31        -3.3690    8.2230   -4.1360 hn        1 HA2      0.204800
@<TRIPOS>BOND
     1    1    2 ar  
     2    1    6 ar  
     3    1   30 1   
     4    2    3 ar  
     5    2   31 1   
     6    3    4 ar  
     7    3   32 1   
     8    4    5 ar  
     9    4   33 1   
    10    5    6 ar  
    11    5   34 1   
    12    6    7 1   
    13    7    8 1   
    14    7   35 1   
    15    7   36 1   
    16    8    9 1   
    17    9   10 ar  
    18    9   12 ar  
    19   10   11 ar  
    20   10   37 1   
    21   11   14 ar  
    22   11   39 1   
    23   12   13 ar  
    24   12   38 1   
    25   13   14 ar  
    26   13   40 1   
    27   14   15 1   
    28   15   16 1   
    29   15   41 1   
    30   15   42 1   
    31   16   17 1   
    32   16   18 1   
    33   16   43 1   
    34   17   44 1   
    35   17   45 1   
    36   17   57 1   
    37   18   19 1   
    38   18   46 1   
    39   18   47 1   
    40   19   20 1   
    41   19   21 1   
    42   19   58 1   
    43   20   48 1   
    44   21   22 2   
    45   21   23 1   
    46   23   24 1   
    47   23   49 1   
    48   23   50 1   
    49   24   25 1   
    50   24   51 1   
    51   24   52 1   
    52   25   26 1   
    53   25   53 1   
    54   25   54 1   
    55   26   27 1   
    56   26   55 1   
    57   26   56 1   
    58   27   28 1   
    59   27   29 1   
@<TRIPOS>SUBSTRUCTURE
     1 HA2         1 TEMP              0 ****  ****    0 ROOT
