@<TRIPOS>MOLECULE
HA2
   56    57     1     0     0
SMALL
bcc


@<TRIPOS>ATOM
      1 C3          7.9070   40.0510   67.8950 ca        1 HA2     -0.113000
      2 C2          7.9590   38.8880   68.6620 ca        1 HA2     -0.131500
      3 C1          8.4980   38.9220   69.9480 ca        1 HA2     -0.125000
      4 C6          8.9910   40.1200   70.4650 ca        1 HA2     -0.131500
      5 C5          8.9440   41.2840   69.6980 ca        1 HA2     -0.113000
      6 C4          8.3980   41.2550   68.4100 ca        1 HA2     -0.124300
      7 C7          8.3080   42.5120   67.6090 c3        1 HA2      0.173700
      8 O1          8.6230   42.3170   66.2290 os        1 HA2     -0.334900
      9 C8          9.9660   42.3510   65.8910 ca        1 HA2      0.110100
     10 C13        10.2280   42.5280   64.5200 ca        1 HA2     -0.173000
     11 C12        11.5460   42.5570   64.0820 ca        1 HA2     -0.098000
     12 C9         11.0150   42.2020   66.8040 ca        1 HA2     -0.173000
     13 C10        12.3300   42.2400   66.3440 ca        1 HA2     -0.098000
     14 C11        12.6090   42.4180   64.9850 ca        1 HA2     -0.106300
     15 C14        14.0150   42.4770   64.5090 c3        1 HA2     -0.087100
     16 C15        14.4230   41.2030   63.7470 c3        1 HA2      0.155500
     17 N2         14.3420   39.9720   64.5060 n3        1 HA2     -0.908800
     18 C16        15.8140   41.4120   63.1010 c3        1 HA2      0.055000
     19 N3         16.9330   41.7780   63.9690 n         1 HA2     -0.300300
     20 O2         17.0790   40.9280   64.9900 oh        1 HA2     -0.433100
     21 C17        17.0480   43.1630   64.3440 c         1 HA2      0.628100
     22 O3         16.6290   44.0280   63.5560 o         1 HA2     -0.588100
     23 C18        17.7930   43.5150   65.6100 c3        1 HA2     -0.143400
     24 C19        16.9010   43.3640   66.8260 c3        1 HA2     -0.080400
     25 C20        17.6610   43.6850   68.0970 c3        1 HA2     -0.066400
     26 C21        16.7990   43.5050   69.3220 c3        1 HA2     -0.197400
     27 C22        17.6390   43.5360   70.6130 c         1 HA2      0.909600
     28 O5         17.1300   44.0930   71.6270 o         1 HA2     -0.849800
     29 O4         18.7790   42.9880   70.6040 o         1 HA2     -0.849800
     30 H3          7.4940   40.0310   66.8750 ha        1 HA2      0.139000
     31 H2          7.5770   37.9430   68.2500 ha        1 HA2      0.132500
     32 H1          8.5410   38.0040   70.5520 ha        1 HA2      0.129000
     33 H6          9.4250   40.1480   71.4750 ha        1 HA2      0.132500
     34 H5          9.3440   42.2250   70.1060 ha        1 HA2      0.139000
     35 H7C1        7.2360   42.8590   67.5690 h1        1 HA2      0.062700
     36 H7C2        8.9480   43.3230   68.0480 h1        1 HA2      0.062700
     37 H13         9.3920   42.6390   63.8170 ha        1 HA2      0.143500
     38 H9         10.8110   42.0470   67.8740 ha        1 HA2      0.143500
     39 H12        11.7610   42.6980   63.0110 ha        1 HA2      0.139500
     40 H10        13.1560   42.1350   67.0660 ha        1 HA2      0.139500
     41 H141       14.1480   43.3570   63.8220 hc        1 HA2      0.068200
     42 H142       14.7080   42.6340   65.3820 hc        1 HA2      0.068200
     43 H15        13.6970   41.0840   62.8840 h1        1 HA2      0.054700
     44 H2N1       15.1030   39.8970   65.1540 hn        1 HA2      0.357300
     45 H2N2       13.4800   39.9490   65.0190 hn        1 HA2      0.357300
     46 H161       16.1180   40.4590   62.5840 h1        1 HA2      0.074200
     47 H162       15.7210   42.2350   62.3380 h1        1 HA2      0.074200
     48 HA         17.9890   40.5810   64.9080 ho        1 HA2      0.420000
     49 H181       18.6970   42.8590   65.7210 hc        1 HA2      0.069200
     50 H182       18.1420   44.5780   65.5210 hc        1 HA2      0.069200
     51 H191       16.0170   44.0470   66.7310 hc        1 HA2      0.040200
     52 H192       16.5150   42.3110   66.8780 hc        1 HA2      0.040200
     53 H201       18.5590   43.0160   68.1920 hc        1 HA2      0.048700
     54 H202       18.0380   44.7400   68.0540 hc        1 HA2      0.048700
     55 H211       16.0160   44.3020   69.3710 hc        1 HA2      0.020200
     56 H212       16.2780   42.5140   69.2840 hc        1 HA2      0.020200
@<TRIPOS>BOND
     1    1    2 ar  
     2    1    6 ar  
     3    1   30 1   
     4    2    3 ar  
     5    2   31 1   
     6    3    4 ar  
     7    3   32 1   
     8    4    5 ar  
     9    4   33 1   
    10    5    6 ar  
    11    5   34 1   
    12    6    7 1   
    13    7    8 1   
    14    7   35 1   
    15    7   36 1   
    16    8    9 1   
    17    9   10 ar  
    18    9   12 ar  
    19   10   11 ar  
    20   10   37 1   
    21   11   14 ar  
    22   11   39 1   
    23   12   13 ar  
    24   12   38 1   
    25   13   14 ar  
    26   13   40 1   
    27   14   15 1   
    28   15   16 1   
    29   15   41 1   
    30   15   42 1   
    31   16   17 1   
    32   16   18 1   
    33   16   43 1   
    34   17   44 1   
    35   17   45 1   
    36   18   19 1   
    37   18   46 1   
    38   18   47 1   
    39   19   20 1   
    40   19   21 1   
    41   20   48 1   
    42   21   22 2   
    43   21   23 1   
    44   23   24 1   
    45   23   49 1   
    46   23   50 1   
    47   24   25 1   
    48   24   51 1   
    49   24   52 1   
    50   25   26 1   
    51   25   53 1   
    52   25   54 1   
    53   26   27 1   
    54   26   55 1   
    55   26   56 1   
    56   27   28 1   
    57   27   29 1   
@<TRIPOS>SUBSTRUCTURE
     1 HA2         1 TEMP              0 ****  ****    0 ROOT
