@<TRIPOS>MOLECULE
HA2
   56    52     1     0     0
SMALL
bcc


@<TRIPOS>ATOM
      1 C3          2.2540   -6.7230    4.3370 c1        1 HA2     -0.133000
      2 C2          2.7500   -7.9880    4.4890 c1        1 HA2     -0.128250
      3 C1          3.1760   -8.7080    3.3770 c1        1 HA2     -0.128250
      4 C6          3.0980   -8.1440    2.1190 c1        1 HA2     -0.128250
      5 C5          2.5980   -6.8670    1.9650 c1        1 HA2     -0.128250
      6 C4          2.1750   -6.1540    3.0720 c1        1 HA2     -0.071000
      7 C7          1.6050   -4.7960    2.9040 c3        1 HA2      0.015000
      8 O1          2.1980   -4.1670    1.7650 os        1 HA2     -0.236000
      9 C8          1.6270   -2.8320    1.4450 c2        1 HA2      0.009000
     10 C13         2.3830   -1.6730    1.6870 c1        1 HA2     -0.139000
     11 C12         1.8680   -0.4120    1.3510 c1        1 HA2     -0.130000
     12 C9          0.3560   -2.7300    0.8670 c2        1 HA2     -0.156000
     13 C10        -0.1640   -1.4590    0.5280 c1        1 HA2     -0.106000
     14 C11         0.5980   -0.3030    0.7720 c1        1 HA2     -0.018000
     15 C14         0.0790    1.0660    0.3290 c3        1 HA2     -0.162000
     16 C15         0.4180    1.2950   -1.1150 c3        1 HA2     -0.022000
     17 N2          1.7940    1.6590   -1.2300 n3        1 HA2     -0.342000
     18 C16        -0.4590    2.4220   -1.6600 c3        1 HA2     -0.114000
     19 N3         -1.1780    1.9530   -2.8210 n         1 HA2     -0.165000
     20 O2         -1.0790    0.6810   -3.1910 oh        1 HA2     -0.262000
     21 C17        -2.0110    2.8670   -3.5840 c2        1 HA2      0.259000
     22 O3         -1.9820    2.8360   -4.8130 o         1 HA2     -0.388000
     23 C18        -3.0820    3.6900   -2.8750 c3        1 HA2     -0.191000
     24 C19        -2.8610    5.1540   -3.1680 c3        1 HA2     -0.147000
     25 C20        -3.5220    6.0210   -2.0590 c3        1 HA2     -0.133000
     26 C21        -2.6910    7.3430   -1.8630 c3        1 HA2     -0.216000
     27 C22        -2.4240    7.5740   -0.3440 c2        1 HA2      0.315000
     28 O5         -1.6320    6.8370    0.2650 o         1 HA2     -0.593500
     29 O4         -2.9590    8.5650    0.2530 o         1 HA2     -0.593500
     30 H3          1.9600   -6.2270    5.1080 ha        1 HA2      0.130000
     31 H2          2.8060   -8.3960    5.4000 ha        1 HA2      0.132250
     32 H1          3.5320   -9.6160    3.4870 ha        1 HA2      0.132250
     33 H6          3.3980   -8.6500    1.3350 ha        1 HA2      0.132250
     34 H5          2.5050   -6.4660    1.0410 ha        1 HA2      0.132250
     35 H7C1        0.6680   -4.8580    2.7790 h1        1 HA2      0.085500
     36 H7C2        1.7980   -4.2520    3.7230 h1        1 HA2      0.085500
     37 H13         3.2670   -1.7460    2.0890 ha        1 HA2      0.131000
     38 H9         -0.2040   -3.5280    0.7730 ha        1 HA2      0.126000
     39 H12         2.4160    0.4210    1.5270 ha        1 HA2      0.141000
     40 H10        -1.0390   -1.3870    0.0910 ha        1 HA2      0.145000
     41 H141       -0.8910    1.0980    0.4440 hc        1 HA2      0.146500
     42 H142        0.5130    1.7930    0.8960 hc        1 HA2      0.146500
     43 H15         0.2480    0.4450   -1.6450 h1        1 HA2      0.106000
     44 H2N1        1.8670    2.4150   -1.7300 hn        1 HA2      0.136500
     45 H2N2        2.2510    0.9900   -1.6280 hn        1 HA2      0.136500
     46 H161        0.0890    3.1670   -1.9000 h1        1 HA2      0.135000
     47 H162       -1.0930    2.6940   -0.9770 h1        1 HA2      0.135000
     48 HA         -1.8630    0.3070   -3.1550 ho        1 HA2      0.220000
     49 H181       -3.9540    3.4260   -3.1970 hc        1 HA2      0.132500
     50 H182       -3.0320    3.5410   -1.9290 hc        1 HA2      0.132500
     51 H191       -3.2690    5.3810   -4.0550 hc        1 HA2      0.083500
     52 H192       -1.9290    5.3330   -3.1940 hc        1 HA2      0.083500
     53 H201       -3.5410    5.5210   -1.2190 hc        1 HA2      0.063500
     54 H202       -4.4140    6.2410   -2.3190 hc        1 HA2      0.063500
     55 H211       -3.1800    8.0810   -2.2160 hc        1 HA2      0.069500
     56 H212       -1.8420    7.2630   -2.3320 hc        1 HA2      0.069500
@<TRIPOS>BOND
     1    1    6 1   
     2    1   30 1   
     3    2    3 1   
     4    2   31 1   
     5    3   32 1   
     6    4    5 1   
     7    4   33 1   
     8    5   34 1   
     9    6    7 1   
    10    7    8 1   
    11    7   35 1   
    12    7   36 1   
    13    8    9 1   
    14    9   10 1   
    15    9   12 1   
    16   10   37 1   
    17   11   14 1   
    18   11   39 1   
    19   12   13 1   
    20   12   38 1   
    21   13   40 1   
    22   14   15 1   
    23   15   16 1   
    24   15   41 1   
    25   15   42 1   
    26   16   17 1   
    27   16   18 1   
    28   16   43 1   
    29   17   44 1   
    30   17   45 1   
    31   18   19 1   
    32   18   46 1   
    33   18   47 1   
    34   19   20 1   
    35   19   21 1   
    36   20   48 1   
    37   21   22 1   
    38   21   23 1   
    39   23   24 1   
    40   23   49 1   
    41   23   50 1   
    42   24   25 1   
    43   24   51 1   
    44   24   52 1   
    45   25   26 1   
    46   25   53 1   
    47   25   54 1   
    48   26   27 1   
    49   26   55 1   
    50   26   56 1   
    51   27   28 1   
    52   27   29 1   
@<TRIPOS>SUBSTRUCTURE
     1 HA2         1 TEMP              0 ****  ****    0 ROOT
