@<TRIPOS>MOLECULE
HA3
   43    46     1     0     0
SMALL
bcc


@<TRIPOS>ATOM
      1 CAA        -0.3660   -0.5120    0.2140 ca        1 HA3     -0.114500
      2 CAB         1.0100   -0.6580    0.0510 ca        1 HA3     -0.124500
      3 CAC         1.8640   -0.5380    1.1480 ca        1 HA3     -0.111000
      4 CAD         1.3370   -0.2730    2.4120 ca        1 HA3     -0.124500
      5 CAE        -0.0380   -0.1260    2.5820 ca        1 HA3     -0.114500
      6 CAF        -0.9010   -0.2420    1.4840 ca        1 HA3     -0.033000
      7 CAG        -2.3380   -0.1200    1.6180 cc        1 HA3     -0.121600
      8 CAH        -3.3420   -0.8660    0.9420 cd        1 HA3      0.301200
      9 NAI        -4.6070   -0.4410    1.3150 nd        1 HA3     -0.646000
     10 CAJ        -4.4050    0.5630    2.2060 cc        1 HA3      0.318800
     11 CAK        -5.4450    1.4290    2.8600 c3        1 HA3      0.055700
     12 NAL        -3.0300    0.7920    2.4230 na        1 HA3     -0.182900
     13 CAM        -2.5430    1.7340    3.3900 c3        1 HA3      0.008300
     14 CAN        -3.6520    2.6900    3.9020 c3        1 HA3      0.055000
     15 NAO        -4.9550    2.0620    4.0730 n         1 HA3     -0.421800
     16 CAP        -5.2820    1.5630    5.3310 c         1 HA3      0.673700
     17 OAQ        -4.6360    1.8600    6.3520 o         1 HA3     -0.546100
     18 CAR        -6.5130    0.7330    5.4690 cc        1 HA3     -0.170700
     19 SAS        -6.5400   -0.7590    6.1130 ss        1 HA3      0.439200
     20 CAT        -7.7980    1.2000    5.1300 cd        1 HA3     -0.121000
     21 CAU        -8.7760    0.2430    5.4280 cd        1 HA3     -0.096000
     22 CAV        -8.2020   -0.9250    5.9850 cc        1 HA3     -0.353700
     23 CAW        -8.8860   -2.1000    6.3990 c         1 HA3      0.614700
     24 OAY        -8.4990   -3.1300    6.9350 o         1 HA3     -0.440100
     25 NAX       -10.4110   -2.0900    6.1250 ny        1 HA3     -0.458300
     26 OAZ       -11.0500   -3.2500    6.3860 oh        1 HA3     -0.361300
     27 HAA        -1.0390   -0.6060   -0.6520 ha        1 HA3      0.134000
     28 HAB         1.4220   -0.8690   -0.9480 ha        1 HA3      0.142000
     29 HAC         2.9500   -0.6520    1.0160 ha        1 HA3      0.144000
     30 HAD         2.0080   -0.1830    3.2790 ha        1 HA3      0.142000
     31 HAE        -0.4410    0.0660    3.5870 ha        1 HA3      0.134000
     32 HAH        -3.1950   -1.6700    0.2220 h4        1 HA3      0.055100
     33 HAK1       -6.3690    0.8210    3.0600 h1        1 HA3      0.083200
     34 HAK2       -5.7190    2.2570    2.1390 h1        1 HA3      0.083200
     35 HAM1       -2.1150    1.1690    4.2700 h1        1 HA3      0.078200
     36 HAM2       -1.7190    2.3510    2.9340 h1        1 HA3      0.078200
     37 HAN1       -3.3080    3.1260    4.8830 h1        1 HA3      0.095200
     38 HAN2       -3.7920    3.5270    3.1610 h1        1 HA3      0.095200
     39 HAT        -8.0020    2.1860    4.6960 ha        1 HA3      0.200000
     40 HAU        -9.8400    0.4140    5.2450 ha        1 HA3      0.158000
     41 HAX       -10.5740   -1.8850    5.1200 hn        1 HA3      0.480800
     42 HAZ       -10.4600   -3.8450    6.9170 ho        1 HA3      0.491000
     43 HAX2      -10.8540   -1.3440    6.6950 hn        1 HA3      0.480800
@<TRIPOS>BOND
     1    1    2 ar  
     2    1    6 ar  
     3    1   27 1   
     4    2    3 ar  
     5    2   28 1   
     6    3    4 ar  
     7    3   29 1   
     8    4    5 ar  
     9    4   30 1   
    10    5    6 ar  
    11    5   31 1   
    12    6    7 1   
    13    7    8 2   
    14    7   12 1   
    15    8    9 1   
    16    8   32 1   
    17    9   10 2   
    18   10   11 1   
    19   10   12 1   
    20   11   15 1   
    21   11   33 1   
    22   11   34 1   
    23   12   13 1   
    24   13   14 1   
    25   13   35 1   
    26   13   36 1   
    27   14   15 1   
    28   14   37 1   
    29   14   38 1   
    30   15   16 1   
    31   16   17 2   
    32   16   18 1   
    33   18   19 1   
    34   18   20 2   
    35   19   22 1   
    36   20   21 1   
    37   20   39 1   
    38   21   22 2   
    39   21   40 1   
    40   22   23 1   
    41   23   24 2   
    42   23   25 1   
    43   25   26 1   
    44   25   41 1   
    45   25   43 1   
    46   26   42 1   
@<TRIPOS>SUBSTRUCTURE
     1 HA3         1 TEMP              0 ****  ****    0 ROOT
