@<TRIPOS>MOLECULE
HA3
   42    45     1     0     0
SMALL
bcc


@<TRIPOS>ATOM
      1 CAA        17.1900   -5.1220   -9.0240 ca        1 HA3     -0.120500
      2 CAB        16.7700   -5.1600  -10.3510 ca        1 HA3     -0.127000
      3 CAC        16.8590   -6.3460  -11.0820 ca        1 HA3     -0.125000
      4 CAD        17.3660   -7.4960  -10.4780 ca        1 HA3     -0.127000
      5 CAE        17.7870   -7.4650   -9.1490 ca        1 HA3     -0.120500
      6 CAF        17.7050   -6.2760   -8.4110 ca        1 HA3     -0.010000
      7 CAG        18.1100   -6.2030   -7.0230 cc        1 HA3     -0.152600
      8 CAH        17.5380   -5.4190   -5.9870 cd        1 HA3      0.308200
      9 NAI        18.2180   -5.6080   -4.7930 nd        1 HA3     -0.654000
     10 CAJ        19.2080   -6.4950   -5.0730 cc        1 HA3      0.357800
     11 CAK        20.2690   -6.9930   -4.1260 c3        1 HA3      0.061700
     12 NAL        19.1740   -6.8890   -6.4240 na        1 HA3     -0.181900
     13 CAM        20.1090   -7.8260   -6.9770 c3        1 HA3      0.008300
     14 CAN        21.3490   -8.0020   -6.0640 c3        1 HA3      0.064000
     15 NAO        21.0390   -8.1020   -4.6520 n         1 HA3     -0.450800
     16 CAP        20.9880   -9.3740   -4.0670 c         1 HA3      0.699700
     17 OAQ        21.2960  -10.3820   -4.7350 o         1 HA3     -0.585100
     18 CAR        20.6610   -9.4850   -2.6330 cc        1 HA3     -0.215700
     19 SAS        19.7040  -10.6850   -2.0070 ss        1 HA3      0.278200
     20 CAT        21.1750   -8.6600   -1.6330 cd        1 HA3     -0.132000
     21 CAU        20.7220   -9.0600   -0.3530 cd        1 HA3     -0.123000
     22 CAV        19.8830  -10.1710   -0.4360 cc        1 HA3     -0.227700
     23 CAW        19.2360  -10.8390    0.6990 c         1 HA3      0.634700
     24 OAY        18.8020  -12.0030    0.6410 o         1 HA3     -0.560100
     25 NAX        19.2290  -10.1400    1.9510 n         1 HA3     -0.335400
     26 OAZ        18.3160  -10.5850    2.8180 oh        1 HA3     -0.436100
     27 HAA        17.1220   -4.1860   -8.4490 ha        1 HA3      0.135500
     28 HAB        16.3680   -4.2520  -10.8240 ha        1 HA3      0.135000
     29 HAC        16.5280   -6.3730  -12.1300 ha        1 HA3      0.135000
     30 HAD        17.4310   -8.4340  -11.0490 ha        1 HA3      0.135000
     31 HAE        18.1670   -8.3830   -8.6800 ha        1 HA3      0.135500
     32 HAH        16.6800   -4.7520   -6.0580 h4        1 HA3      0.046100
     33 HAK1       20.9840   -6.1390   -3.9330 h1        1 HA3      0.083700
     34 HAK2       19.7760   -7.2690   -3.1510 h1        1 HA3      0.083700
     35 HAM1       19.5990   -8.8250   -7.1030 h1        1 HA3      0.070700
     36 HAM2       20.4480   -7.4710   -7.9900 h1        1 HA3      0.070700
     37 HAN1       21.8950   -8.9280   -6.4030 h1        1 HA3      0.083200
     38 HAN2       22.0280   -7.1120   -6.1930 h1        1 HA3      0.083200
     39 HAT        21.8490   -7.8160   -1.8060 ha        1 HA3      0.168000
     40 HAU        21.0200   -8.5570    0.5710 ha        1 HA3      0.166000
     41 HAX        19.0780   -9.1430    1.8350 hn        1 HA3      0.299500
     42 HAZ        18.6370  -11.4580    3.1210 ho        1 HA3      0.438000
@<TRIPOS>BOND
     1    1    2 ar  
     2    1    6 ar  
     3    1   27 1   
     4    2    3 ar  
     5    2   28 1   
     6    3    4 ar  
     7    3   29 1   
     8    4    5 ar  
     9    4   30 1   
    10    5    6 ar  
    11    5   31 1   
    12    6    7 1   
    13    7    8 2   
    14    7   12 1   
    15    8    9 1   
    16    8   32 1   
    17    9   10 2   
    18   10   11 1   
    19   10   12 1   
    20   11   15 1   
    21   11   33 1   
    22   11   34 1   
    23   12   13 1   
    24   13   14 1   
    25   13   35 1   
    26   13   36 1   
    27   14   15 1   
    28   14   37 1   
    29   14   38 1   
    30   15   16 1   
    31   16   17 2   
    32   16   18 1   
    33   18   19 1   
    34   18   20 2   
    35   19   22 1   
    36   20   21 1   
    37   20   39 1   
    38   21   22 2   
    39   21   40 1   
    40   22   23 1   
    41   23   24 2   
    42   23   25 1   
    43   25   26 1   
    44   25   41 1   
    45   26   42 1   
@<TRIPOS>SUBSTRUCTURE
     1 HA3         1 TEMP              0 ****  ****    0 ROOT
