@<TRIPOS>MOLECULE
HA3
   43    46     1     0     0
SMALL
bcc


@<TRIPOS>ATOM
      1 CAA        -0.3090   -0.6010    0.2750 ca        1 HA3     -0.115000
      2 CAB         1.0720   -0.6890    0.1210 ca        1 HA3     -0.124500
      3 CAC         1.9170   -0.4480    1.2050 ca        1 HA3     -0.112000
      4 CAD         1.3740   -0.1220    2.4480 ca        1 HA3     -0.124500
      5 CAE        -0.0070   -0.0330    2.6100 ca        1 HA3     -0.115000
      6 CAF        -0.8600   -0.2700    1.5240 ca        1 HA3     -0.032000
      7 CAG        -2.3020   -0.2110    1.6500 cc        1 HA3     -0.122600
      8 CAH        -3.2660   -1.0490    1.0260 cd        1 HA3      0.301200
      9 NAI        -4.5520   -0.6640    1.3710 nd        1 HA3     -0.645000
     10 CAJ        -4.4020    0.4060    2.1930 cc        1 HA3      0.320800
     11 CAK        -5.4860    1.2590    2.7890 c3        1 HA3      0.055700
     12 NAL        -3.0410    0.7170    2.3930 na        1 HA3     -0.182900
     13 CAM        -2.6040    1.7460    3.2930 c3        1 HA3      0.008300
     14 CAN        -3.7600    2.6820    3.7320 c3        1 HA3      0.055000
     15 NAO        -5.0300    2.0050    3.9500 n         1 HA3     -0.422800
     16 CAP        -5.3430    1.5940    5.2430 c         1 HA3      0.674700
     17 OAQ        -4.7130    1.9980    6.2380 o         1 HA3     -0.549100
     18 CAR        -6.5380    0.7270    5.4450 cc        1 HA3     -0.161700
     19 SAS        -6.5020   -0.7140    6.2050 ss        1 HA3      0.409200
     20 CAT        -7.8400    1.1100    5.0700 cd        1 HA3     -0.129000
     21 CAU        -8.7790    0.1430    5.4520 cd        1 HA3     -0.078000
     22 CAV        -8.1590   -0.9490    6.1040 cc        1 HA3     -0.344700
     23 CAW        -8.8030   -2.1150    6.5950 c         1 HA3      0.615700
     24 OAY        -8.3870   -3.1940    6.9890 o         1 HA3     -0.425100
     25 NAX       -10.3590   -2.0310    6.6920 n4        1 HA3     -0.467300
     26 OAZ       -10.9740   -2.1040    5.4910 oh        1 HA3     -0.355300
     27 HAA        -0.9750   -0.7890   -0.5820 ha        1 HA3      0.134000
     28 HAB         1.4970   -0.9480   -0.8610 ha        1 HA3      0.142000
     29 HAC         3.0080   -0.5170    1.0810 ha        1 HA3      0.143000
     30 HAD         2.0380    0.0630    3.3060 ha        1 HA3      0.142000
     31 HAE        -0.4220    0.2090    3.5990 ha        1 HA3      0.134000
     32 HAH        -3.0770   -1.8920    0.3610 h4        1 HA3      0.055100
     33 HAK1       -6.3760    0.6180    3.0380 h1        1 HA3      0.083200
     34 HAK2       -5.8070    2.0150    2.0110 h1        1 HA3      0.083200
     35 HAM1       -1.8060    2.3680    2.7960 h1        1 HA3      0.078200
     36 HAM2       -2.1550    1.2660    4.2110 h1        1 HA3      0.078200
     37 HAN1       -3.9380    3.4540    2.9310 h1        1 HA3      0.094700
     38 HAN2       -3.4410    3.2060    4.6770 h1        1 HA3      0.094700
     39 HAT        -8.0830    2.0440    4.5520 ha        1 HA3      0.199000
     40 HAU        -9.8490    0.2280    5.2360 ha        1 HA3      0.173000
     41 HAX       -10.6310   -1.1080    7.0810 hn        1 HA3      0.477800
     42 HAZ       -10.6800   -2.9280    5.0370 ho        1 HA3      0.477000
     43 HAX2      -10.7030   -2.7830    7.3210 hn        1 HA3      0.477800
@<TRIPOS>BOND
     1    1    2 ar  
     2    1    6 ar  
     3    1   27 1   
     4    2    3 ar  
     5    2   28 1   
     6    3    4 ar  
     7    3   29 1   
     8    4    5 ar  
     9    4   30 1   
    10    5    6 ar  
    11    5   31 1   
    12    6    7 1   
    13    7    8 2   
    14    7   12 1   
    15    8    9 1   
    16    8   32 1   
    17    9   10 2   
    18   10   11 1   
    19   10   12 1   
    20   11   15 1   
    21   11   33 1   
    22   11   34 1   
    23   12   13 1   
    24   13   14 1   
    25   13   35 1   
    26   13   36 1   
    27   14   15 1   
    28   14   37 1   
    29   14   38 1   
    30   15   16 1   
    31   16   17 2   
    32   16   18 1   
    33   18   19 1   
    34   18   20 2   
    35   19   22 1   
    36   20   21 1   
    37   20   39 1   
    38   21   22 2   
    39   21   40 1   
    40   22   23 1   
    41   23   24 2   
    42   23   25 1   
    43   25   26 1   
    44   25   41 1   
    45   25   43 1   
    46   26   42 1   
@<TRIPOS>SUBSTRUCTURE
     1 HA3         1 TEMP              0 ****  ****    0 ROOT
