@<TRIPOS>MOLECULE
HA3
   43    46     1     0     0
SMALL
bcc


@<TRIPOS>ATOM
      1 CAA        -0.3700   -0.4930    0.1970 ca        1 HA3     -0.114500
      2 CAB         1.0040   -0.6440    0.0310 ca        1 HA3     -0.124500
      3 CAC         1.8590   -0.5410    1.1290 ca        1 HA3     -0.111000
      4 CAD         1.3350   -0.2890    2.3970 ca        1 HA3     -0.124500
      5 CAE        -0.0400   -0.1370    2.5700 ca        1 HA3     -0.114500
      6 CAF        -0.9030   -0.2360    1.4710 ca        1 HA3     -0.033000
      7 CAG        -2.3400   -0.1090    1.6070 cc        1 HA3     -0.121600
      8 CAH        -3.3480   -0.8410    0.9230 cd        1 HA3      0.301200
      9 NAI        -4.6110   -0.4140    1.3010 nd        1 HA3     -0.646000
     10 CAJ        -4.4030    0.5780    2.2030 cc        1 HA3      0.318800
     11 CAK        -5.4380    1.4410    2.8680 c3        1 HA3      0.055700
     12 NAL        -3.0270    0.7970    2.4220 na        1 HA3     -0.182900
     13 CAM        -2.5360    1.7250    3.4010 c3        1 HA3      0.008300
     14 CAN        -3.6400    2.6810    3.9250 c3        1 HA3      0.055000
     15 NAO        -4.9450    2.0570    4.0880 n         1 HA3     -0.421800
     16 CAP        -5.2740    1.5440    5.3410 c         1 HA3      0.673700
     17 OAQ        -4.6260    1.8250    6.3650 o         1 HA3     -0.546100
     18 CAR        -6.5080    0.7160    5.4690 cc        1 HA3     -0.170700
     19 SAS        -6.5400   -0.7860    6.0900 ss        1 HA3      0.438200
     20 CAT        -7.7920    1.1930    5.1380 cd        1 HA3     -0.121000
     21 CAU        -8.7730    0.2360    5.4250 cd        1 HA3     -0.096000
     22 CAV        -8.2020   -0.9430    5.9650 cc        1 HA3     -0.353700
     23 CAW        -8.8890   -2.1220    6.3610 c         1 HA3      0.614700
     24 OAY        -8.4970   -3.1840    6.8250 o         1 HA3     -0.440100
     25 NAX       -10.4260   -2.0720    6.1670 n4        1 HA3     -0.458300
     26 OAZ       -11.1010   -3.1250    6.6730 oh        1 HA3     -0.361300
     27 HAA        -1.0440   -0.5730   -0.6700 ha        1 HA3      0.134000
     28 HAB         1.4150   -0.8440   -0.9700 ha        1 HA3      0.142000
     29 HAC         2.9450   -0.6590    0.9950 ha        1 HA3      0.144000
     30 HAD         2.0060   -0.2120    3.2650 ha        1 HA3      0.142000
     31 HAE        -0.4410    0.0450    3.5770 ha        1 HA3      0.134000
     32 HAH        -3.2050   -1.6380    0.1930 h4        1 HA3      0.055100
     33 HAK1       -6.3660    0.8350    3.0610 h1        1 HA3      0.083200
     34 HAK2       -5.7090    2.2790    2.1580 h1        1 HA3      0.083200
     35 HAM1       -1.7080    2.3450    2.9500 h1        1 HA3      0.078200
     36 HAM2       -2.1090    1.1490    4.2730 h1        1 HA3      0.078200
     37 HAN1       -3.2930    3.1030    4.9100 h1        1 HA3      0.095200
     38 HAN2       -3.7760    3.5280    3.1940 h1        1 HA3      0.095200
     39 HAT        -7.9910    2.1850    4.7180 ha        1 HA3      0.200000
     40 HAU        -9.8360    0.4120    5.2410 ha        1 HA3      0.158000
     41 HAX       -10.6380   -2.0070    5.1530 hn        1 HA3      0.480800
     42 HAZ       -10.4720   -3.8680    6.8580 ho        1 HA3      0.491000
     43 HAX2      -10.8010   -1.2290    6.6430 hn        1 HA3      0.480800
@<TRIPOS>BOND
     1    1    2 ar  
     2    1    6 ar  
     3    1   27 1   
     4    2    3 ar  
     5    2   28 1   
     6    3    4 ar  
     7    3   29 1   
     8    4    5 ar  
     9    4   30 1   
    10    5    6 ar  
    11    5   31 1   
    12    6    7 1   
    13    7    8 2   
    14    7   12 1   
    15    8    9 1   
    16    8   32 1   
    17    9   10 2   
    18   10   11 1   
    19   10   12 1   
    20   11   15 1   
    21   11   33 1   
    22   11   34 1   
    23   12   13 1   
    24   13   14 1   
    25   13   35 1   
    26   13   36 1   
    27   14   15 1   
    28   14   37 1   
    29   14   38 1   
    30   15   16 1   
    31   16   17 2   
    32   16   18 1   
    33   18   19 1   
    34   18   20 2   
    35   19   22 1   
    36   20   21 1   
    37   20   39 1   
    38   21   22 2   
    39   21   40 1   
    40   22   23 1   
    41   23   24 2   
    42   23   25 1   
    43   25   26 1   
    44   25   41 1   
    45   25   43 1   
    46   26   42 1   
@<TRIPOS>SUBSTRUCTURE
     1 HA3         1 TEMP              0 ****  ****    0 ROOT
