@<TRIPOS>MOLECULE
HA3
   42    35     1     0     0
SMALL
bcc


@<TRIPOS>ATOM
      1 CAA         3.0820    0.7930   -3.1230 c1        1 HA3     -0.110000
      2 CAB         4.4780    0.7950   -3.1590 c1        1 HA3     -0.126750
      3 CAC         5.1880    1.8760   -2.6250 c1        1 HA3     -0.126750
      4 CAD         4.5050    2.9460   -2.0600 c1        1 HA3     -0.126750
      5 CAE         3.1030    2.9450   -2.0230 c1        1 HA3     -0.126750
      6 CAF         2.3930    1.8750   -2.5520 c1        1 HA3     -0.014000
      7 CAG         0.9560    1.9180   -2.5910 c1        1 HA3     -0.111500
      8 CAH         0.1770    2.5880   -3.5500 c1        1 HA3     -0.111500
      9 NAI        -1.1600    2.4260   -3.2090 n2        1 HA3     -0.135000
     10 CAJ        -1.2160    1.6790   -2.0730 c1        1 HA3     -0.075000
     11 CAK        -2.3960    1.0860   -1.1790 c2        1 HA3      0.036000
     12 NAL         0.1220    1.3620   -1.6890 n2        1 HA3     -0.135000
     13 CAM         0.3210    0.6210   -0.3930 c2        1 HA3     -0.045000
     14 CAN        -0.8470    0.4290    0.4220 c3        1 HA3     -0.044000
     15 NAO        -2.0320    0.2140   -0.2350 n         1 HA3     -0.315000
     16 CAP        -2.8660   -0.9260    0.0830 c2        1 HA3      0.371000
     17 OAQ        -3.9200   -1.0990   -0.5160 o         1 HA3     -0.328000
     18 CAR        -2.4090   -1.9420    1.1360 c2        1 HA3     -0.435000
     19 SAS        -2.3900   -1.7150    2.6750 ss        1 HA3      0.733000
     20 CAT        -2.0670   -3.3280    0.8870 c1        1 HA3     -0.146000
     21 CAU        -1.8150   -4.0440    2.2910 c1        1 HA3     -0.089000
     22 CAV        -2.0120   -3.0670    3.3430 c1        1 HA3     -0.474000
     23 CAW        -1.9500   -3.3420    4.8570 c1        1 HA3      0.305000
     24 OAY        -1.6380   -4.4540    5.2650 o         1 HA3     -0.302000
     25 NAX        -2.1890   -2.2530    5.8080 n3        1 HA3     -0.188000
     26 OAZ        -1.6410   -2.3070    7.0590 oh        1 HA3     -0.238000
     27 HAA         2.5880    0.0450   -3.4940 ha        1 HA3      0.142000
     28 HAB         4.9650    0.0330   -3.5620 ha        1 HA3      0.134250
     29 HAC         6.1750    1.8790   -2.6500 ha        1 HA3      0.134250
     30 HAD         5.0070    3.7090   -1.6830 ha        1 HA3      0.134250
     31 HAE         2.6300    3.6920   -1.6290 ha        1 HA3      0.134250
     32 HAH         0.5200    3.1400   -4.2840 DU        1 HA3      0.176000
     33 HAK1       -3.0060    0.6100   -1.7880 h4        1 HA3      0.136000
     34 HAK2       -2.8190    1.8490   -0.7170 h4        1 HA3      0.136000
     35 HAM1        1.0070    1.1300    0.1570 ha        1 HA3      0.103500
     36 HAM2        0.6890   -0.2580   -0.6030 ha        1 HA3      0.103500
     37 HAN1       -0.9520    1.1990    0.9740 h1        1 HA3      0.112000
     38 HAN2       -0.6840   -0.3370    1.0020 h1        1 HA3      0.112000
     39 HAT        -2.0050   -3.7410    0.0320 DU        1 HA3      0.176000
     40 HAU        -1.5670   -4.9910    2.4210 DU        1 HA3      0.176000
     41 HAX        -2.7560   -1.5580    5.5820 hn        1 HA3      0.211000
     42 HAZ        -1.5700   -1.4780    7.3900 ho        1 HA3      0.235000
@<TRIPOS>BOND
     1    1    6 1   
     2    1   27 1   
     3    2    3 1   
     4    2   28 1   
     5    3   29 1   
     6    4    5 1   
     7    4   30 1   
     8    5   31 1   
     9    7    8 1   
    10    7   12 1   
    11    8    9 1   
    12    9   10 1   
    13   10   12 1   
    14   11   15 1   
    15   11   33 1   
    16   11   34 1   
    17   13   14 1   
    18   13   35 1   
    19   13   36 1   
    20   14   15 1   
    21   14   37 1   
    22   14   38 1   
    23   15   16 1   
    24   16   17 1   
    25   16   18 1   
    26   18   19 1   
    27   18   20 1   
    28   19   22 1   
    29   20   21 1   
    30   21   22 1   
    31   23   24 1   
    32   23   25 1   
    33   25   26 1   
    34   25   41 1   
    35   26   42 1   
@<TRIPOS>SUBSTRUCTURE
     1 HA3         1 TEMP              0 ****  ****    0 ROOT
