@<TRIPOS>MOLECULE
HA5
   20    21     1     0     0
SMALL
bcc


@<TRIPOS>ATOM
      1 N1          0.0790   -0.1800    0.0150 nc        1 HA5     -0.486300
      2 O2          1.4030   -0.0850   -0.0110 os        1 HA5     -0.122100
      3 C3          1.8870    0.0280    1.3040 cc        1 HA5      0.251000
      4 C4          3.3200    0.1540    1.6580 c3        1 HA5      0.135500
      5 N5          3.4270    0.5560    3.0530 n3        1 HA5     -0.807200
      6 C6          2.5280   -0.1730    3.9450 c3        1 HA5      0.034500
      7 C7          2.8620    0.1200    5.4490 c         1 HA5      0.930600
      8 O8          1.9070    0.3870    6.2220 o         1 HA5     -0.831300
      9 O9          4.0740    0.0160    5.7840 o         1 HA5     -0.831300
     10 C10         1.0410    0.1060    3.6470 c3        1 HA5      0.011900
     11 C11         0.8240    0.0040    2.1960 cd        1 HA5     -0.275900
     12 C12        -0.3310   -0.1310    1.3140 cd        1 HA5      0.534600
     13 O13        -1.6130   -0.2000    1.7720 oh        1 HA5     -0.581300
     14 H4          3.8270   -0.8300    1.4210 h1        1 HA5      0.035700
     15 H4A         3.8080    0.9490    1.0270 h1        1 HA5      0.035700
     16 HN5         4.3700    0.4570    3.3850 hn        1 HA5      0.392800
     17 H6          2.6790   -1.2910    3.8200 h1        1 HA5      0.002700
     18 H10         0.7690    1.1290    4.0210 hc        1 HA5      0.074700
     19 H10A        0.4180   -0.6310    4.2150 hc        1 HA5      0.074700
     20 H8         -2.2070   -0.2770    1.0070 ho        1 HA5      0.421000
@<TRIPOS>BOND
     1    1    2 1   
     2    1   12 2   
     3    2    3 1   
     4    3    4 1   
     5    3   11 2   
     6    4    5 1   
     7    4   14 1   
     8    4   15 1   
     9    5    6 1   
    10    5   16 1   
    11    6    7 1   
    12    6   10 1   
    13    6   17 1   
    14    7    8 1   
    15    7    9 1   
    16   10   11 1   
    17   10   18 1   
    18   10   19 1   
    19   11   12 1   
    20   12   13 1   
    21   13   20 1   
@<TRIPOS>SUBSTRUCTURE
     1 HA5         1 TEMP              0 ****  ****    0 ROOT
