@<TRIPOS>MOLECULE
HA5
   20    21     1     0     0
SMALL
bcc


@<TRIPOS>ATOM
      1 N1         57.2640   27.3480   47.1150 nc        1 HA5     -0.486300
      2 O2         58.3850   27.7420   46.5230 os        1 HA5     -0.122100
      3 C3         58.3680   27.3320   45.1770 cc        1 HA5      0.251000
      4 C4         59.4590   27.5980   44.2110 c3        1 HA5      0.135500
      5 N5         59.2500   26.7780   43.0260 n3        1 HA5     -0.807200
      6 C6         57.8650   26.7630   42.5610 c3        1 HA5      0.034500
      7 C7         57.7490   26.0770   41.1550 c         1 HA5      0.930600
      8 O8         56.8360   25.2270   40.9900 o         1 HA5     -0.831300
      9 O9         58.5580   26.4700   40.2710 o         1 HA5     -0.831300
     10 C10        56.9040   26.1090   43.5750 c3        1 HA5      0.011900
     11 C11        57.1890   26.6520   44.9110 cd        1 HA5     -0.275900
     12 C12        56.5020   26.6860   46.1990 cd        1 HA5      0.534600
     13 O13        55.2760   26.1260   46.4030 oh        1 HA5     -0.581300
     14 H4         59.4810   28.7110   44.0040 h1        1 HA5      0.035700
     15 H4A        60.4530   27.3160   44.6600 h1        1 HA5      0.035700
     16 HN5        59.8460   27.0730   42.2740 hn        1 HA5      0.392800
     17 H6         57.4970   27.8250   42.4030 h1        1 HA5      0.002700
     18 H10        55.8520   26.3160   43.2550 hc        1 HA5      0.074700
     19 H10A       57.0440   24.9950   43.5580 hc        1 HA5      0.074700
     20 H8         55.0270   26.2640   47.3310 ho        1 HA5      0.421000
@<TRIPOS>BOND
     1    1    2 1   
     2    1   12 2   
     3    2    3 1   
     4    3    4 1   
     5    3   11 2   
     6    4    5 1   
     7    4   14 1   
     8    4   15 1   
     9    5    6 1   
    10    5   16 1   
    11    6    7 1   
    12    6   10 1   
    13    6   17 1   
    14    7    8 1   
    15    7    9 1   
    16   10   11 1   
    17   10   18 1   
    18   10   19 1   
    19   11   12 1   
    20   12   13 1   
    21   13   20 1   
@<TRIPOS>SUBSTRUCTURE
     1 HA5         1 TEMP              0 ****  ****    0 ROOT
