@<TRIPOS>MOLECULE
HA5
   20    21     1     0     0
SMALL
bcc


@<TRIPOS>ATOM
      1 N1          0.0730   -0.1730    0.0060 nc        1 HA5     -0.486300
      2 O2          1.3950   -0.0500   -0.0210 os        1 HA5     -0.122100
      3 C3          1.8790    0.0530    1.2960 cc        1 HA5      0.251000
      4 C4          3.3100    0.2030    1.6490 c3        1 HA5      0.135500
      5 N5          3.4120    0.5870    3.0500 n7        1 HA5     -0.807200
      6 C6          2.5290   -0.1740    3.9320 c3        1 HA5      0.034500
      7 C7          2.8610    0.1040    5.4400 c         1 HA5      0.930600
      8 O8          1.9020    0.3390    6.2190 o         1 HA5     -0.831300
      9 O9          4.0760    0.0190    5.7710 o         1 HA5     -0.831300
     10 C10         1.0360    0.0790    3.6410 c3        1 HA5      0.011900
     11 C11         0.8190   -0.0060    2.1880 cd        1 HA5     -0.275900
     12 C12        -0.3350   -0.1510    1.3070 cd        1 HA5      0.534600
     13 O13        -1.6150   -0.2530    1.7660 oh        1 HA5     -0.581300
     14 H4          3.7800    1.0180    1.0290 h1        1 HA5      0.035700
     15 H4A         3.8370   -0.7660    1.3970 h1        1 HA5      0.035700
     16 HN5         4.3570    0.5010    3.3790 hn        1 HA5      0.392800
     17 H6          2.7040   -1.2860    3.7910 h1        1 HA5      0.002700
     18 H10         0.7450    1.0900    4.0300 hc        1 HA5      0.074700
     19 H10A        0.4300   -0.6790    4.1990 hc        1 HA5      0.074700
     20 H8         -2.2090   -0.3320    1.0020 ho        1 HA5      0.421000
@<TRIPOS>BOND
     1    1    2 1   
     2    1   12 2   
     3    2    3 1   
     4    3    4 1   
     5    3   11 2   
     6    4    5 1   
     7    4   14 1   
     8    4   15 1   
     9    5    6 1   
    10    5   16 1   
    11    6    7 1   
    12    6   10 1   
    13    6   17 1   
    14    7    8 1   
    15    7    9 1   
    16   10   11 1   
    17   10   18 1   
    18   10   19 1   
    19   11   12 1   
    20   12   13 1   
    21   13   20 1   
@<TRIPOS>SUBSTRUCTURE
     1 HA5         1 TEMP              0 ****  ****    0 ROOT
