@<TRIPOS>MOLECULE
HA7
   20    21     1     0     0
SMALL
bcc


@<TRIPOS>ATOM
      1 C1         63.1130   66.5160   50.7950 cc        1 HA7      0.539600
      2 N1         61.8730   66.3000   51.3200 nd        1 HA7     -0.494300
      3 O1         61.7090   67.1240   52.3500 os        1 HA7     -0.092100
      4 C2         63.7890   67.5600   51.5410 cc        1 HA7     -0.373900
      5 N2         64.1640   69.8200   53.1800 n3        1 HA7     -0.756200
      6 C3         65.1040   68.2030   51.4500 c3        1 HA7     -0.015100
      7 C4         65.3230   69.0880   52.6980 c3        1 HA7      0.131800
      8 O4         63.6700   65.8820   49.7210 oh        1 HA7     -0.598300
      9 C5         63.0590   68.9400   53.5660 c3        1 HA7     -0.038800
     10 C6         62.8570   67.9070   52.5210 cd        1 HA7      0.324000
     11 C7         63.3040   68.2440   54.9820 c         1 HA7      0.953600
     12 HN2        63.8400   70.4340   52.4500 hn        1 HA7      0.314800
     13 H3         65.9200   67.4360   51.3980 hc        1 HA7      0.034200
     14 H3A        65.1650   68.8220   50.5160 hc        1 HA7      0.034200
     15 H4         65.6590   68.4250   53.5500 h1        1 HA7      0.071700
     16 H4A        66.1320   69.8340   52.4670 h1        1 HA7      0.071700
     17 H5         62.1260   69.5600   53.6870 h1        1 HA7      0.080700
     18 H8         63.0640   65.1790   49.4370 ho        1 HA7      0.421000
     19 O2         64.3580   67.5830   55.1470 o         1 HA7     -0.804300
     20 O3         62.3880   68.4310   55.8190 o         1 HA7     -0.804300
@<TRIPOS>BOND
     1    1    2 2   
     2    1    4 1   
     3    1    8 1   
     4    2    3 1   
     5    3   10 1   
     6    4    6 1   
     7    4   10 2   
     8    5    7 1   
     9    5    9 1   
    10    5   12 1   
    11    6    7 1   
    12    6   13 1   
    13    6   14 1   
    14    7   15 1   
    15    7   16 1   
    16    8   18 1   
    17    9   10 1   
    18    9   11 1   
    19    9   17 1   
    20   11   19 1   
    21   11   20 1   
@<TRIPOS>SUBSTRUCTURE
     1 HA7         1 TEMP              0 ****  ****    0 ROOT
