@<TRIPOS>MOLECULE
HA7
   20    19     1     0     0
SMALL
bcc


@<TRIPOS>ATOM
      1 C1          0.8810   -0.3370   -0.7890 cc        1 HA7      0.541600
      2 N1          2.1770   -0.0070   -0.5680 nd        1 HA7     -0.431300
      3 O1          2.3360    0.1500    0.7420 os        1 HA7     -0.121100
      4 C2          0.1270   -0.3350    0.4600 cc        1 HA7     -0.436900
      5 N2         -1.5540    1.7310    6.2430 n3        1 HA7     -0.620600
      6 C3         -1.2960   -0.5870    0.6380 c3        1 HA7     -0.023800
      7 C4         -2.3660    2.1330    7.1630 c1        1 HA7     -0.198500
      8 O4          0.3830   -0.5970   -2.0370 oh        1 HA7     -0.595300
      9 C5          1.0810   -0.1260    2.8040 ch        1 HA7     -0.084000
     10 C6          1.1000   -0.0290    1.4240 cd        1 HA7      0.333700
     11 C7          0.2690    0.5370    3.8320 c         1 HA7      0.885600
     12 HN2        -0.6300    2.1140    6.1670 hn        1 HA7      0.428300
     13 H3         -3.3690    1.6440    7.1600 ha        1 HA7     -0.055500
     14 H3A        -1.5790   -0.4590    1.7180 hc        1 HA7      0.046033
     15 H4         -1.5630   -1.6270    0.3210 hc        1 HA7      0.046033
     16 H4A        -1.9030    0.1280    0.0250 hc        1 HA7      0.046033
     17 H5         -1.7330    1.0350    5.5370 hn        1 HA7      0.428300
     18 H8         -0.5660   -0.7530   -1.9020 ho        1 HA7      0.425000
     19 O2          0.7370    1.4250    4.5890 o         1 HA7     -0.807300
     20 O3         -0.9160    0.0730    3.8940 o         1 HA7     -0.807300
@<TRIPOS>BOND
     1    1    2 2   
     2    1    4 1   
     3    1    8 1   
     4    2    3 1   
     5    3   10 1   
     6    4    6 1   
     7    4   10 2   
     8    5    7 3   
     9    5   12 1   
    10    5   17 1   
    11    6   14 1   
    12    6   15 1   
    13    6   16 1   
    14    7   13 1   
    15    8   18 1   
    16    9   10 1   
    17    9   11 3   
    18   11   19 1   
    19   11   20 1   
@<TRIPOS>SUBSTRUCTURE
     1 HA7         1 TEMP              0 ****  ****    0 ROOT
