@<TRIPOS>MOLECULE
HA7
   20    19     1     0     0
SMALL
bcc


@<TRIPOS>ATOM
      1 C1          0.2860   -0.0290   -2.3870 c1        1 HA7      0.040000
      2 N1          1.7390   -0.0290   -2.3870 n1        1 HA7     -0.155000
      3 O1          2.2820   -0.0290   -0.9230 o         1 HA7     -0.020000
      4 C2         -0.1730   -0.0280   -1.1060 c1        1 HA7     -0.249000
      5 N2         -0.7140   -0.0620    1.6620 n3        1 HA7     -0.276000
      6 O2          2.1500   -0.6480    3.1650 o         1 HA7     -0.539000
      7 C3         -1.4480    0.2430   -0.5200 c3        1 HA7     -0.103000
      8 O3          2.2860    1.2130    2.0370 o         1 HA7     -0.539000
      9 C4         -1.5520   -0.3420    0.9800 c3        1 HA7     -0.075000
     10 O4         -0.4200    0.6680   -3.3900 oh        1 HA7     -0.228000
     11 C5          0.7230   -0.4560    1.1990 c3        1 HA7     -0.090000
     12 C6          1.0060   -0.0290   -0.1500 c2        1 HA7      0.051000
     13 C7          1.7780    0.0740    2.2030 c2        1 HA7      0.357000
     14 HN2        -0.7450    0.8330    1.8300 hn        1 HA7      0.179000
     15 H3         -2.1880   -0.1140   -1.0470 hc        1 HA7      0.079500
     16 H3A        -1.6360    1.2010   -0.5580 hc        1 HA7      0.079500
     17 H4         -2.3710    0.0170    1.3710 h1        1 HA7      0.072000
     18 H4A        -1.5500   -1.3160    0.9080 h1        1 HA7      0.072000
     19 H5          0.8610   -1.4200    1.2800 h1        1 HA7      0.123000
     20 H8         -0.3150    0.2540   -4.1680 ho        1 HA7      0.220000
@<TRIPOS>BOND
     1    1    2 1   
     2    1   10 1   
     3    3   12 1   
     4    4    7 1   
     5    4   12 1   
     6    5    9 1   
     7    5   11 1   
     8    5   14 1   
     9    6   13 1   
    10    7    9 1   
    11    7   15 1   
    12    7   16 1   
    13    8   13 1   
    14    9   17 1   
    15    9   18 1   
    16   10   20 1   
    17   11   12 1   
    18   11   13 1   
    19   11   19 1   
@<TRIPOS>SUBSTRUCTURE
     1 HA7         1 TEMP              0 ****  ****    0 ROOT
