@<TRIPOS>MOLECULE
HA7
   20    20     1     0     0
SMALL
bcc


@<TRIPOS>ATOM
      1 C1          0.1740    0.1200   -0.3080 cc        1 HA7      0.563600
      2 N1          1.4560    0.5310   -0.4650 nd        1 HA7     -0.482300
      3 O1          1.9870    0.6640    0.7550 os        1 HA7     -0.158100
      4 C2         -0.1650   -0.0320    1.0920 cc        1 HA7     -0.574900
      5 N2         -1.6420    0.9550    4.8110 n8        1 HA7     -0.628600
      6 C3         -1.4280   -0.4720    1.6590 c3        1 HA7      0.036200
      7 C4         -2.8980    1.2620    4.8540 c1        1 HA7     -0.166500
      8 O4         -0.6540   -0.1120   -1.3770 oh        1 HA7     -0.610300
      9 C5          1.3690    0.4250    3.0580 cf        1 HA7     -0.454700
     10 C6          1.0300    0.3330    1.7590 cd        1 HA7      0.544500
     11 C7          1.4040    0.4020    4.4260 cu        1 HA7      0.478100
     12 HN2        -1.1250    0.8240    5.6580 hn        1 HA7      0.411300
     13 H3         -3.3970    1.3880    3.8660 ha        1 HA7     -0.035500
     14 H3A        -1.2590   -1.0540    2.6010 hc        1 HA7      0.010033
     15 H4         -2.0980    0.3940    1.9070 hc        1 HA7      0.010033
     16 H4A        -1.9820   -1.1320    0.9420 hc        1 HA7      0.010033
     17 H5         -1.0860    0.8230    3.9850 hn        1 HA7      0.411300
     18 H8         -1.5030   -0.3710   -0.9880 ho        1 HA7      0.415000
     19 O2          2.5960    0.7650    3.8050 os        1 HA7     -0.407200
     20 O3          1.0740    0.3010    5.5980 o         1 HA7     -0.374000
@<TRIPOS>BOND
     1    1    2 2   
     2    1    4 1   
     3    1    8 1   
     4    2    3 1   
     5    3   10 1   
     6    4    6 1   
     7    4   10 2   
     8    5    7 3   
     9    5   12 1   
    10    5   17 1   
    11    6   14 1   
    12    6   15 1   
    13    6   16 1   
    14    7   13 1   
    15    8   18 1   
    16    9   10 1   
    17    9   11 2   
    18    9   19 1   
    19   11   19 1   
    20   11   20 1   
@<TRIPOS>SUBSTRUCTURE
     1 HA7         1 TEMP              0 ****  ****    0 ROOT
