@<TRIPOS>MOLECULE
HA7
   20    20     1     0     0
SMALL
bcc


@<TRIPOS>ATOM
      1 C1          0.1110   -0.1220   -0.0530 cc        1 HA7      0.560600
      2 N1          1.4530   -0.0030   -0.1760 nd        1 HA7     -0.450300
      3 O1          1.9410    0.2860    1.0310 os        1 HA7     -0.125100
      4 C2         -0.3120    0.0870    1.3280 cc        1 HA7     -0.498900
      5 N2         -1.4220   -0.4720    4.2390 n3        1 HA7     -0.921800
      6 C3         -1.6970    0.0240    1.7940 c3        1 HA7      0.014900
      7 C4         -1.8900    0.4690    3.2440 c3        1 HA7      0.150800
      8 O4         -0.7050   -0.4090   -1.1150 oh        1 HA7     -0.599300
      9 C5          1.2200    0.4450    3.3310 ch        1 HA7     -0.101000
     10 C6          0.8960    0.3450    1.9980 cd        1 HA7      0.361700
     11 C7          1.3820    1.4620    4.3900 c         1 HA7      0.904600
     12 HN2        -1.1240    0.0390    5.0550 hn        1 HA7      0.364300
     13 H3         -1.4070    1.4840    3.3700 h1        1 HA7      0.038200
     14 H3A        -2.0910   -1.0220    1.6630 hc        1 HA7      0.025200
     15 H4         -2.9970    0.6000    3.4200 h1        1 HA7      0.038200
     16 H4A        -2.3320    0.6940    1.1480 hc        1 HA7      0.025200
     17 H5         -0.6290   -0.9820    3.8930 hn        1 HA7      0.364300
     18 H8         -1.6000   -0.4590   -0.7430 ho        1 HA7      0.424000
     19 O2          2.5370    1.9150    4.5900 o         1 HA7     -0.787300
     20 O3          0.3270    1.7420    5.0280 o         1 HA7     -0.787300
@<TRIPOS>BOND
     1    1    2 2   
     2    1    4 1   
     3    1    8 1   
     4    2    3 1   
     5    3   10 1   
     6    4    6 1   
     7    4   10 2   
     8    5    7 1   
     9    5   12 1   
    10    5   17 1   
    11    6    7 1   
    12    6   14 1   
    13    6   16 1   
    14    7   13 1   
    15    7   15 1   
    16    8   18 1   
    17    9   10 1   
    18    9   11 3   
    19   11   19 1   
    20   11   20 1   
@<TRIPOS>SUBSTRUCTURE
     1 HA7         1 TEMP              0 ****  ****    0 ROOT
