@<TRIPOS>MOLECULE
HA8
   23    24     1     0     0
SMALL
bcc


@<TRIPOS>ATOM
      1 C14        -0.1430    0.1520    0.1330 c2        1 HA8     -0.206000
      2 C13         1.1720   -0.0220    0.0310 c2        1 HA8     -0.176200
      3 C12         2.1020    0.0410    1.1870 c3        1 HA8     -0.116500
      4 C11         3.0220   -1.1480    1.1900 c2        1 HA8      0.495200
      5 N1          4.7800   -3.4380    1.3200 nb        1 HA8     -0.727000
      6 C2          5.7450   -4.4000    1.3990 ca        1 HA8      0.623900
      7 N3          7.0650   -4.2790    1.6640 nb        1 HA8     -0.629000
      8 C4          7.4680   -2.9970    1.8840 ca        1 HA8      0.548300
      9 C5          6.5150   -1.8770    1.8260 ca        1 HA8     -0.287800
     10 C6          5.1470   -2.1460    1.5340 ca        1 HA8      0.639300
     11 N10         4.2710   -1.0310    1.4970 ne        1 HA8     -0.693700
     12 N7          7.2450   -0.7260    2.0940 na        1 HA8     -0.251300
     13 C8          8.5690   -1.1450    2.3010 cc        1 HA8      0.435700
     14 N9          8.7520   -2.4720    2.1880 nd        1 HA8     -0.626700
     15 H14        -0.6490    0.3340    1.0910 ha        1 HA8      0.116000
     16 H14A       -0.8050    0.1260   -0.7430 ha        1 HA8      0.116000
     17 H13         1.6520   -0.2060   -0.9450 ha        1 HA8      0.128000
     18 H12         1.5390    0.0310    2.1610 hc        1 HA8      0.073700
     19 H12A        2.6720    1.0100    1.1430 hc        1 HA8      0.073700
     20 H11         2.5170   -2.1020    0.9220 h4        1 HA8      0.005800
     21 HN7         6.8830    0.1910    2.1320 hn        1 HA8      0.324700
     22 H8          9.3680   -0.4280    2.5340 h5        1 HA8      0.075800
     23 H2          5.3870   -5.4360    1.2160 h5        1 HA8      0.057100
@<TRIPOS>BOND
     1    1    2 2   
     2    1   15 1   
     3    1   16 1   
     4    2    3 1   
     5    2   17 1   
     6    3    4 1   
     7    3   18 1   
     8    3   19 1   
     9    4   11 2   
    10    4   20 1   
    11    5    6 ar  
    12    5   10 ar  
    13    6    7 ar  
    14    6   23 1   
    15    7    8 ar  
    16    8    9 ar  
    17    8   14 1   
    18    9   10 ar  
    19    9   12 1   
    20   10   11 1   
    21   12   13 1   
    22   12   21 1   
    23   13   14 2   
    24   13   22 1   
@<TRIPOS>SUBSTRUCTURE
     1 HA8         1 TEMP              0 ****  ****    0 ROOT
