@<TRIPOS>MOLECULE
HA8
   23    24     1     0     0
SMALL
bcc


@<TRIPOS>ATOM
      1 C14        -0.1390    0.1560    0.1190 c2        1 HA8     -0.206000
      2 C13         1.1760   -0.0230    0.0170 c2        1 HA8     -0.176200
      3 C12         2.1070    0.0450    1.1720 c3        1 HA8     -0.116500
      4 C11         3.0240   -1.1450    1.1820 c2        1 HA8      0.495200
      5 N1          4.7780   -3.4380    1.3190 nb        1 HA8     -0.727000
      6 C2          5.7410   -4.4010    1.4040 ca        1 HA8      0.623900
      7 N3          7.0600   -4.2810    1.6770 nb        1 HA8     -0.629000
      8 C4          7.4640   -3.0000    1.8990 ca        1 HA8      0.548300
      9 C5          6.5130   -1.8790    1.8350 ca        1 HA8     -0.287800
     10 C6          5.1460   -2.1460    1.5350 ca        1 HA8      0.639300
     11 N10         4.2720   -1.0300    1.4920 ne        1 HA8     -0.693700
     12 N7          7.2430   -0.7290    2.1070 na        1 HA8     -0.251300
     13 C8          8.5650   -1.1490    2.3230 cc        1 HA8      0.435700
     14 N9          8.7470   -2.4770    2.2110 nd        1 HA8     -0.626700
     15 H14        -0.6440    0.3460    1.0760 ha        1 HA8      0.116000
     16 H14A       -0.8010    0.1260   -0.7560 ha        1 HA8      0.116000
     17 H13         1.6540   -0.2150   -0.9580 ha        1 HA8      0.128000
     18 H12         1.5430    0.0420    2.1470 hc        1 HA8      0.073700
     19 H12A        2.6780    1.0130    1.1220 hc        1 HA8      0.073700
     20 H11         2.5180   -2.0990    0.9150 h4        1 HA8      0.005800
     21 HN7         6.8820    0.1880    2.1430 hn        1 HA8      0.324700
     22 H8          9.3640   -0.4340    2.5600 h5        1 HA8      0.075800
     23 H2          5.3830   -5.4370    1.2190 h5        1 HA8      0.057100
@<TRIPOS>BOND
     1    1    2 2   
     2    1   15 1   
     3    1   16 1   
     4    2    3 1   
     5    2   17 1   
     6    3    4 1   
     7    3   18 1   
     8    3   19 1   
     9    4   11 2   
    10    4   20 1   
    11    5    6 ar  
    12    5   10 ar  
    13    6    7 ar  
    14    6   23 1   
    15    7    8 ar  
    16    8    9 ar  
    17    8   14 1   
    18    9   10 ar  
    19    9   12 1   
    20   10   11 1   
    21   12   13 1   
    22   12   21 1   
    23   13   14 2   
    24   13   22 1   
@<TRIPOS>SUBSTRUCTURE
     1 HA8         1 TEMP              0 ****  ****    0 ROOT
