@<TRIPOS>MOLECULE
HA8
   23    24     1     0     0
SMALL
bcc


@<TRIPOS>ATOM
      1 C14         5.7020    0.0300    0.1510 c2        1 HA8     -0.206000
      2 C13         4.4540    0.2510    0.5540 c2        1 HA8     -0.176200
      3 C12         3.3800    0.7590   -0.3360 c3        1 HA8     -0.116500
      4 C11         2.1390   -0.0790   -0.2010 c2        1 HA8      0.495200
      5 N1         -0.2610   -1.6810   -0.0570 nb        1 HA8     -0.727000
      6 C2         -1.4840   -2.2810    0.0320 ca        1 HA8      0.623900
      7 N3         -2.7150   -1.7260    0.0910 nb        1 HA8     -0.629000
      8 C4         -2.7110   -0.3650    0.0530 ca        1 HA8      0.548300
      9 C5         -1.4510    0.3900   -0.0420 ca        1 HA8     -0.287800
     10 C6         -0.2180   -0.3220   -0.0960 ca        1 HA8      0.639300
     11 N10         0.9640    0.4550   -0.1940 ne        1 HA8     -0.693700
     12 N7         -1.7990    1.7340   -0.0580 na        1 HA8     -0.251300
     13 C8         -3.2010    1.7740    0.0240 cc        1 HA8      0.435700
     14 N9         -3.7830    0.5640    0.0920 nd        1 HA8     -0.626700
     15 H14         6.4830   -0.3230    0.8380 ha        1 HA8      0.116000
     16 H14A        6.0320    0.1850   -0.8850 ha        1 HA8      0.116000
     17 H13         4.1510    0.0830    1.6020 ha        1 HA8      0.128000
     18 H12         3.1830    1.8390   -0.0880 hc        1 HA8      0.073700
     19 H12A        3.6960    0.7180   -1.4160 hc        1 HA8      0.073700
     20 H11         2.3460   -1.1700   -0.1240 h4        1 HA8      0.005800
     21 HN7        -1.1720    2.4930   -0.1210 hn        1 HA8      0.324700
     22 H8         -3.7490    2.7260    0.0310 h5        1 HA8      0.075800
     23 H2         -1.4580   -3.3920    0.0590 h5        1 HA8      0.057100
@<TRIPOS>BOND
     1    1    2 2   
     2    1   15 1   
     3    1   16 1   
     4    2    3 1   
     5    2   17 1   
     6    3    4 1   
     7    3   18 1   
     8    3   19 1   
     9    4   11 2   
    10    4   20 1   
    11    5    6 ar  
    12    5   10 ar  
    13    6    7 ar  
    14    6   23 1   
    15    7    8 ar  
    16    8    9 ar  
    17    8   14 1   
    18    9   10 ar  
    19    9   12 1   
    20   10   11 1   
    21   12   13 1   
    22   12   21 1   
    23   13   14 2   
    24   13   22 1   
@<TRIPOS>SUBSTRUCTURE
     1 HA8         1 TEMP              0 ****  ****    0 ROOT
