@<TRIPOS>MOLECULE
HA8
   23    15     1     0     0
SMALL
bcc


@<TRIPOS>ATOM
      1 C14        -4.2240    1.5230   -1.9400 c1        1 HA8     -0.189000
      2 C13        -3.1590    0.8110   -1.5240 c1        1 HA8     -0.189000
      3 C12        -2.1870    1.4120   -0.5330 c2        1 HA8     -0.124000
      4 C11        -1.2400    0.3390   -0.0400 c2        1 HA8      0.003000
      5 N1          0.6890   -1.7530   -0.5180 n1        1 HA8     -0.201000
      6 C2          1.5820   -2.7810   -0.4220 c1        1 HA8     -0.039000
      7 N3          2.7090   -2.6390    0.3310 n1        1 HA8     -0.103000
      8 C4          2.9470   -1.4690    0.9900 c1        1 HA8      0.001000
      9 C5          2.0650   -0.4530    0.8960 c1        1 HA8     -0.112000
     10 C6          0.9200   -0.6000    0.1300 c1        1 HA8      0.092000
     11 N10         0.0320    0.4060   -0.3320 n2        1 HA8     -0.187000
     12 N7          2.5380    0.5830    1.6390 n1        1 HA8     -0.164000
     13 C8          3.7120    0.2000    2.1900 c1        1 HA8     -0.020000
     14 N9          3.9680   -1.0660    1.7920 n1        1 HA8     -0.164000
     15 H14        -4.3690    2.4290   -1.6020 DU        1 HA8      0.198000
     16 H14A       -4.8520    1.1340   -2.5810 ha        1 HA8      0.123000
     17 H13        -3.0140   -0.0940   -1.8620 ha        1 HA8      0.123000
     18 H12        -2.6820    1.7830    0.2250 ha        1 HA8      0.113000
     19 H12A       -1.6750    2.1230   -0.9680 ha        1 HA8      0.113000
     20 H11        -1.5800   -0.4040    0.4960 h4        1 HA8      0.135000
     21 H2          1.4130   -3.6190   -0.8930 ha        1 HA8      0.194000
     22 HN7         2.1340    1.3930    1.7480 DU        1 HA8      0.198000
     23 H8          4.2730    0.7410    2.7790 DU        1 HA8      0.198000
@<TRIPOS>BOND
     1    1    2 1   
     2    1   16 1   
     3    2   17 1   
     4    3    4 1   
     5    3   18 1   
     6    3   19 1   
     7    4   11 1   
     8    4   20 1   
     9    5    6 1   
    10    6   21 1   
    11    7    8 1   
    12    9   10 1   
    13   10   11 1   
    14   12   13 1   
    15   13   14 1   
@<TRIPOS>SUBSTRUCTURE
     1 HA8         1 TEMP              0 ****  ****    0 ROOT
