@<TRIPOS>MOLECULE
HA8
   23    24     1     0     0
SMALL
bcc


@<TRIPOS>ATOM
      1 C14        -0.1410    0.1530    0.1300 c2        1 HA8     -0.206000
      2 C13         1.1750   -0.0200    0.0310 c2        1 HA8     -0.176200
      3 C12         2.1010    0.0400    1.1900 c3        1 HA8     -0.116500
      4 C11         3.0210   -1.1480    1.1920 c2        1 HA8      0.495200
      5 N1          4.7790   -3.4390    1.3230 nb        1 HA8     -0.727000
      6 C2          5.7440   -4.4010    1.4010 ca        1 HA8      0.623900
      7 N3          7.0640   -4.2790    1.6650 nb        1 HA8     -0.629000
      8 C4          7.4680   -2.9970    1.8830 ca        1 HA8      0.548300
      9 C5          6.5140   -1.8770    1.8260 ca        1 HA8     -0.287800
     10 C6          5.1460   -2.1460    1.5360 ca        1 HA8      0.639300
     11 N10         4.2700   -1.0320    1.5000 ne        1 HA8     -0.693700
     12 N7          7.2450   -0.7260    2.0920 na        1 HA8     -0.251300
     13 C8          8.5690   -1.1440    2.2980 cc        1 HA8      0.435700
     14 N9          8.7520   -2.4720    2.1850 nd        1 HA8     -0.626700
     15 H14        -0.6500    0.3310    1.0870 ha        1 HA8      0.116000
     16 H14A       -0.8000    0.1290   -0.7480 ha        1 HA8      0.116000
     17 H13         1.6570   -0.2000   -0.9440 ha        1 HA8      0.128000
     18 H12         1.5350    0.0270    2.1620 hc        1 HA8      0.073700
     19 H12A        2.6710    1.0100    1.1500 hc        1 HA8      0.073700
     20 H11         2.5160   -2.1020    0.9220 h4        1 HA8      0.005800
     21 HN7         6.8830    0.1910    2.1310 hn        1 HA8      0.324700
     22 H8          9.3690   -0.4270    2.5300 h5        1 HA8      0.075800
     23 H2          5.3860   -5.4370    1.2190 h5        1 HA8      0.057100
@<TRIPOS>BOND
     1    1    2 2   
     2    1   15 1   
     3    1   16 1   
     4    2    3 1   
     5    2   17 1   
     6    3    4 1   
     7    3   18 1   
     8    3   19 1   
     9    4   11 2   
    10    4   20 1   
    11    5    6 ar  
    12    5   10 ar  
    13    6    7 ar  
    14    6   23 1   
    15    7    8 ar  
    16    8    9 ar  
    17    8   14 1   
    18    9   10 ar  
    19    9   12 1   
    20   10   11 1   
    21   12   13 1   
    22   12   21 1   
    23   13   14 2   
    24   13   22 1   
@<TRIPOS>SUBSTRUCTURE
     1 HA8         1 TEMP              0 ****  ****    0 ROOT
