@<TRIPOS>MOLECULE
HAA
   19    16     1     0     0
SMALL
bcc


@<TRIPOS>ATOM
      1 C1         -2.0150   -0.3420   -2.2360 c1        1 HAA      0.339000
      2 C2         -0.5190   -0.0960   -2.1940 c2        1 HAA     -0.212000
      3 C1'        -0.0540   -0.0920   -0.7670 c2        1 HAA     -0.004000
      4 C2'         0.1470    1.0990   -0.1130 c1        1 HAA     -0.187000
      5 C3'         0.6210    1.1010    1.1810 c1        1 HAA     -0.028000
      6 O3'         0.8540    2.3110    1.8400 oh        1 HAA     -0.292000
      7 C4'         0.8990   -0.1190    1.8300 c1        1 HAA      0.023000
      8 O4'         1.4720   -0.1180    3.2240 o         1 HAA     -0.269000
      9 C5'         0.6950   -1.3230    1.1670 c2        1 HAA     -0.141000
     10 C6'         0.2290   -1.3280   -0.1030 c2        1 HAA     -0.118000
     11 O1         -2.7880    0.5780   -2.5430 o         1 HAA     -0.573500
     12 O2         -2.4830   -1.5100   -1.9460 o         1 HAA     -0.573500
     13 H21        -0.3130    0.7890   -2.6150 ha        1 HAA      0.077000
     14 H22        -0.0660   -0.7970   -2.6790 ha        1 HAA      0.077000
     15 H2'        -0.1190    1.9210   -0.5250 ha        1 HAA      0.125000
     16 HO3         1.6150    2.6520    1.5650 ho        1 HAA      0.214000
     17 HO4         0.8330   -0.3670    3.8130 ho        1 HAA      0.217000
     18 H5'         0.9000   -2.2190    1.6460 ha        1 HAA      0.134000
     19 H6'         0.0930   -2.1390   -0.5440 ha        1 HAA      0.192000
@<TRIPOS>BOND
     1    1   11 1   
     2    1   12 1   
     3    2    3 1   
     4    2   13 1   
     5    2   14 1   
     6    3    4 1   
     7    3   10 1   
     8    4   15 1   
     9    5    6 1   
    10    5    7 1   
    11    6   16 1   
    12    7    9 1   
    13    8   17 1   
    14    9   10 1   
    15    9   18 1   
    16   10   19 1   
@<TRIPOS>SUBSTRUCTURE
     1 HAA         1 TEMP              0 ****  ****    0 ROOT
