@<TRIPOS>MOLECULE
HAA
   19    19     1     0     0
SMALL
bcc


@<TRIPOS>ATOM
      1 C1          0.0580    0.5520   -0.0980 c         1 HAA      0.917600
      2 C2          1.4450   -0.1170    0.0510 c3        1 HAA     -0.173100
      3 C1'         1.9510   -0.1520    1.4430 ca        1 HAA     -0.014300
      4 C2'         1.8320    0.9810    2.2600 ca        1 HAA     -0.162000
      5 C3'         2.3320    0.9540    3.5620 ca        1 HAA      0.030100
      6 O3'         2.2460    2.0390    4.4190 oh        1 HAA     -0.542100
      7 C4'         2.9600   -0.2010    4.0680 ca        1 HAA      0.066100
      8 O4'         3.4860   -0.2680    5.3440 oh        1 HAA     -0.519100
      9 C5'         3.0740   -1.3330    3.2530 ca        1 HAA     -0.146000
     10 C6'         2.5700   -1.3010    1.9560 ca        1 HAA     -0.152000
     11 O1         -0.0540    1.7780    0.1970 o         1 HAA     -0.841800
     12 O2         -0.8830   -0.1570   -0.5480 o         1 HAA     -0.841800
     13 H21         2.1630    0.4730   -0.5780 hc        1 HAA      0.039200
     14 H22         1.3850   -1.1550   -0.3670 hc        1 HAA      0.039200
     15 H2'         1.3060    1.8690    1.8570 ha        1 HAA      0.198000
     16 HO3         1.6470    2.6770    4.0050 ho        1 HAA      0.428000
     17 HO4         3.2350    0.5490    5.7970 ho        1 HAA      0.422000
     18 H5'         3.5580   -2.2350    3.6520 ha        1 HAA      0.128000
     19 H6'         2.6520   -2.1970    1.3240 ha        1 HAA      0.124000
@<TRIPOS>BOND
     1    1    2 1   
     2    1   11 1   
     3    1   12 1   
     4    2    3 1   
     5    2   13 1   
     6    2   14 1   
     7    3    4 ar  
     8    3   10 ar  
     9    4    5 ar  
    10    4   15 1   
    11    5    6 1   
    12    5    7 ar  
    13    6   16 1   
    14    7    8 1   
    15    7    9 ar  
    16    8   17 1   
    17    9   10 ar  
    18    9   18 1   
    19   10   19 1   
@<TRIPOS>SUBSTRUCTURE
     1 HAA         1 TEMP              0 ****  ****    0 ROOT
