@<TRIPOS>MOLECULE
HAA
   19    19     1     0     0
SMALL
bcc


@<TRIPOS>ATOM
      1 C1         -0.5340    0.0480    2.6900 c         1 HAA      0.917600
      2 C2          0.4370   -0.8610    1.9000 c3        1 HAA     -0.173100
      3 C1'         0.4670   -0.5900    0.4430 ca        1 HAA     -0.014300
      4 C2'        -0.7310   -0.3810   -0.2550 ca        1 HAA     -0.162000
      5 C3'        -0.7020   -0.1500   -1.6300 ca        1 HAA      0.030100
      6 O3'        -1.8500    0.0630   -2.3770 oh        1 HAA     -0.542100
      7 C4'         0.5200   -0.1280   -2.3300 ca        1 HAA      0.066100
      8 O4'         0.5960    0.0780   -3.6950 oh        1 HAA     -0.519100
      9 C5'         1.7150   -0.3320   -1.6330 ca        1 HAA     -0.146000
     10 C6'         1.6800   -0.5580   -0.2590 ca        1 HAA     -0.152000
     11 O1         -0.0380    0.7920    3.5790 o         1 HAA     -0.841800
     12 O2         -1.7720   -0.0280    2.4360 o         1 HAA     -0.841800
     13 H21         1.4630   -0.7500    2.3370 hc        1 HAA      0.039200
     14 H22         0.1010   -1.9190    2.0610 hc        1 HAA      0.039200
     15 H2'        -1.6790   -0.3680    0.3170 ha        1 HAA      0.198000
     16 HO3        -2.5730    0.1950   -1.7480 ho        1 HAA      0.428000
     17 HO4        -0.2960    0.2990   -3.9980 ho        1 HAA      0.422000
     18 H5'         2.6670   -0.3060   -2.1800 ha        1 HAA      0.128000
     19 H6'         2.6230   -0.7060    0.2860 ha        1 HAA      0.124000
@<TRIPOS>BOND
     1    1    2 1   
     2    1   11 1   
     3    1   12 1   
     4    2    3 1   
     5    2   13 1   
     6    2   14 1   
     7    3    4 ar  
     8    3   10 ar  
     9    4    5 ar  
    10    4   15 1   
    11    5    6 1   
    12    5    7 ar  
    13    6   16 1   
    14    7    8 1   
    15    7    9 ar  
    16    8   17 1   
    17    9   10 ar  
    18    9   18 1   
    19   10   19 1   
@<TRIPOS>SUBSTRUCTURE
     1 HAA         1 TEMP              0 ****  ****    0 ROOT
