@<TRIPOS>MOLECULE
HAB
   27    22     1     0     0
SMALL
bcc


@<TRIPOS>ATOM
      1 C1         -0.2040   -1.7300   -0.0820 cg        1 HAB     -0.047500
      2 C2          1.1520   -2.0150   -0.0920 cg        1 HAB     -0.045200
      3 C3          1.8560   -2.0750    1.1000 c1        1 HAB     -0.050500
      4 C4          1.2050   -1.8500    2.3020 c1        1 HAB     -0.085250
      5 C5         -0.1510   -1.5640    2.3120 c1        1 HAB     -0.085250
      6 C6         -0.8560   -1.5050    1.1220 c1        1 HAB     -0.049500
      7 C1'        -1.0500    0.5160   -1.2350 ch        1 HAB     -0.047500
      8 C2'        -0.0210    1.2960   -1.7410 c1        1 HAB     -0.049500
      9 C3'         0.1890    2.5750   -1.2470 c1        1 HAB     -0.156500
     10 C4'        -0.6310    3.0730   -0.2460 c1        1 HAB      0.087600
     11 C5'        -1.6600    2.2920    0.2600 c1        1 HAB     -0.085250
     12 C6'        -1.8690    1.0140   -0.2350 c1        1 HAB     -0.085250
     13 C           1.8680   -2.2380   -1.4060 c         1 HAB      0.863800
     14 N1         -0.9480   -1.7890   -1.2900 ne        1 HAB     -0.035500
     15 N1'        -1.3430   -0.7400   -1.8280 nf        1 HAB     -0.035500
     16 O           1.4900   -3.1550   -2.1810 o         1 HAB     -0.822800
     17 OXT         2.8580   -1.5220   -1.7130 o         1 HAB     -0.822800
     18 O4'        -0.4750    4.4010    0.1930 oh        1 HAB     -0.498600
     19 H3          2.8110   -2.2760    1.0930 ha        1 HAB      0.090500
     20 H4          1.7020   -1.8920    3.1420 ha        1 HAB      0.063000
     21 H5         -0.6100   -1.4060    3.1590 ha        1 HAB      0.063000
     22 H6         -1.8090   -1.3040    1.1290 ha        1 HAB      0.112500
     23 H2'         0.5430    0.9540   -2.4600 ha        1 HAB      0.112500
     24 H3'         0.8640    3.1500   -1.6540 ha        1 HAB      0.072500
     25 H5'        -2.2570    2.6550    0.9440 ha        1 HAB      0.063000
     26 H6'        -2.7910    0.7030   -0.1810 ha        1 HAB      0.063000
     27 HO4'        0.1380    4.4310    0.8370 ho        1 HAB      0.411000
@<TRIPOS>BOND
     1    1    6 3   
     2    1   14 1   
     3    2    3 3   
     4    2   13 1   
     5    3   19 1   
     6    4    5 3   
     7    4   20 1   
     8    5   21 1   
     9    6   22 1   
    10    7    8 3   
    11    7   15 1   
    12    8   23 1   
    13    9   10 3   
    14    9   24 1   
    15   10   18 1   
    16   11   12 3   
    17   11   25 1   
    18   12   26 1   
    19   13   16 1   
    20   13   17 1   
    21   14   15 2   
    22   18   27 1   
@<TRIPOS>SUBSTRUCTURE
     1 HAB         1 TEMP              0 ****  ****    0 ROOT
