@<TRIPOS>MOLECULE
HAB
   27    28     1     0     0
SMALL
bcc


@<TRIPOS>ATOM
      1 C1         -0.2060   -0.2120    0.2590 ca        1 HAB      0.121400
      2 C2          1.1600    0.0430    0.0090 ca        1 HAB     -0.097600
      3 C3          2.0270    0.1350    1.1030 ca        1 HAB     -0.105000
      4 C4          1.5650   -0.0010    2.4090 ca        1 HAB     -0.159000
      5 C5          0.2120   -0.2350    2.6470 ca        1 HAB     -0.152000
      6 C6         -0.6760   -0.3370    1.5800 ca        1 HAB     -0.151000
      7 C1'        -2.6070    0.1940   -2.4310 ca        1 HAB      0.088400
      8 C2'        -4.0110    0.1550   -2.4230 ca        1 HAB     -0.082500
      9 C3'        -4.7200    0.0960   -3.6200 ca        1 HAB     -0.191500
     10 C4'        -4.0170    0.0780   -4.8320 ca        1 HAB      0.098100
     11 C5'        -2.6150    0.1150   -4.8540 ca        1 HAB     -0.191500
     12 C6'        -1.9100    0.1670   -3.6590 ca        1 HAB     -0.082500
     13 C           1.7500    0.2180   -1.3890 c         1 HAB      0.916200
     14 N1         -1.0780   -0.4590   -0.8610 ne        1 HAB     -0.153400
     15 N1'        -1.8790    0.4020   -1.2020 nf        1 HAB     -0.186400
     16 O           1.0250    0.6830   -2.3130 o         1 HAB     -0.828300
     17 OXT         2.9630   -0.0980   -1.5370 o         1 HAB     -0.828300
     18 O4'        -4.7740    0.0210   -5.9870 oh        1 HAB     -0.515100
     19 H3          3.0960    0.3070    0.8930 ha        1 HAB      0.155000
     20 H4          2.2650    0.0770    3.2530 ha        1 HAB      0.108000
     21 H5         -0.1590   -0.3380    3.6760 ha        1 HAB      0.106000
     22 H6         -1.7420   -0.5180    1.7750 ha        1 HAB      0.116000
     23 H2'        -4.5640    0.1700   -1.4720 ha        1 HAB      0.171500
     24 H3'        -5.8170    0.0640   -3.6260 ha        1 HAB      0.131500
     25 H5'        -2.0750    0.1010   -5.8110 ha        1 HAB      0.131500
     26 H6'        -0.7990    0.2070   -3.6530 ha        1 HAB      0.171500
     27 HO4'       -4.1590    0.0170   -6.7340 ho        1 HAB      0.410000
@<TRIPOS>BOND
     1    1    2 ar  
     2    1    6 ar  
     3    1   14 1   
     4    2    3 ar  
     5    2   13 1   
     6    3    4 ar  
     7    3   19 1   
     8    4    5 ar  
     9    4   20 1   
    10    5    6 ar  
    11    5   21 1   
    12    6   22 1   
    13    7    8 ar  
    14    7   12 ar  
    15    7   15 1   
    16    8    9 ar  
    17    8   23 1   
    18    9   10 ar  
    19    9   24 1   
    20   10   11 ar  
    21   10   18 1   
    22   11   12 ar  
    23   11   25 1   
    24   12   26 1   
    25   13   16 1   
    26   13   17 1   
    27   14   15 2   
    28   18   27 1   
@<TRIPOS>SUBSTRUCTURE
     1 HAB         1 TEMP              0 ****  ****    0 ROOT
