@<TRIPOS>MOLECULE
HAB
   27    28     1     0     0
SMALL
bcc


@<TRIPOS>ATOM
      1 C1         -0.2070    0.1890    0.2720 ca        1 HAB      0.121400
      2 C2          1.1670    0.0160   -0.0030 ca        1 HAB     -0.098600
      3 C3          2.0450   -0.1290    1.0770 ca        1 HAB     -0.105000
      4 C4          1.5860   -0.1230    2.3910 ca        1 HAB     -0.159000
      5 C5          0.2260    0.0310    2.6510 ca        1 HAB     -0.152000
      6 C6         -0.6730    0.1820    1.5990 ca        1 HAB     -0.152000
      7 C1'        -2.6050   -0.0960   -2.4360 ca        1 HAB      0.088400
      8 C2'        -4.0100   -0.1190   -2.4210 ca        1 HAB     -0.082500
      9 C3'        -4.7280    0.0080   -3.6070 ca        1 HAB     -0.191500
     10 C4'        -4.0350    0.1600   -4.8150 ca        1 HAB      0.098100
     11 C5'        -2.6330    0.1870   -4.8440 ca        1 HAB     -0.191500
     12 C6'        -1.9180    0.0660   -3.6590 ca        1 HAB     -0.082500
     13 C           1.7550   -0.0150   -1.4130 c         1 HAB      0.916200
     14 N1         -1.0970    0.4900   -0.8210 ne        1 HAB     -0.153400
     15 N1'        -1.8610   -0.3740   -1.2310 nf        1 HAB     -0.186400
     16 O           1.0450   -0.4310   -2.3700 o         1 HAB     -0.828300
     17 OXT         2.9530    0.3640   -1.5370 o         1 HAB     -0.828300
     18 O4'        -4.8010    0.2810   -5.9590 oh        1 HAB     -0.515100
     19 H3          3.1190   -0.2360    0.8500 ha        1 HAB      0.155000
     20 H4          2.2950   -0.2400    3.2230 ha        1 HAB      0.108000
     21 H5         -0.1430    0.0310    3.6860 ha        1 HAB      0.106000
     22 H6         -1.7450    0.2990    1.8120 ha        1 HAB      0.116000
     23 H2'        -4.5550   -0.2400   -1.4740 ha        1 HAB      0.171500
     24 H3'        -5.8250   -0.0080   -3.6070 ha        1 HAB      0.131500
     25 H5'        -2.1010    0.3070   -5.7980 ha        1 HAB      0.131500
     26 H6'        -0.8060    0.0750   -3.6600 ha        1 HAB      0.171500
     27 HO4'       -4.1920    0.3760   -6.7050 ho        1 HAB      0.410000
@<TRIPOS>BOND
     1    1    2 ar  
     2    1    6 ar  
     3    1   14 1   
     4    2    3 ar  
     5    2   13 1   
     6    3    4 ar  
     7    3   19 1   
     8    4    5 ar  
     9    4   20 1   
    10    5    6 ar  
    11    5   21 1   
    12    6   22 1   
    13    7    8 ar  
    14    7   12 ar  
    15    7   15 1   
    16    8    9 ar  
    17    8   23 1   
    18    9   10 ar  
    19    9   24 1   
    20   10   11 ar  
    21   10   18 1   
    22   11   12 ar  
    23   11   25 1   
    24   12   26 1   
    25   13   16 1   
    26   13   17 1   
    27   14   15 2   
    28   18   27 1   
@<TRIPOS>SUBSTRUCTURE
     1 HAB         1 TEMP              0 ****  ****    0 ROOT
