@<TRIPOS>MOLECULE
HAB
   27    28     1     0     0
SMALL
bcc


@<TRIPOS>ATOM
      1 C1         -0.2020   -0.2050    0.2580 ca        1 HAB      0.121400
      2 C2          1.1650    0.0360    0.0010 ca        1 HAB     -0.097600
      3 C3          2.0380    0.1300    1.0900 ca        1 HAB     -0.105000
      4 C4          1.5800    0.0100    2.3990 ca        1 HAB     -0.159000
      5 C5          0.2250   -0.2110    2.6440 ca        1 HAB     -0.152000
      6 C6         -0.6680   -0.3140    1.5810 ca        1 HAB     -0.152000
      7 C1'        -2.6090    0.1980   -2.4270 ca        1 HAB      0.088400
      8 C2'        -4.0140    0.1710   -2.4140 ca        1 HAB     -0.082500
      9 C3'        -4.7270    0.1080   -3.6070 ca        1 HAB     -0.191500
     10 C4'        -4.0290    0.0720   -4.8220 ca        1 HAB      0.098100
     11 C5'        -2.6280    0.0970   -4.8490 ca        1 HAB     -0.191500
     12 C6'        -1.9170    0.1530   -3.6570 ca        1 HAB     -0.082500
     13 C           1.7510    0.1940   -1.4010 c         1 HAB      0.916200
     14 N1         -1.0810   -0.4540   -0.8570 ne        1 HAB     -0.153400
     15 N1'        -1.8750    0.4110   -1.2020 nf        1 HAB     -0.186400
     16 O           1.0270    0.6560   -2.3270 o         1 HAB     -0.828300
     17 OXT         2.9620   -0.1330   -1.5510 o         1 HAB     -0.828300
     18 O4'        -4.7910    0.0110   -5.9730 oh        1 HAB     -0.515100
     19 H3          3.1070    0.2910    0.8750 ha        1 HAB      0.155000
     20 H4          2.2830    0.0890    3.2390 ha        1 HAB      0.108000
     21 H5         -0.1430   -0.3020    3.6750 ha        1 HAB      0.106000
     22 H6         -1.7350   -0.4840    1.7820 ha        1 HAB      0.116000
     23 H2'        -4.5630    0.2000   -1.4610 ha        1 HAB      0.171500
     24 H3'        -5.8240    0.0850   -3.6090 ha        1 HAB      0.131500
     25 H5'        -2.0910    0.0690   -5.8080 ha        1 HAB      0.131500
     26 H6'        -0.8060    0.1840   -3.6560 ha        1 HAB      0.171500
     27 HO4'       -4.1800   -0.0050   -6.7220 ho        1 HAB      0.410000
@<TRIPOS>BOND
     1    1    2 ar  
     2    1    6 ar  
     3    1   14 1   
     4    2    3 ar  
     5    2   13 1   
     6    3    4 ar  
     7    3   19 1   
     8    4    5 ar  
     9    4   20 1   
    10    5    6 ar  
    11    5   21 1   
    12    6   22 1   
    13    7    8 ar  
    14    7   12 ar  
    15    7   15 1   
    16    8    9 ar  
    17    8   23 1   
    18    9   10 ar  
    19    9   24 1   
    20   10   11 ar  
    21   10   18 1   
    22   11   12 ar  
    23   11   25 1   
    24   12   26 1   
    25   13   16 1   
    26   13   17 1   
    27   14   15 2   
    28   18   27 1   
@<TRIPOS>SUBSTRUCTURE
     1 HAB         1 TEMP              0 ****  ****    0 ROOT
