@<TRIPOS>MOLECULE
HAB
   27    28     1     0     0
SMALL
bcc


@<TRIPOS>ATOM
      1 C1          0.9530    0.1910   -1.7330 ca        1 HAB      0.121400
      2 C2         -0.1650    0.0170   -2.5780 ca        1 HAB     -0.098600
      3 C3          0.0590   -0.1210   -3.9520 ca        1 HAB     -0.105000
      4 C4          1.3460   -0.1080   -4.4830 ca        1 HAB     -0.159000
      5 C5          2.4440    0.0470   -3.6380 ca        1 HAB     -0.152000
      6 C6          2.2550    0.1920   -2.2680 ca        1 HAB     -0.152000
      7 C1'         0.5250   -0.1100    1.8570 ca        1 HAB      0.088400
      8 C2'         1.4700   -0.1340    2.8970 ca        1 HAB     -0.082500
      9 C3'         1.0610   -0.0140    4.2220 ca        1 HAB     -0.191500
     10 C4'        -0.3030    0.1310    4.5080 ca        1 HAB      0.098100
     11 C5'        -1.2560    0.1590    3.4800 ca        1 HAB     -0.191500
     12 C6'        -0.8460    0.0440    2.1570 ca        1 HAB     -0.082500
     13 C          -1.6080   -0.0220   -2.0800 c         1 HAB      0.916200
     14 N1          0.7270    0.4860   -0.3410 ne        1 HAB     -0.153400
     15 N1'         0.9320   -0.3810    0.4990 nf        1 HAB     -0.186400
     16 O          -1.8500   -0.4440   -0.9150 o         1 HAB     -0.828300
     17 OXT        -2.4990    0.3570   -2.8910 o         1 HAB     -0.828300
     18 O4'        -0.6490    0.2450    5.8410 oh        1 HAB     -0.515100
     19 H3         -0.8240   -0.2290   -4.6040 ha        1 HAB      0.155000
     20 H4          1.4980   -0.2200   -5.5650 ha        1 HAB      0.108000
     21 H5          3.4620    0.0530   -4.0510 ha        1 HAB      0.106000
     22 H6          3.1260    0.3100   -1.6070 ha        1 HAB      0.116000
     23 H2'         2.5410   -0.2500    2.6740 ha        1 HAB      0.171500
     24 H3'         1.7910   -0.0310    5.0420 ha        1 HAB      0.131500
     25 H5'        -2.3230    0.2730    3.7160 ha        1 HAB      0.131500
     26 H6'        -1.5860    0.0540    1.3280 ha        1 HAB      0.171500
     27 HO4'       -1.6110    0.3350    5.8820 ho        1 HAB      0.410000
@<TRIPOS>BOND
     1    1    2 ar  
     2    1    6 ar  
     3    1   14 1   
     4    2    3 ar  
     5    2   13 1   
     6    3    4 ar  
     7    3   19 1   
     8    4    5 ar  
     9    4   20 1   
    10    5    6 ar  
    11    5   21 1   
    12    6   22 1   
    13    7    8 ar  
    14    7   12 ar  
    15    7   15 1   
    16    8    9 ar  
    17    8   23 1   
    18    9   10 ar  
    19    9   24 1   
    20   10   11 ar  
    21   10   18 1   
    22   11   12 ar  
    23   11   25 1   
    24   12   26 1   
    25   13   16 1   
    26   13   17 1   
    27   14   15 2   
    28   18   27 1   
@<TRIPOS>SUBSTRUCTURE
     1 HAB         1 TEMP              0 ****  ****    0 ROOT
