@<TRIPOS>MOLECULE
HAC
   28    28     1     0     0
SMALL
bcc


@<TRIPOS>ATOM
      1 C1          2.1000   -2.6020   -1.9760 c3        1 HAC     -0.062700
      2 C2          2.2540   -1.1180   -2.2810 c3        1 HAC     -0.072900
      3 C3          1.1030   -0.3130   -1.7150 c3        1 HAC     -0.074400
      4 C4          0.9580   -0.5310   -0.2220 c3        1 HAC     -0.072400
      5 C5          0.8140   -2.0050    0.0990 c3        1 HAC     -0.074400
      6 C6          1.9630   -2.8090   -0.4720 c3        1 HAC     -0.072900
      7 C7          3.2840   -3.3970   -2.5060 c3        1 HAC     -0.060400
      8 C8          3.2600   -3.6040   -4.0210 c3        1 HAC      0.017500
      9 C9          4.6820   -4.0880   -4.4670 c         1 HAC      0.886600
     10 N8          2.1690   -4.4600   -4.4730 n3        1 HAC     -0.891800
     11 O1          4.7620   -5.1430   -5.1600 o         1 HAC     -0.845300
     12 O2          5.6710   -3.3830   -4.1260 o         1 HAC     -0.845300
     13 H1          1.1580   -2.9690   -2.4700 hc        1 HAC      0.057700
     14 H21         2.3030   -0.9720   -3.3920 hc        1 HAC      0.039700
     15 H22         3.2210   -0.7470   -1.8510 hc        1 HAC      0.039700
     16 H31         0.1510   -0.6100   -2.2280 hc        1 HAC      0.026950
     17 H32         1.2690    0.7770   -1.9190 hc        1 HAC      0.026950
     18 H41         1.8610   -0.1220    0.3030 hc        1 HAC      0.025200
     19 H42         0.0650    0.0280    0.1580 hc        1 HAC      0.025200
     20 H51         0.7720   -2.1430    1.2110 hc        1 HAC      0.026950
     21 H52        -0.1530   -2.3840   -0.3250 hc        1 HAC      0.026950
     22 H61         2.9200   -2.5110    0.0310 hc        1 HAC      0.039700
     23 H62         1.7960   -3.8970   -0.2600 hc        1 HAC      0.039700
     24 H71         4.2420   -2.8630   -2.2610 hc        1 HAC      0.046700
     25 H72         3.3160   -4.3940   -1.9930 hc        1 HAC      0.046700
     26 H8          3.1010   -2.6020   -4.5160 h1        1 HAC      0.040700
     27 HN81        2.1830   -5.3060   -3.9300 hn        1 HAC      0.329800
     28 HN82        2.3800   -4.7340   -5.4190 hn        1 HAC      0.329800
@<TRIPOS>BOND
     1    1    2 1   
     2    1    6 1   
     3    1    7 1   
     4    1   13 1   
     5    2    3 1   
     6    2   14 1   
     7    2   15 1   
     8    3    4 1   
     9    3   16 1   
    10    3   17 1   
    11    4    5 1   
    12    4   18 1   
    13    4   19 1   
    14    5    6 1   
    15    5   20 1   
    16    5   21 1   
    17    6   22 1   
    18    6   23 1   
    19    7    8 1   
    20    7   24 1   
    21    7   25 1   
    22    8    9 1   
    23    8   10 1   
    24    8   26 1   
    25    9   11 1   
    26    9   12 1   
    27   10   27 1   
    28   10   28 1   
@<TRIPOS>SUBSTRUCTURE
     1 HAC         1 TEMP              0 ****  ****    0 ROOT
