@<TRIPOS>MOLECULE
HAD
   12    11     1     0     0
SMALL
bcc


@<TRIPOS>ATOM
      1 C1         -0.0850   -0.9320   -0.0370 c3        1 HAD     -0.077000
      2 C2          1.4270   -1.0630    0.0270 c         1 HAD      0.900600
      3 O1          2.1070   -0.9600   -1.0170 o         1 HAD     -0.881300
      4 O2          1.9980   -1.2530    1.1380 o         1 HAD     -0.881300
      5 N          -0.4390    0.4480   -0.2680 n         1 HAD     -0.282300
      6 OH         -0.6140    0.9050   -1.5490 oh        1 HAD     -0.467100
      7 C          -0.6100    1.3330    0.8330 c         1 HAD      0.952600
      8 O          -0.7540    0.8720    1.9920 o         1 HAD     -0.860300
      9 OXT        -0.6600    2.5810    0.6380 o         1 HAD     -0.860300
     10 H11        -0.4310   -1.4870   -0.7720 h1        1 HAD      0.028700
     11 H12        -0.4740   -1.2320    0.8080 h1        1 HAD      0.028700
     12 HO         -1.4650    0.7890   -1.7920 ho        1 HAD      0.398000
@<TRIPOS>BOND
     1    1    2 1   
     2    1    5 1   
     3    1   10 1   
     4    1   11 1   
     5    2    3 1   
     6    2    4 1   
     7    5    6 1   
     8    5    7 1   
     9    6   12 1   
    10    7    8 1   
    11    7    9 1   
@<TRIPOS>SUBSTRUCTURE
     1 HAD         1 TEMP              0 ****  ****    0 ROOT
