@<TRIPOS>MOLECULE
HAD
   12    11     1     0     0
SMALL
bcc


@<TRIPOS>ATOM
      1 C1          0.1000    0.2440    0.0270 c3        1 HAD     -0.077000
      2 C2          1.4610   -0.4700    0.1250 c         1 HAD      0.900600
      3 O1          1.8920   -0.9220    1.2280 o         1 HAD     -0.881300
      4 O2          2.1360   -0.5660   -0.9500 o         1 HAD     -0.881300
      5 N          -0.9120    0.0330    1.0650 n         1 HAD     -0.282300
      6 OH         -0.7560   -1.1010    1.7390 oh        1 HAD     -0.467100
      7 C          -1.1090    1.2070    1.9590 c         1 HAD      0.952600
      8 O          -1.2800    2.3450    1.4240 o         1 HAD     -0.860300
      9 OXT        -1.1750    1.0110    3.2110 o         1 HAD     -0.860300
     10 H11        -0.3750   -0.0910   -0.9380 h1        1 HAD      0.028700
     11 H12         0.3070    1.3470   -0.0620 h1        1 HAD      0.028700
     12 HO          0.0460   -1.0370    2.3010 ho        1 HAD      0.398000
@<TRIPOS>BOND
     1    1    2 1   
     2    1    5 1   
     3    1   10 1   
     4    1   11 1   
     5    2    3 1   
     6    2    4 1   
     7    5    6 1   
     8    5    7 1   
     9    6   12 1   
    10    7    8 1   
    11    7    9 1   
@<TRIPOS>SUBSTRUCTURE
     1 HAD         1 TEMP              0 ****  ****    0 ROOT
