@<TRIPOS>MOLECULE
HAE
   11    10     1     0     0
SMALL
bcc


@<TRIPOS>ATOM
      1 C1          0.2170    0.4700    0.0290 c3        1 HAE     -0.173100
      2 C2          1.3830   -0.4330    0.1340 c         1 HAE      0.602100
      3 O2          1.8060   -1.1480    1.0150 o         1 HAE     -0.370100
      4 N           2.2890   -0.5020   -1.1570 n4        1 HAE     -0.488300
      5 O           2.4430    0.7590   -1.6120 oh        1 HAE     -0.359300
      6 H11         0.5520    1.5140   -0.2160 hc        1 HAE      0.128033
      7 H12        -0.3190    0.4740    1.0160 hc        1 HAE      0.128033
      8 H13        -0.4870    0.1210   -0.7710 hc        1 HAE      0.128033
      9 HN          1.8170   -1.0880   -1.8670 hn        1 HAE      0.463800
     10 HO          3.1090    0.7660   -2.3380 ho        1 HAE      0.477000
     11 HN3         3.1980   -0.9330   -0.9080 hn        1 HAE      0.463800
@<TRIPOS>BOND
     1    1    2 1   
     2    1    6 1   
     3    1    7 1   
     4    1    8 1   
     5    2    3 2   
     6    2    4 1   
     7    4    5 1   
     8    4    9 1   
     9    4   11 1   
    10    5   10 1   
@<TRIPOS>SUBSTRUCTURE
     1 HAE         1 TEMP              0 ****  ****    0 ROOT
