@<TRIPOS>MOLECULE
HAE
   11    10     1     0     0
SMALL
bcc


@<TRIPOS>ATOM
      1 C1          0.0040   -0.0000    0.0220 c3        1 HAE     -0.190100
      2 C2          1.4870   -0.0000    0.1250 c         1 HAE      0.572100
      3 O2          2.2300    0.0000    1.0760 o         1 HAE     -0.317100
      4 N           2.1800   -0.0000   -1.2890 n4        1 HAE     -0.485300
      5 O           3.5150    0.0000   -1.0890 oh        1 HAE     -0.339300
      6 H11        -0.4140   -0.0000    1.0670 hc        1 HAE      0.123700
      7 H12        -0.3660   -0.9150   -0.5070 hc        1 HAE      0.123700
      8 H13        -0.3660    0.9150   -0.5080 hc        1 HAE      0.123700
      9 HN          1.8820   -0.8440   -1.8060 hn        1 HAE      0.458800
     10 HO          3.9760   -0.0000   -1.9600 ho        1 HAE      0.470000
     11 HN3         1.8820    0.8430   -1.8060 hn        1 HAE      0.458800
@<TRIPOS>BOND
     1    1    2 1   
     2    1    6 1   
     3    1    7 1   
     4    1    8 1   
     5    2    3 2   
     6    2    4 1   
     7    4    5 1   
     8    4    9 1   
     9    4   11 1   
    10    5   10 1   
@<TRIPOS>SUBSTRUCTURE
     1 HAE         1 TEMP              0 ****  ****    0 ROOT
