@<TRIPOS>MOLECULE
HAE
   10     9     1     0     0
SMALL
bcc


@<TRIPOS>ATOM
      1 C1         -1.3630   -0.3000    0.5890 c3        1 HAE     -0.179100
      2 C2          0.1170    0.0110    0.5450 c         1 HAE      0.588100
      3 O2          0.7420    0.1380    1.5790 o         1 HAE     -0.559100
      4 N           0.7750    0.1540   -0.7030 n         1 HAE     -0.355400
      5 O           2.1150    0.4350   -0.7430 oh        1 HAE     -0.439100
      6 H11        -1.5280   -1.1680    0.1640 hc        1 HAE      0.071033
      7 H12        -1.8580    0.3980    0.1100 hc        1 HAE      0.071033
      8 H13        -1.6630   -0.3310    1.5220 hc        1 HAE      0.071033
      9 HN          0.3050    0.0580   -1.4810 hn        1 HAE      0.294500
     10 HO          2.3570    0.6060   -1.5820 ho        1 HAE      0.436000
@<TRIPOS>BOND
     1    1    2 1   
     2    1    6 1   
     3    1    7 1   
     4    1    8 1   
     5    2    3 2   
     6    2    4 1   
     7    4    5 1   
     8    4    9 1   
     9    5   10 1   
@<TRIPOS>SUBSTRUCTURE
     1 HAE         1 TEMP              0 ****  ****    0 ROOT
