@<TRIPOS>MOLECULE
HAE
   10     9     1     0     0
SMALL
bcc


@<TRIPOS>ATOM
      1 C1         -0.5850   -0.0390    1.7960 c3        1 HAE     -0.179100
      2 C2         -0.0160   -0.0370    0.4050 c         1 HAE      0.588100
      3 O2          1.2000   -0.1330    0.1770 o         1 HAE     -0.559100
      4 N          -0.9530   -0.0670   -0.6770 n         1 HAE     -0.355400
      5 O          -0.4540    0.3070   -1.8590 oh        1 HAE     -0.439100
      6 H11        -1.2730   -0.9080    1.9360 hc        1 HAE      0.071033
      7 H12         0.2520   -0.1160    2.5330 hc        1 HAE      0.071033
      8 H13        -1.1490    0.9060    1.9850 hc        1 HAE      0.071033
      9 HN         -1.7710    0.5040   -0.4990 hn        1 HAE      0.294500
     10 HO          0.1410   -0.4180   -2.1380 ho        1 HAE      0.436000
@<TRIPOS>BOND
     1    1    2 1   
     2    1    6 1   
     3    1    7 1   
     4    1    8 1   
     5    2    3 2   
     6    2    4 1   
     7    4    5 1   
     8    4    9 1   
     9    5   10 1   
@<TRIPOS>SUBSTRUCTURE
     1 HAE         1 TEMP              0 ****  ****    0 ROOT
