@<TRIPOS>MOLECULE
HAE
   11    10     1     0     0
SMALL
bcc


@<TRIPOS>ATOM
      1 C1          0.2290   -0.4710    0.0510 c3        1 HAE     -0.173100
      2 C2          1.3910    0.4410    0.1300 c         1 HAE      0.602100
      3 O2          1.8190    1.1700    0.9970 o         1 HAE     -0.370100
      4 N           2.2780    0.5010   -1.1740 ny        1 HAE     -0.488300
      5 O           2.4340   -0.7640   -1.6170 oh        1 HAE     -0.359300
      6 H11        -0.2940   -0.4680    1.0460 hc        1 HAE      0.128033
      7 H12         0.5690   -1.5160   -0.1860 hc        1 HAE      0.128033
      8 H13        -0.4880   -0.1380   -0.7430 hc        1 HAE      0.128033
      9 HN          1.7930    1.0760   -1.8840 hn        1 HAE      0.463800
     10 HO          3.0900   -0.7740   -2.3520 ho        1 HAE      0.477000
     11 HN3         3.1880    0.9420   -0.9420 hn        1 HAE      0.463800
@<TRIPOS>BOND
     1    1    2 1   
     2    1    6 1   
     3    1    7 1   
     4    1    8 1   
     5    2    3 2   
     6    2    4 1   
     7    4    5 1   
     8    4    9 1   
     9    4   11 1   
    10    5   10 1   
@<TRIPOS>SUBSTRUCTURE
     1 HAE         1 TEMP              0 ****  ****    0 ROOT
