@<TRIPOS>MOLECULE
HAG
   65    62     1     0     0
SMALL
bcc


@<TRIPOS>ATOM
      1 C1          6.9080    0.0080    1.2440 c2        1 HAG      0.309000
      2 C2          5.4360    0.8100    4.8920 c2        1 HAG      0.222000
      3 C3          5.0320    2.3910    1.4190 c2        1 HAG      0.295000
      4 N1          6.2020    1.0300   -0.9310 n3        1 HAG     -0.353000
      5 CA1         6.8840    1.2310    0.2910 c3        1 HAG      0.093000
      6 O11         7.8300   -0.0480    2.1180 o         1 HAG     -0.594500
      7 O12         5.9460   -0.8150    1.2840 o         1 HAG     -0.594500
      8 CB1         3.4790   -2.0780   -0.0170 c3        1 HAG     -0.217000
      9 CG1         3.0870   -1.7250    1.2640 c1        1 HAG     -0.125000
     10 CD1         2.8120   -1.6330    2.5780 c2        1 HAG      0.200000
     11 OE1         3.4670   -0.9920    3.4580 o         1 HAG     -0.533000
     12 N2          6.1110   -1.5950    4.4700 n3        1 HAG     -0.376000
     13 CA2         6.2920   -0.4330    5.2820 c3        1 HAG      0.008000
     14 CB2         7.7480    0.0550    5.3100 c3        1 HAG     -0.309000
     15 SG2         8.9190   -1.2030    5.6960 ss        1 HAG      0.166000
     16 CA3         4.7050    2.2600    2.9060 c3        1 HAG     -0.141000
     17 O31         4.2190    2.5750    0.5220 o         1 HAG     -0.265000
     18 O32         6.3660    2.3360    1.1470 os        1 HAG     -0.362000
     19 C41         9.3990   -1.8770    4.1320 c3        1 HAG     -0.300000
     20 C42        10.9070   -2.1370    4.1940 c3        1 HAG     -0.201000
     21 O42        12.0240   -4.4550    4.1010 oh        1 HAG     -0.136000
     22 C43        11.0020   -3.6220    4.0590 c2        1 HAG      0.339000
     23 O43         9.8640   -4.2510    3.8790 os        1 HAG     -0.118000
     24 C44         8.7350   -3.2320    3.8340 c3        1 HAG      0.058000
     25 C45         8.1100   -3.3530    2.4620 c3        1 HAG     -0.198000
     26 C46         7.0300   -4.4140    2.4360 c3        1 HAG     -0.162000
     27 C47         6.2700   -4.3660    1.1270 c3        1 HAG     -0.148000
     28 C48         5.2200   -5.4610    1.0700 c3        1 HAG     -0.242000
     29 C49         4.1910   -5.1990    0.0880 c1        1 HAG     -0.071000
     30 HN11        3.8040   -3.5870    3.8340 ha        1 HAG      0.003000
     31 HN12        4.1790   -4.1140    4.0400 ha        1 HAG      0.003000
     32 HCA1        5.3210    0.5730   -0.8220 hn        1 HAG      0.187500
     33 HB11        2.8870   -1.5940   -0.8350 hc        1 HAG      0.178333
     34 HB12        7.9340    1.6110    0.1090 h2        1 HAG      0.156000
     35 HG12        4.5620   -1.6980   -0.0760 hc        1 HAG      0.178333
     36 HG11        3.5610   -3.2050   -0.1780 hc        1 HAG      0.178333
     37 HN21        6.4060   -1.4670    3.5160 hn        1 HAG      0.203500
     38 HCA2        5.1660   -1.9370    4.5040 hn        1 HAG      0.203500
     39 HB21        8.0290    0.5330    4.3350 h1        1 HAG      0.150000
     40 HB22        5.9580   -0.6840    6.3370 h1        1 HAG      0.162000
     41 HN31        6.3800    1.0850    3.1050 hn        1 HAG      0.299000
     42 HA31        5.0640    3.1740    3.4580 hx        1 HAG      0.169500
     43 HA32        3.5920    2.1540    3.0500 hx        1 HAG      0.169500
     44 HC41        7.8570    0.8120    6.1300 h1        1 HAG      0.150000
     45 H421       11.3550   -1.7870    5.1660 hc        1 HAG      0.183500
     46 H422        9.1500   -1.1530    3.3010 h1        1 HAG      0.226000
     47 HO42       12.8620   -3.9630    4.2430 ho        1 HAG      0.296000
     48 HC43       11.4510   -1.6250    3.3540 hc        1 HAG      0.183500
     49 HC44       10.8200   -6.4800    4.2100 ha        1 HAG      0.003000
     50 H451       10.8960   -6.4470    3.5370 ha        1 HAG      0.003000
     51 H452        8.0610   -3.5760    4.6660 h1        1 HAG      0.186000
     52 H461        7.6710   -2.3530    2.1640 hc        1 HAG      0.141500
     53 H462        8.9000   -3.5960    1.7020 hc        1 HAG      0.141500
     54 H471        6.3130   -4.2430    3.2840 hc        1 HAG      0.088000
     55 H472        7.4880   -5.4280    2.5800 hc        1 HAG      0.088000
     56 H481        5.7810   -3.3580    1.0110 hc        1 HAG      0.107500
     57 H482        6.9810   -4.4910    0.2690 hc        1 HAG      0.107500
     58 H491        4.6430   -5.4790    2.0510 hc        1 HAG      0.119500
     59 H492        5.7250   -6.4620    0.9760 hc        1 HAG      0.119500
     60 H493        3.6770   -6.0740   -0.3360 ha        1 HAG      0.061000
     61 N3          5.3890    1.0520    3.4230 n4        1 HAG     -0.128000
     62 H13         6.1220    1.8610   -1.4790 hn        1 HAG      0.187500
     63 H22         1.8580   -2.1470    2.8700 h4        1 HAG      0.141000
     64 H32         4.9370    0.2130    2.9700 hn        1 HAG      0.299000
     65 O2          4.8590    1.5680    5.6520 o         1 HAG     -0.189000
@<TRIPOS>BOND
     1    1    5 1   
     2    1    6 1   
     3    1    7 1   
     4    2   13 1   
     5    2   61 1   
     6    2   65 1   
     7    3   16 1   
     8    3   17 1   
     9    3   18 1   
    10    4    5 1   
    11    4   32 1   
    12    4   62 1   
    13    5   18 1   
    14    5   34 1   
    15    8    9 1   
    16    8   33 1   
    17    8   35 1   
    18    8   36 1   
    19    9   10 1   
    20   10   11 1   
    21   10   63 1   
    22   12   13 1   
    23   12   37 1   
    24   12   38 1   
    25   13   14 1   
    26   13   40 1   
    27   14   15 1   
    28   14   39 1   
    29   14   44 1   
    30   15   19 1   
    31   16   42 1   
    32   16   43 1   
    33   16   61 1   
    34   19   20 1   
    35   19   24 1   
    36   19   46 1   
    37   20   22 1   
    38   20   45 1   
    39   20   48 1   
    40   21   22 1   
    41   21   47 1   
    42   22   23 1   
    43   23   24 1   
    44   24   25 1   
    45   24   51 1   
    46   25   26 1   
    47   25   52 1   
    48   25   53 1   
    49   26   27 1   
    50   26   54 1   
    51   26   55 1   
    52   27   28 1   
    53   27   56 1   
    54   27   57 1   
    55   28   29 1   
    56   28   58 1   
    57   28   59 1   
    58   29   60 1   
    59   30   31 1   
    60   41   61 1   
    61   49   50 1   
    62   61   64 1   
@<TRIPOS>SUBSTRUCTURE
     1 HAG         1 TEMP              0 ****  ****    0 ROOT
