@<TRIPOS>MOLECULE
HAG
   65    62     1     0     0
SMALL
bcc


@<TRIPOS>ATOM
      1 C1         -0.1670    0.0960   -2.2170 c1        1 HAG      0.445000
      2 C2          7.5760    1.7680    4.2100 c2        1 HAG      0.252000
      3 C3          4.2300    2.3650    3.2850 c2        1 HAG      0.333000
      4 N1          2.3060    1.0740    0.9340 n3        1 HAG     -0.141000
      5 CA1         2.5370   -0.2010    1.0160 c2        1 HAG      0.139000
      6 O11         0.6050    0.1780   -1.3050 o         1 HAG     -0.221500
      7 O12        -0.9270    0.0120   -3.1180 o         1 HAG     -0.221500
      8 CB1         3.4220   -0.8360    2.0400 c3        1 HAG     -0.201000
      9 CG1         4.7400   -1.2330    1.4000 c3        1 HAG     -0.155000
     10 CD1         5.9140   -1.1700    2.4020 c3        1 HAG      0.155000
     11 OE1         7.0130   -1.7330    1.7490 os        1 HAG     -0.627000
     12 N2          6.1780    0.2120    2.8400 n3        1 HAG     -0.356000
     13 CA2         7.3580    0.3550    3.6600 c3        1 HAG      0.004000
     14 CB2         8.6760   -0.0930    3.0190 c3        1 HAG     -0.603000
     15 SG2         8.6190   -1.7670    2.4840 s4        1 HAG      1.508000
     16 CA3         5.2300    2.6130    4.4360 c3        1 HAG     -0.187000
     17 O31         3.0770    1.9580    3.5730 o         1 HAG     -0.548000
     18 O32         4.6170    2.5570    2.0900 o         1 HAG     -0.548000
     19 C41         8.7260   -2.6340    3.7240 c2        1 HAG     -0.913000
     20 C42         8.8140   -2.2870    5.1570 c3        1 HAG     -0.128000
     21 O42        11.9670   -4.9210    7.7870 oh        1 HAG     -0.301500
     22 C43        11.1470   -4.3320    6.9020 c1        1 HAG      0.114000
     23 O43        11.0870   -5.0900    5.8310 oh        1 HAG     -0.301500
     24 C44         8.7250   -4.1180    3.5150 c3        1 HAG     -0.072000
     25 C45         8.6980   -4.5060    2.0480 c3        1 HAG     -0.186000
     26 C46         8.6520   -6.0100    1.8840 c3        1 HAG     -0.155000
     27 C47         8.5250   -6.3910    0.4240 c3        1 HAG     -0.142000
     28 C48         8.5080   -7.8970    0.2440 c3        1 HAG     -0.246000
     29 C49         8.1210   -8.2840   -1.0990 c1        1 HAG     -0.048000
     30 HN11        2.4880    3.8750    2.0240 ha        1 HAG      0.001500
     31 HN12        2.0530    3.8970    1.5040 ha        1 HAG      0.001500
     32 HCA1        1.7030    1.4470    0.2220 hn        1 HAG      0.302000
     33 HB11        4.9760   -0.5800    0.5200 hc        1 HAG      0.113000
     34 HB12        2.0580   -0.8790    0.2690 h4        1 HAG      0.185000
     35 HG12        3.5850   -0.1410    2.9160 hc        1 HAG      0.154000
     36 HG11        2.8920   -1.7470    2.4340 hc        1 HAG      0.154000
     37 HN21        4.6910   -2.2900    1.0270 hc        1 HAG      0.113000
     38 HCA2        6.1800    0.8400    2.0540 hn        1 HAG      0.187000
     39 HB21        8.8900    0.5160    2.1030 h1        1 HAG      0.158500
     40 HB22        7.1940   -0.2820    4.5940 h1        1 HAG      0.169000
     41 HN31        6.9670    3.7460    4.2830 hn        1 HAG      0.265500
     42 HA31        4.8970    3.5140    5.0200 hx        1 HAG      0.150000
     43 HA32        5.2360    1.7140    5.1100 hx        1 HAG      0.150000
     44 HC41        9.5210    0.0790    3.7350 h1        1 HAG      0.158500
     45 H421        9.1430   -1.2310    5.3190 hc        1 HAG      0.078333
     46 H422        9.5550   -2.9560    5.6760 hc        1 HAG      0.078333
     47 HO42       12.0270   -4.3820    8.5880 ho        1 HAG      0.246000
     48 HC43        7.8220   -2.4280    5.6580 hc        1 HAG      0.078333
     49 HC44       11.6210   -5.9090    5.8600 ho        1 HAG      0.246000
     50 H451        9.6410   -4.5510    4.0070 hc        1 HAG      0.101500
     51 H452        7.8330   -4.5600    4.0360 hc        1 HAG      0.101500
     52 H461        7.7980   -4.0530    1.5470 hc        1 HAG      0.083000
     53 H462        9.6110   -4.1060    1.5300 hc        1 HAG      0.083000
     54 H471        7.7820   -6.4240    2.4590 hc        1 HAG      0.082500
     55 H472        9.5820   -6.4630    2.3180 hc        1 HAG      0.082500
     56 H481        9.3840   -5.9610   -0.1550 hc        1 HAG      0.091500
     57 H482        7.5850   -5.9550   -0.0050 hc        1 HAG      0.091500
     58 H491        7.7110   -8.3470    0.9150 hc        1 HAG      0.113000
     59 H492        9.4910   -8.3270    0.5850 hc        1 HAG      0.113000
     60 H493        8.4080   -9.3060   -1.3960 ha        1 HAG      0.040000
     61 N3          6.6040    2.8640    3.9050 n4        1 HAG     -0.093000
     62 H13         2.7170    1.7530    1.5890 hn        1 HAG      0.302000
     63 H22         5.6580   -1.7680    3.3290 h2        1 HAG      0.099000
     64 H32         6.5040    2.9620    2.8690 hn        1 HAG      0.265500
     65 O2          8.5190    2.0900    4.9230 o         1 HAG     -0.198000
@<TRIPOS>BOND
     1    1    6 1   
     2    1    7 1   
     3    2   13 1   
     4    2   61 1   
     5    2   65 1   
     6    3   16 1   
     7    3   17 1   
     8    3   18 1   
     9    4    5 1   
    10    4   32 1   
    11    4   62 1   
    12    5    8 1   
    13    5   34 1   
    14    8    9 1   
    15    8   35 1   
    16    8   36 1   
    17    9   10 1   
    18    9   33 1   
    19    9   37 1   
    20   10   11 1   
    21   10   12 1   
    22   10   63 1   
    23   11   15 1   
    24   12   13 1   
    25   12   38 1   
    26   13   14 1   
    27   13   40 1   
    28   14   15 1   
    29   14   39 1   
    30   14   44 1   
    31   15   19 1   
    32   16   42 1   
    33   16   43 1   
    34   16   61 1   
    35   19   20 1   
    36   19   24 1   
    37   20   45 1   
    38   20   46 1   
    39   20   48 1   
    40   21   22 1   
    41   21   47 1   
    42   22   23 1   
    43   23   49 1   
    44   24   25 1   
    45   24   50 1   
    46   24   51 1   
    47   25   26 1   
    48   25   52 1   
    49   25   53 1   
    50   26   27 1   
    51   26   54 1   
    52   26   55 1   
    53   27   28 1   
    54   27   56 1   
    55   27   57 1   
    56   28   29 1   
    57   28   58 1   
    58   28   59 1   
    59   29   60 1   
    60   30   31 1   
    61   41   61 1   
    62   61   64 1   
@<TRIPOS>SUBSTRUCTURE
     1 HAG         1 TEMP              0 ****  ****    0 ROOT
