@<TRIPOS>MOLECULE
HAG
   62    62     1     0     0
SMALL
bcc


@<TRIPOS>ATOM
      1 C1         -4.5310   -0.1840   -5.8290 c         1 HAG      0.888600
      2 C2          1.5060   -0.0630   -0.6890 c         1 HAG      0.618100
      3 C3          1.6780   -2.5630    1.5660 c         1 HAG      0.890600
      4 N1         -2.6870    0.9730   -7.1370 n3        1 HAG     -0.894800
      5 CA1        -3.0040    0.1130   -6.0020 c3        1 HAG      0.019500
      6 O11        -4.8790   -0.9130   -4.8590 o         1 HAG     -0.844800
      7 O12        -5.3320    0.2950   -6.6840 o         1 HAG     -0.844800
      8 CB1        -2.4550    0.6330   -4.6710 c3        1 HAG     -0.063400
      9 CG1        -0.9430    0.6870   -4.6720 c3        1 HAG     -0.147400
     10 CD1        -0.3890    1.2390   -3.3700 c         1 HAG      0.665100
     11 OE1         0.0360    2.4100   -3.2890 o         1 HAG     -0.635100
     12 N2         -0.3470    0.3870   -2.2810 n         1 HAG     -0.569900
     13 CA2         0.2250    0.7580   -1.0140 c3        1 HAG      0.028700
     14 CB2        -0.7530    0.6180    0.1630 c3        1 HAG     -0.039300
     15 SG2        -0.4690    1.8060    1.4430 ss        1 HAG     -0.321200
     16 CA3         2.2850   -2.2140    0.1810 c3        1 HAG     -0.074000
     17 O31         2.3730   -3.2760    2.3370 o         1 HAG     -0.847300
     18 O32         0.5260   -2.1130    1.8540 o         1 HAG     -0.847300
     19 C41         0.7310    1.0370    2.5070 c3        1 HAG     -0.036600
     20 C42         2.0260    1.8350    2.5250 c3        1 HAG     -0.126400
     21 O42         3.3240    1.4310    4.5830 oh        1 HAG     -0.628800
     22 C43         2.2810    2.1710    3.9990 c3        1 HAG      0.328900
     23 O43         1.1200    1.8330    4.7470 os        1 HAG     -0.460600
     24 C44         0.2240    1.0220    3.9560 c3        1 HAG      0.152100
     25 C45         0.1770   -0.3870    4.5320 c3        1 HAG     -0.110400
     26 C46        -0.7140   -0.4520    5.7520 c3        1 HAG     -0.068400
     27 C47        -0.7070   -1.8420    6.3530 c3        1 HAG     -0.082400
     28 C48        -1.6310   -1.9320    7.5480 c3        1 HAG     -0.078400
     29 C49        -1.6200   -3.3120    8.1540 c3        1 HAG     -0.089100
     30 HN11       -3.3340    0.7420   -7.8740 hn        1 HAG      0.331300
     31 HN12       -2.8780    1.9250   -6.8810 hn        1 HAG      0.331300
     32 HCA1       -2.5150   -0.8820   -6.2180 h1        1 HAG      0.040700
     33 HB11       -2.8240   -0.0610   -3.8680 hc        1 HAG      0.055200
     34 HB12       -2.8700    1.6510   -4.4550 hc        1 HAG      0.055200
     35 HG12       -0.5830    1.3630   -5.4920 hc        1 HAG      0.065200
     36 HG11       -0.5260   -0.3360   -4.8660 hc        1 HAG      0.065200
     37 HN21       -0.7510   -0.5150   -2.3600 hn        1 HAG      0.315500
     38 HCA2        0.5540    1.8430   -1.0840 h1        1 HAG      0.122700
     39 HB21       -0.7300   -0.4160    0.5960 h1        1 HAG      0.100700
     40 HB22       -1.7990    0.8320   -0.1760 h1        1 HAG      0.100700
     41 HN31        0.4650   -1.7850   -0.6170 hn        1 HAG      0.287500
     42 HA31        2.5240   -3.1750   -0.3510 h1        1 HAG      0.054200
     43 HA32        3.2440   -1.6510    0.3460 h1        1 HAG      0.054200
     44 HC41        0.9140   -0.0190    2.1520 h1        1 HAG      0.152700
     45 H421        1.9280    2.7740    1.9260 hc        1 HAG      0.082200
     46 H422        2.8700    1.2400    2.0930 hc        1 HAG      0.082200
     47 HO42        3.1080    0.4940    4.4930 ho        1 HAG      0.419000
     48 HC43        2.5220    3.2480    4.1980 h2        1 HAG      0.078700
     49 HC44       -0.7790    1.5230    4.0400 h1        1 HAG      0.066700
     50 H451        1.2180   -0.7060    4.8060 hc        1 HAG      0.085700
     51 H452       -0.1830   -1.1040    3.7410 hc        1 HAG      0.085700
     52 H461       -1.7630   -0.1710    5.4690 hc        1 HAG      0.029700
     53 H462       -0.3640    0.2940    6.5130 hc        1 HAG      0.029700
     54 H471        0.3370   -2.1110    6.6620 hc        1 HAG      0.050700
     55 H472       -1.0200   -2.5870    5.5730 hc        1 HAG      0.050700
     56 H481       -2.6760   -1.6680    7.2340 hc        1 HAG      0.029200
     57 H482       -1.3200   -1.1790    8.3200 hc        1 HAG      0.029200
     58 H491       -2.3100   -3.3610    9.0310 hc        1 HAG      0.025367
     59 H492       -1.9450   -4.0720    7.4040 hc        1 HAG      0.025367
     60 H493       -0.5920   -3.5810    8.4980 hc        1 HAG      0.025367
     61 O2          2.5820    0.5410   -0.5100 o         1 HAG     -0.618100
     62 N3          1.4080   -1.4490   -0.6790 n         1 HAG     -0.491900
@<TRIPOS>BOND
     1    1    5 1   
     2    1    6 1   
     3    1    7 1   
     4    2   13 1   
     5    2   61 2   
     6    2   62 1   
     7    3   16 1   
     8    3   17 1   
     9    3   18 1   
    10    4    5 1   
    11    4   30 1   
    12    4   31 1   
    13    5    8 1   
    14    5   32 1   
    15    8    9 1   
    16    8   33 1   
    17    8   34 1   
    18    9   10 1   
    19    9   35 1   
    20    9   36 1   
    21   10   11 2   
    22   10   12 1   
    23   12   13 1   
    24   12   37 1   
    25   13   14 1   
    26   13   38 1   
    27   14   15 1   
    28   14   39 1   
    29   14   40 1   
    30   15   19 1   
    31   16   42 1   
    32   16   43 1   
    33   16   62 1   
    34   19   20 1   
    35   19   24 1   
    36   19   44 1   
    37   20   22 1   
    38   20   45 1   
    39   20   46 1   
    40   21   22 1   
    41   21   47 1   
    42   22   23 1   
    43   22   48 1   
    44   23   24 1   
    45   24   25 1   
    46   24   49 1   
    47   25   26 1   
    48   25   50 1   
    49   25   51 1   
    50   26   27 1   
    51   26   52 1   
    52   26   53 1   
    53   27   28 1   
    54   27   54 1   
    55   27   55 1   
    56   28   29 1   
    57   28   56 1   
    58   28   57 1   
    59   29   58 1   
    60   29   59 1   
    61   29   60 1   
    62   41   62 1   
@<TRIPOS>SUBSTRUCTURE
     1 HAG         1 TEMP              0 ****  ****    0 ROOT
