@<TRIPOS>MOLECULE
HAG
   65    58     1     0     0
SMALL
bcc


@<TRIPOS>ATOM
      1 C1          1.1090   -1.7780   -0.3480 c2        1 HAG      0.331000
      2 C2          6.3300    1.2270    6.0040 c2        1 HAG      0.217000
      3 C3          9.0770    4.3150    1.4360 c1        1 HAG      0.165000
      4 N1          1.6840    0.4280   -2.6730 n9        1 HAG     -0.427000
      5 CA1         2.5720   -1.6670   -0.2080 c2        1 HAG     -0.202000
      6 O11         0.2690   -1.6170    0.5400 o         1 HAG     -0.305000
      7 O12         0.5740   -2.0830   -1.5650 oh        1 HAG     -0.278000
      8 CB1         3.1610   -1.8270    0.9820 c2        1 HAG     -0.121000
      9 CG1         4.6260   -1.7440    1.1800 c3        1 HAG     -0.163000
     10 CD1         5.0110   -1.0480    2.4710 c2        1 HAG      0.336000
     11 OE1         5.9800   -1.4880    3.1580 o         1 HAG     -0.514000
     12 N2          4.3360    0.0570    2.8730 nt        1 HAG     -0.390000
     13 CA2         6.7070   -0.2310    5.9520 c3        1 HAG     -0.232000
     14 CB2         8.0800   -0.4050    5.3440 c3        1 HAG     -0.501000
     15 SG2         8.1280   -1.6410    4.1290 ss        1 HAG      1.103000
     16 CA3         6.9210    5.5870    5.3470 c1        1 HAG      0.165000
     17 O31         6.3670    6.5510    5.7040 o         1 HAG     -0.162500
     18 O32         9.4720    4.9150    0.5140 o         1 HAG     -0.162500
     19 C41         8.3690   -3.0100    4.7930 c2        1 HAG     -0.408000
     20 C42         8.5100   -3.3590    6.2200 c3        1 HAG     -0.238000
     21 O42        12.6910   -5.2740    6.7410 oh        1 HAG     -0.298500
     22 C43        11.5990   -4.7290    6.1940 c1        1 HAG      0.094000
     23 O43        11.5760   -5.0370    4.9160 oh        1 HAG     -0.298500
     24 C44         8.4730   -4.1970    3.8890 c3        1 HAG     -0.156000
     25 C45         8.1980   -3.8600    2.4380 c3        1 HAG     -0.188000
     26 C46         8.0950   -5.1120    1.5910 c3        1 HAG     -0.158000
     27 C47         7.6490   -4.7600    0.1880 c3        1 HAG     -0.141000
     28 C48         7.4910   -5.9950   -0.6780 c3        1 HAG     -0.246000
     29 C49         6.7870   -5.7000   -1.9120 c1        1 HAG     -0.050000
     30 HN11        0.7470    0.1620   -2.4450 hn        1 HAG      0.141833
     31 HN12        1.7860    0.4300   -3.6660 hn        1 HAG      0.141833
     32 HCA1        1.2790   -2.1990   -2.2200 ho        1 HAG      0.238000
     33 HB11        2.5590   -2.0630    1.8780 ha        1 HAG      0.155000
     34 HB12        3.1280   -1.4260   -1.1300 ha        1 HAG      0.164000
     35 HG12        5.1270   -1.2010    0.3320 hc        1 HAG      0.134500
     36 HG11        5.0550   -2.7860    1.2110 hc        1 HAG      0.134500
     37 HN21        3.5490    0.3800    2.3650 hn        1 HAG      0.252000
     38 HCA2        5.9370   -0.7870    5.3450 hc        1 HAG      0.128000
     39 HB21        8.3690    0.5380    4.7850 h1        1 HAG      0.175000
     40 HB22        6.6840   -0.6430    6.9960 hc        1 HAG      0.128000
     41 HN31        6.9270    1.8590    6.6950 h4        1 HAG      0.119000
     42 HA31        8.4540    3.6000    4.8830 hn        1 HAG      0.141833
     43 HA32        7.0100    3.2020    4.2750 hn        1 HAG      0.141833
     44 HC41        8.8480   -0.5270    6.1500 h1        1 HAG      0.175000
     45 H421        8.3260   -2.4870    6.8950 hc        1 HAG      0.133667
     46 H422        9.5530   -3.7530    6.4080 hc        1 HAG      0.133667
     47 HO42       12.7330   -5.0670    7.6860 ho        1 HAG      0.256500
     48 HC43        7.7940   -4.1760    6.4990 hc        1 HAG      0.133667
     49 HC44       12.3210   -5.5850    4.5960 ho        1 HAG      0.256500
     50 H451        9.5060   -4.6390    4.0030 hc        1 HAG      0.147000
     51 H452        7.7470   -4.9820    4.2420 hc        1 HAG      0.147000
     52 H461        9.0180   -3.2070    2.0340 hc        1 HAG      0.099500
     53 H462        7.2320   -3.2820    2.3580 hc        1 HAG      0.099500
     54 H471        9.0870   -5.6330    1.5600 hc        1 HAG      0.087500
     55 H472        7.3590   -5.8220    2.0540 hc        1 HAG      0.087500
     56 H481        6.6700   -4.2110    0.2270 hc        1 HAG      0.090500
     57 H482        8.3960   -4.0710   -0.2850 hc        1 HAG      0.090500
     58 H491        6.8470   -6.7580   -0.1400 hc        1 HAG      0.118000
     59 H492        8.4950   -6.4790   -0.8320 hc        1 HAG      0.118000
     60 H493        6.8780   -6.4600   -2.7050 ha        1 HAG      0.048000
     61 N3          7.9830    2.9600    4.2740 n9        1 HAG     -0.427000
     62 H13         1.8490    1.3520   -2.3320 hn        1 HAG      0.141833
     63 H22         4.5860    0.5300    3.7130 hn        1 HAG      0.252000
     64 H32         8.3400    3.0910    3.3470 hn        1 HAG      0.141833
     65 O2          5.4150    1.6820    5.3170 o         1 HAG     -0.296000
@<TRIPOS>BOND
     1    1    5 1   
     2    1    6 1   
     3    1    7 1   
     4    2   13 1   
     5    2   41 1   
     6    2   65 1   
     7    3   18 1   
     8    4   30 1   
     9    4   31 1   
    10    4   62 1   
    11    5    8 1   
    12    5   34 1   
    13    7   32 1   
    14    8    9 1   
    15    8   33 1   
    16    9   10 1   
    17    9   35 1   
    18    9   36 1   
    19   10   11 1   
    20   10   12 1   
    21   12   37 1   
    22   12   63 1   
    23   13   14 1   
    24   13   38 1   
    25   13   40 1   
    26   14   15 1   
    27   14   39 1   
    28   14   44 1   
    29   15   19 1   
    30   16   17 1   
    31   19   20 1   
    32   19   24 1   
    33   20   45 1   
    34   20   46 1   
    35   20   48 1   
    36   21   22 1   
    37   21   47 1   
    38   22   23 1   
    39   23   49 1   
    40   24   25 1   
    41   24   50 1   
    42   24   51 1   
    43   25   26 1   
    44   25   52 1   
    45   25   53 1   
    46   26   27 1   
    47   26   54 1   
    48   26   55 1   
    49   27   28 1   
    50   27   56 1   
    51   27   57 1   
    52   28   29 1   
    53   28   58 1   
    54   28   59 1   
    55   29   60 1   
    56   42   61 1   
    57   43   61 1   
    58   61   64 1   
@<TRIPOS>SUBSTRUCTURE
     1 HAG         1 TEMP              0 ****  ****    0 ROOT
