@<TRIPOS>MOLECULE
HAH
   35    36     1     0     0
SMALL
bcc


@<TRIPOS>ATOM
      1 C1          1.0180   -0.1470   -0.5220 c3        1 HAH      0.209700
      2 N1         -0.3400    0.0100   -0.0190 n3        1 HAH     -0.827200
      3 C2          1.9500    0.9080    0.1330 c3        1 HAH      0.160100
      4 O2          1.6350    2.1510   -0.4720 oh        1 HAH     -0.590800
      5 C3          3.4270    0.5710   -0.1360 c3        1 HAH      0.111100
      6 O3          4.1830    1.6080    0.4690 oh        1 HAH     -0.609800
      7 C4          3.7790   -0.7890    0.4860 c3        1 HAH      0.137300
      8 O4          5.1100   -1.0720    0.0720 oh        1 HAH     -0.603800
      9 C5          2.8060   -1.8300    0.0440 c2        1 HAH     -0.193200
     10 C6          1.5730   -1.5380   -0.3730 c2        1 HAH     -0.186200
     11 C10        -1.3700   -0.4610   -0.9260 c3        1 HAH      0.212100
     12 C11        -2.7400   -0.4150   -0.3200 ca        1 HAH     -0.185300
     13 C12        -3.3450    0.8000    0.0490 ca        1 HAH      0.162100
     14 O12        -2.7550    2.0300   -0.0820 oh        1 HAH     -0.503100
     15 C13        -4.6530    0.8170    0.5760 ca        1 HAH     -0.167000
     16 C14        -5.3420   -0.3770    0.7330 ca        1 HAH     -0.091000
     17 C15        -4.7470   -1.5900    0.3750 ca        1 HAH     -0.173000
     18 C16        -3.4570   -1.6040   -0.1450 ca        1 HAH     -0.087000
     19 H1          1.0030    0.0880   -1.6330 h1        1 HAH      0.086700
     20 HN1        -0.4370   -0.4010    0.8890 hn        1 HAH      0.371800
     21 H2          1.7820    0.9700    1.2440 h1        1 HAH      0.054700
     22 HO2         2.2390    2.8020   -0.0870 ho        1 HAH      0.420000
     23 H3          3.6310    0.5500   -1.2420 h1        1 HAH      0.067700
     24 HO3         5.1130    1.3860    0.3280 ho        1 HAH      0.425000
     25 H4          3.7580   -0.7070    1.6120 h1        1 HAH      0.058700
     26 HO4         5.3260   -1.9560    0.3910 ho        1 HAH      0.409000
     27 H5          3.1680   -2.8690    0.0880 ha        1 HAH      0.130000
     28 H6          0.8810   -2.3450   -0.6670 ha        1 HAH      0.130000
     29 H10        -1.3490    0.2130   -1.8340 h1        1 HAH      0.039700
     30 H10A       -1.1670   -1.5110   -1.2930 h1        1 HAH      0.039700
     31 HO12       -1.8300    1.9190   -0.3510 ho        1 HAH      0.449000
     32 H13        -5.1030    1.7800    0.8520 ha        1 HAH      0.151000
     33 H14        -6.3630   -0.3670    1.1440 ha        1 HAH      0.133000
     34 H15        -5.2990   -2.5320    0.5040 ha        1 HAH      0.133000
     35 H16        -2.9940   -2.5620   -0.4280 ha        1 HAH      0.128000
@<TRIPOS>BOND
     1    1    2 1   
     2    1    3 1   
     3    1   10 1   
     4    1   19 1   
     5    2   11 1   
     6    2   20 1   
     7    3    4 1   
     8    3    5 1   
     9    3   21 1   
    10    4   22 1   
    11    5    6 1   
    12    5    7 1   
    13    5   23 1   
    14    6   24 1   
    15    7    8 1   
    16    7    9 1   
    17    7   25 1   
    18    8   26 1   
    19    9   10 2   
    20    9   27 1   
    21   10   28 1   
    22   11   12 1   
    23   11   29 1   
    24   11   30 1   
    25   12   13 ar  
    26   12   18 ar  
    27   13   14 1   
    28   13   15 ar  
    29   14   31 1   
    30   15   16 ar  
    31   15   32 1   
    32   16   17 ar  
    33   16   33 1   
    34   17   18 ar  
    35   17   34 1   
    36   18   35 1   
@<TRIPOS>SUBSTRUCTURE
     1 HAH         1 TEMP              0 ****  ****    0 ROOT
