@<TRIPOS>MOLECULE
HAH
   36    37     1     0     0
SMALL
bcc


@<TRIPOS>ATOM
      1 C1          0.0290    0.0780   -0.0250 c3        1 HAH      0.164700
      2 N1         -0.4420    0.1520   -1.4510 n4        1 HAH     -0.762000
      3 C2          1.5720   -0.0760    0.0120 c3        1 HAH      0.132100
      4 O2          1.8660   -1.2900   -0.6520 oh        1 HAH     -0.621800
      5 C3          2.0230   -0.0940    1.4810 c3        1 HAH      0.124100
      6 O3          3.4150   -0.3460    1.4460 oh        1 HAH     -0.601800
      7 C4          1.7270    1.2780    2.1170 c3        1 HAH      0.123300
      8 O4          1.9030    1.0870    3.5110 oh        1 HAH     -0.582800
      9 C5          0.3470    1.7490    1.7870 c2        1 HAH     -0.108200
     10 C6         -0.3990    1.2540    0.7950 c2        1 HAH     -0.238200
     11 C10        -1.8930   -0.1940   -1.6020 c3        1 HAH      0.190100
     12 C11        -2.3750    0.0540   -2.9880 ca        1 HAH     -0.213300
     13 C12        -1.8330   -0.6620   -4.0730 ca        1 HAH      0.143100
     14 O12        -0.7720   -1.4930   -3.7880 oh        1 HAH     -0.542100
     15 C13        -2.3410   -0.5030   -5.3700 ca        1 HAH     -0.193000
     16 C14        -3.3930    0.3850   -5.5810 ca        1 HAH     -0.046000
     17 C15        -3.9310    1.1120   -4.5150 ca        1 HAH     -0.148000
     18 C16        -3.4260    0.9480   -3.2290 ca        1 HAH     -0.062000
     19 H1         -0.4290   -0.8650    0.4120 hx        1 HAH      0.124700
     20 HN1        -0.2750    1.0930   -1.8210 hn        1 HAH      0.465300
     21 H2          2.0790    0.7740   -0.5260 h1        1 HAH      0.071700
     22 HO2         2.7630   -1.5570   -0.3920 ho        1 HAH      0.466000
     23 H3          1.4980   -0.9070    2.0540 h1        1 HAH      0.083700
     24 HO3         3.7170   -0.3750    2.3660 ho        1 HAH      0.448000
     25 H4          2.4730    2.0370    1.7350 h1        1 HAH      0.079700
     26 HO4         1.8640    1.9560    3.9320 ho        1 HAH      0.426000
     27 H5         -0.0380    2.5610    2.4300 ha        1 HAH      0.162000
     28 H6         -1.4050    1.6590    0.5930 ha        1 HAH      0.150000
     29 H10        -1.9990   -1.2910   -1.3510 hx        1 HAH      0.105700
     30 H10A       -2.4800    0.4130   -0.8560 hx        1 HAH      0.105700
     31 HO12       -0.5790   -2.0330   -4.5710 ho        1 HAH      0.458000
     32 H13        -1.9150   -1.0770   -6.2060 ha        1 HAH      0.160000
     33 H14        -3.8020    0.5150   -6.5970 ha        1 HAH      0.163000
     34 H15        -4.7630    1.8120   -4.6930 ha        1 HAH      0.162000
     35 H16        -3.8650    1.5150   -2.3920 ha        1 HAH      0.146000
     36 H12         0.1140   -0.5200   -2.0090 hn        1 HAH      0.465300
@<TRIPOS>BOND
     1    1    2 1   
     2    1    3 1   
     3    1   10 1   
     4    1   19 1   
     5    2   11 1   
     6    2   20 1   
     7    2   36 1   
     8    3    4 1   
     9    3    5 1   
    10    3   21 1   
    11    4   22 1   
    12    5    6 1   
    13    5    7 1   
    14    5   23 1   
    15    6   24 1   
    16    7    8 1   
    17    7    9 1   
    18    7   25 1   
    19    8   26 1   
    20    9   10 2   
    21    9   27 1   
    22   10   28 1   
    23   11   12 1   
    24   11   29 1   
    25   11   30 1   
    26   12   13 ar  
    27   12   18 ar  
    28   13   14 1   
    29   13   15 ar  
    30   14   31 1   
    31   15   16 ar  
    32   15   32 1   
    33   16   17 ar  
    34   16   33 1   
    35   17   18 ar  
    36   17   34 1   
    37   18   35 1   
@<TRIPOS>SUBSTRUCTURE
     1 HAH         1 TEMP              0 ****  ****    0 ROOT
