@<TRIPOS>MOLECULE
HAH
   36    37     1     0     0
SMALL
bcc


@<TRIPOS>ATOM
      1 C1          0.0300    0.0770   -0.0280 c3        1 HAH      0.164700
      2 N1         -0.4440    0.1510   -1.4540 ny        1 HAH     -0.762000
      3 C2          1.5730   -0.0770    0.0070 c3        1 HAH      0.132100
      4 O2          1.8670   -1.2900   -0.6570 oh        1 HAH     -0.621800
      5 C3          2.0260   -0.0930    1.4750 c3        1 HAH      0.124100
      6 O3          3.4180   -0.3450    1.4380 oh        1 HAH     -0.601800
      7 C4          1.7310    1.2780    2.1110 c3        1 HAH      0.123300
      8 O4          1.9090    1.0880    3.5040 oh        1 HAH     -0.582800
      9 C5          0.3500    1.7490    1.7830 c2        1 HAH     -0.108200
     10 C6         -0.3980    1.2530    0.7920 c2        1 HAH     -0.238200
     11 C10        -1.8940   -0.1970   -1.6020 c3        1 HAH      0.190100
     12 C11        -2.3790    0.0520   -2.9870 ca        1 HAH     -0.213300
     13 C12        -1.8380   -0.6640   -4.0740 ca        1 HAH      0.143100
     14 O12        -0.7760   -1.4930   -3.7910 oh        1 HAH     -0.542100
     15 C13        -2.3490   -0.5040   -5.3690 ca        1 HAH     -0.193000
     16 C14        -3.4010    0.3830   -5.5790 ca        1 HAH     -0.046000
     17 C15        -3.9390    1.1080   -4.5110 ca        1 HAH     -0.148000
     18 C16        -3.4310    0.9450   -3.2260 ca        1 HAH     -0.062000
     19 H1         -0.4270   -0.8670    0.4090 hx        1 HAH      0.124700
     20 HN1        -0.2780    1.0910   -1.8240 hn        1 HAH      0.465300
     21 H2          2.0790    0.7730   -0.5330 h1        1 HAH      0.071700
     22 HO2         2.7630   -1.5570   -0.3990 ho        1 HAH      0.466000
     23 H3          1.5020   -0.9070    2.0490 h1        1 HAH      0.083700
     24 HO3         3.7220   -0.3740    2.3570 ho        1 HAH      0.448000
     25 H4          2.4750    2.0370    1.7270 h1        1 HAH      0.079700
     26 HO4         1.8700    1.9570    3.9260 ho        1 HAH      0.426000
     27 H5         -0.0340    2.5610    2.4260 ha        1 HAH      0.162000
     28 H6         -1.4040    1.6570    0.5910 ha        1 HAH      0.150000
     29 H10        -2.4810    0.4100   -0.8550 hx        1 HAH      0.105700
     30 H10A       -2.0000   -1.2940   -1.3520 hx        1 HAH      0.105700
     31 HO12       -0.5840   -2.0320   -4.5740 ho        1 HAH      0.458000
     32 H13        -1.9230   -1.0780   -6.2070 ha        1 HAH      0.160000
     33 H14        -3.8120    0.5120   -6.5940 ha        1 HAH      0.163000
     34 H15        -4.7710    1.8080   -4.6880 ha        1 HAH      0.162000
     35 H16        -3.8690    1.5110   -2.3880 ha        1 HAH      0.146000
     36 H12         0.1120   -0.5210   -2.0120 hn        1 HAH      0.465300
@<TRIPOS>BOND
     1    1    2 1   
     2    1    3 1   
     3    1   10 1   
     4    1   19 1   
     5    2   11 1   
     6    2   20 1   
     7    2   36 1   
     8    3    4 1   
     9    3    5 1   
    10    3   21 1   
    11    4   22 1   
    12    5    6 1   
    13    5    7 1   
    14    5   23 1   
    15    6   24 1   
    16    7    8 1   
    17    7    9 1   
    18    7   25 1   
    19    8   26 1   
    20    9   10 2   
    21    9   27 1   
    22   10   28 1   
    23   11   12 1   
    24   11   29 1   
    25   11   30 1   
    26   12   13 ar  
    27   12   18 ar  
    28   13   14 1   
    29   13   15 ar  
    30   14   31 1   
    31   15   16 ar  
    32   15   32 1   
    33   16   17 ar  
    34   16   33 1   
    35   17   18 ar  
    36   17   34 1   
    37   18   35 1   
@<TRIPOS>SUBSTRUCTURE
     1 HAH         1 TEMP              0 ****  ****    0 ROOT
