@<TRIPOS>MOLECULE
HAH
   35    34     1     0     0
SMALL
bcc


@<TRIPOS>ATOM
      1 C1          0.5200   -1.2960   -0.6610 c3        1 HAH      0.010000
      2 N1         -0.0100    0.0060   -0.2690 n3        1 HAH     -0.298000
      3 C2          2.1830   -1.2740   -0.6830 c3        1 HAH      0.007000
      4 O2          2.6570   -2.5150   -1.4270 oh        1 HAH     -0.335000
      5 C3          2.7490   -1.2650    0.4580 c3        1 HAH     -0.032000
      6 O3          2.3730    0.0260    1.1560 oh        1 HAH     -0.339000
      7 C4          2.3570   -2.5280    1.4630 c3        1 HAH      0.024000
      8 O4          3.0150   -3.7430    1.0310 oh        1 HAH     -0.325000
      9 C5          0.9140   -2.7070    1.5900 c2        1 HAH     -0.218000
     10 C6         -0.0090   -2.3450    0.1950 c2        1 HAH     -0.131000
     11 C10        -1.4320    0.0730   -0.6010 c3        1 HAH     -0.018000
     12 C11        -1.9080    1.5710   -0.5770 c2        1 HAH     -0.135000
     13 C12        -2.3580    2.1350    0.6120 c2        1 HAH      0.078000
     14 O12        -2.2860    1.3850    1.8350 oh        1 HAH     -0.253000
     15 C13        -2.8960    3.4080    0.6130 c1        1 HAH     -0.216000
     16 C14        -2.9900    4.1360   -0.5880 c1        1 HAH     -0.129500
     17 C15        -2.5430    3.5780   -1.7700 c1        1 HAH     -0.129500
     18 C16        -2.0000    2.2960   -1.7750 c1        1 HAH     -0.083000
     19 H1          0.1740   -1.3730   -1.5440 h1        1 HAH      0.122000
     20 HN1         0.4590    0.6960   -0.7330 hn        1 HAH      0.173000
     21 H2          2.5020   -0.4110   -1.2260 h1        1 HAH      0.094000
     22 HO2         3.2200   -2.2720   -2.0920 ho        1 HAH      0.219000
     23 H3          3.7710   -1.2710    0.3130 h1        1 HAH      0.091000
     24 HO3         3.1230    0.4310    1.4660 ho        1 HAH      0.222000
     25 H4          2.7500   -2.4080    2.3300 h1        1 HAH      0.136000
     26 HO4         3.3710   -4.2020    1.7920 ho        1 HAH      0.203000
     27 H5          0.5440   -3.3170    2.2890 ha        1 HAH      0.141000
     28 H6         -0.9330   -2.5670    0.1620 ha        1 HAH      0.145000
     29 H10        -1.9630   -0.4640    0.0840 h1        1 HAH      0.106000
     30 H10A       -1.5800   -0.3140   -1.5140 h1        1 HAH      0.106000
     31 HO12       -2.8970    1.7030    2.4190 ho        1 HAH      0.218000
     32 H13        -3.2060    3.7950    1.4330 ha        1 HAH      0.132000
     33 H14        -3.3760    5.0480   -0.5860 ha        1 HAH      0.133000
     34 H15        -2.6070    4.0790   -2.5950 ha        1 HAH      0.133000
     35 H16        -1.6870    1.9060   -2.6030 ha        1 HAH      0.148000
@<TRIPOS>BOND
     1    1    2 1   
     2    1    3 1   
     3    1   10 1   
     4    1   19 1   
     5    2   11 1   
     6    2   20 1   
     7    3    4 1   
     8    3    5 1   
     9    3   21 1   
    10    4   22 1   
    11    5    6 1   
    12    5    7 1   
    13    5   23 1   
    14    6   24 1   
    15    7    8 1   
    16    7    9 1   
    17    7   25 1   
    18    8   26 1   
    19    9   10 1   
    20    9   27 1   
    21   10   28 1   
    22   11   12 1   
    23   11   29 1   
    24   11   30 1   
    25   12   13 1   
    26   12   18 1   
    27   13   14 1   
    28   13   15 1   
    29   14   31 1   
    30   15   32 1   
    31   16   17 1   
    32   16   33 1   
    33   17   34 1   
    34   18   35 1   
@<TRIPOS>SUBSTRUCTURE
     1 HAH         1 TEMP              0 ****  ****    0 ROOT
