@<TRIPOS>MOLECULE
HAH
   36    37     1     0     0
SMALL
bcc


@<TRIPOS>ATOM
      1 C1          0.0290    0.0770   -0.0240 c3        1 HAH      0.164700
      2 N1         -0.4410    0.1510   -1.4510 n4        1 HAH     -0.762000
      3 C2          1.5710   -0.0880    0.0140 c3        1 HAH      0.132100
      4 O2          1.8570   -1.3060   -0.6460 oh        1 HAH     -0.621800
      5 C3          2.0220   -0.1040    1.4830 c3        1 HAH      0.124100
      6 O3          3.4120   -0.3660    1.4490 oh        1 HAH     -0.601800
      7 C4          1.7360    1.2710    2.1150 c3        1 HAH      0.123300
      8 O4          1.9100    1.0840    3.5090 oh        1 HAH     -0.582800
      9 C5          0.3590    1.7520    1.7830 c2        1 HAH     -0.108200
     10 C6         -0.3910    1.2590    0.7920 c2        1 HAH     -0.238200
     11 C10        -1.8950   -0.1850   -1.6010 c3        1 HAH      0.190100
     12 C11        -2.3740    0.0620   -2.9880 ca        1 HAH     -0.213300
     13 C12        -1.8370   -0.6640   -4.0700 ca        1 HAH      0.143100
     14 O12        -0.7840   -1.5030   -3.7800 oh        1 HAH     -0.542100
     15 C13        -2.3440   -0.5060   -5.3670 ca        1 HAH     -0.193000
     16 C14        -3.3870    0.3900   -5.5830 ca        1 HAH     -0.046000
     17 C15        -3.9200    1.1260   -4.5200 ca        1 HAH     -0.148000
     18 C16        -3.4170    0.9640   -3.2330 ca        1 HAH     -0.062000
     19 H1         -0.4350   -0.8610    0.4150 hx        1 HAH      0.124700
     20 HN1         0.1100   -0.5280   -2.0060 hn        1 HAH      0.465300
     21 H2          2.0840    0.7560   -0.5270 h1        1 HAH      0.071700
     22 HO2         2.7510   -1.5790   -0.3860 ho        1 HAH      0.466000
     23 H3          1.4910   -0.9120    2.0590 h1        1 HAH      0.083700
     24 HO3         3.7140   -0.3950    2.3690 ho        1 HAH      0.448000
     25 H4          2.4870    2.0240    1.7300 h1        1 HAH      0.079700
     26 HO4         1.8770    1.9540    3.9280 ho        1 HAH      0.426000
     27 H5         -0.0200    2.5690    2.4230 ha        1 HAH      0.162000
     28 H6         -1.3930    1.6710    0.5890 ha        1 HAH      0.150000
     29 H10        -2.0100   -1.2800   -1.3460 hx        1 HAH      0.105700
     30 H10A       -2.4770    0.4310   -0.8570 hx        1 HAH      0.105700
     31 HO12       -0.5950   -2.0470   -4.5610 ho        1 HAH      0.458000
     32 H13        -1.9220   -1.0880   -6.2010 ha        1 HAH      0.160000
     33 H14        -3.7950    0.5190   -6.6000 ha        1 HAH      0.163000
     34 H15        -4.7450    1.8330   -4.7020 ha        1 HAH      0.162000
     35 H16        -3.8510    1.5380   -2.3990 ha        1 HAH      0.146000
     36 H12        -0.2660    1.0880   -1.8230 hn        1 HAH      0.465300
@<TRIPOS>BOND
     1    1    2 1   
     2    1    3 1   
     3    1   10 1   
     4    1   19 1   
     5    2   11 1   
     6    2   20 1   
     7    2   36 1   
     8    3    4 1   
     9    3    5 1   
    10    3   21 1   
    11    4   22 1   
    12    5    6 1   
    13    5    7 1   
    14    5   23 1   
    15    6   24 1   
    16    7    8 1   
    17    7    9 1   
    18    7   25 1   
    19    8   26 1   
    20    9   10 2   
    21    9   27 1   
    22   10   28 1   
    23   11   12 1   
    24   11   29 1   
    25   11   30 1   
    26   12   13 ar  
    27   12   18 ar  
    28   13   14 1   
    29   13   15 ar  
    30   14   31 1   
    31   15   16 ar  
    32   15   32 1   
    33   16   17 ar  
    34   16   33 1   
    35   17   18 ar  
    36   17   34 1   
    37   18   35 1   
@<TRIPOS>SUBSTRUCTURE
     1 HAH         1 TEMP              0 ****  ****    0 ROOT
