@<TRIPOS>MOLECULE
HAI
   21    21     1     0     0
SMALL
bcc


@<TRIPOS>ATOM
      1 C1          0.0170    0.0300   -0.0040 c3        1 HAI      0.119500
      2 C2          1.5490    0.0120   -0.0040 c3        1 HAI     -0.101400
      3 C3          2.0490    0.0190    1.4280 c3        1 HAI     -0.078400
      4 C4          1.5190    1.2120    2.1950 c3        1 HAI     -0.092400
      5 C5          0.0070    1.2710    2.1500 c3        1 HAI     -0.078400
      6 C6         -0.5070    1.2730    0.7220 c3        1 HAI     -0.101400
      7 N          -0.5220   -0.0360   -1.4130 n4        1 HAI     -0.844600
      8 H1         -0.3660   -0.8970    0.5210 hx        1 HAI      0.112700
      9 H21         1.9300   -0.9050   -0.5260 hc        1 HAI      0.066700
     10 H22         1.9460    0.9140   -0.5410 hc        1 HAI      0.066700
     11 H31         3.1710    0.0450    1.4160 hc        1 HAI      0.071200
     12 H32         1.7410   -0.9310    1.9400 hc        1 HAI      0.071200
     13 H41         1.9480    2.1570    1.7690 hc        1 HAI      0.070200
     14 H42         1.8560    1.1450    3.2640 hc        1 HAI      0.070200
     15 H51        -0.4250    0.3980    2.7060 hc        1 HAI      0.071200
     16 H52        -0.3500    2.2050    2.6610 hc        1 HAI      0.071200
     17 H61        -0.1550    2.2030    0.2010 hc        1 HAI      0.066700
     18 H62        -1.6290    1.2780    0.7320 hc        1 HAI      0.066700
     19 HN1        -1.5450   -0.0460   -1.3920 hn        1 HAI      0.457800
     20 HN2        -0.2070    0.7820   -1.9430 hn        1 HAI      0.457800
     21 HN3        -0.1800   -0.8830   -1.8750 hn        1 HAI      0.457800
@<TRIPOS>BOND
     1    1    2 1   
     2    1    6 1   
     3    1    7 1   
     4    1    8 1   
     5    2    3 1   
     6    2    9 1   
     7    2   10 1   
     8    3    4 1   
     9    3   11 1   
    10    3   12 1   
    11    4    5 1   
    12    4   13 1   
    13    4   14 1   
    14    5    6 1   
    15    5   15 1   
    16    5   16 1   
    17    6   17 1   
    18    6   18 1   
    19    7   19 1   
    20    7   20 1   
    21    7   21 1   
@<TRIPOS>SUBSTRUCTURE
     1 HAI         1 TEMP              0 ****  ****    0 ROOT
