@<TRIPOS>MOLECULE
HAI
   21    21     1     0     0
SMALL
bcc


@<TRIPOS>ATOM
      1 C1         -0.9490    0.0000    0.3130 c3        1 HAI      0.119500
      2 C2         -0.2580   -1.2590   -0.2190 c3        1 HAI     -0.101400
      3 C3          1.1970   -1.2510    0.2120 c3        1 HAI     -0.078400
      4 C4          1.9070   -0.0000   -0.2600 c3        1 HAI     -0.092400
      5 C5          1.1970    1.2510    0.2120 c3        1 HAI     -0.078400
      6 C6         -0.2580    1.2590   -0.2190 c3        1 HAI     -0.101400
      7 N          -2.4160    0.0000   -0.0440 n4        1 HAI     -0.844600
      8 H1         -0.9040    0.0000    1.4450 hx        1 HAI      0.112700
      9 H21        -0.7580   -2.1800    0.1810 hc        1 HAI      0.066700
     10 H22        -0.3150   -1.2870   -1.3390 hc        1 HAI      0.066700
     11 H31         1.2600   -1.3270    1.3300 hc        1 HAI      0.071200
     12 H32         1.7020   -2.1570   -0.2160 hc        1 HAI      0.071200
     13 H41         2.9590   -0.0000    0.1340 hc        1 HAI      0.070200
     14 H42         1.9710   -0.0000   -1.3800 hc        1 HAI      0.070200
     15 H51         1.2600    1.3270    1.3300 hc        1 HAI      0.071200
     16 H52         1.7020    2.1570   -0.2160 hc        1 HAI      0.071200
     17 H61        -0.3150    1.2870   -1.3390 hc        1 HAI      0.066700
     18 H62        -0.7580    2.1800    0.1810 hc        1 HAI      0.066700
     19 HN1        -2.8660   -0.8360    0.3390 hn        1 HAI      0.457800
     20 HN2        -2.5250   -0.0000   -1.0620 hn        1 HAI      0.457800
     21 HN3        -2.8660    0.8360    0.3380 hn        1 HAI      0.457800
@<TRIPOS>BOND
     1    1    2 1   
     2    1    6 1   
     3    1    7 1   
     4    1    8 1   
     5    2    3 1   
     6    2    9 1   
     7    2   10 1   
     8    3    4 1   
     9    3   11 1   
    10    3   12 1   
    11    4    5 1   
    12    4   13 1   
    13    4   14 1   
    14    5    6 1   
    15    5   15 1   
    16    5   16 1   
    17    6   17 1   
    18    6   18 1   
    19    7   19 1   
    20    7   20 1   
    21    7   21 1   
@<TRIPOS>SUBSTRUCTURE
     1 HAI         1 TEMP              0 ****  ****    0 ROOT
