@<TRIPOS>MOLECULE
HAI
   21    21     1     0     0
SMALL
bcc


@<TRIPOS>ATOM
      1 C1          0.0180    0.0300   -0.0050 c3        1 HAI      0.119500
      2 C2          1.5500    0.0120   -0.0030 c3        1 HAI     -0.101400
      3 C3          2.0480    0.0190    1.4310 c3        1 HAI     -0.078400
      4 C4          1.5160    1.2120    2.1970 c3        1 HAI     -0.092400
      5 C5          0.0050    1.2710    2.1490 c3        1 HAI     -0.078400
      6 C6         -0.5070    1.2730    0.7210 c3        1 HAI     -0.101400
      7 N          -0.5180   -0.0360   -1.4140 nz        1 HAI     -0.844600
      8 H1         -0.3660   -0.8980    0.5190 hx        1 HAI      0.112700
      9 H21         1.9480    0.9140   -0.5390 hc        1 HAI      0.066700
     10 H22         1.9330   -0.9040   -0.5240 hc        1 HAI      0.066700
     11 H31         3.1700    0.0460    1.4200 hc        1 HAI      0.071200
     12 H32         1.7390   -0.9310    1.9420 hc        1 HAI      0.071200
     13 H41         1.8510    1.1450    3.2660 hc        1 HAI      0.070200
     14 H42         1.9460    2.1570    1.7710 hc        1 HAI      0.070200
     15 H51        -0.3540    2.2040    2.6590 hc        1 HAI      0.071200
     16 H52        -0.4290    0.3970    2.7050 hc        1 HAI      0.071200
     17 H61        -1.6290    1.2780    0.7280 hc        1 HAI      0.066700
     18 H62        -0.1550    2.2020    0.2000 hc        1 HAI      0.066700
     19 HN1        -1.5410   -0.0470   -1.3960 hn        1 HAI      0.457800
     20 HN2        -0.2040    0.7820   -1.9440 hn        1 HAI      0.457800
     21 HN3        -0.1750   -0.8830   -1.8760 hn        1 HAI      0.457800
@<TRIPOS>BOND
     1    1    2 1   
     2    1    6 1   
     3    1    7 1   
     4    1    8 1   
     5    2    3 1   
     6    2    9 1   
     7    2   10 1   
     8    3    4 1   
     9    3   11 1   
    10    3   12 1   
    11    4    5 1   
    12    4   13 1   
    13    4   14 1   
    14    5    6 1   
    15    5   15 1   
    16    5   16 1   
    17    6   17 1   
    18    6   18 1   
    19    7   19 1   
    20    7   20 1   
    21    7   21 1   
@<TRIPOS>SUBSTRUCTURE
     1 HAI         1 TEMP              0 ****  ****    0 ROOT
