@<TRIPOS>MOLECULE
HAI
   21    21     1     0     0
SMALL
bcc


@<TRIPOS>ATOM
      1 C1         -0.5620   -0.5060   -0.7170 c3        1 HAI      0.119500
      2 C2          0.9540   -0.5060   -0.7170 c3        1 HAI     -0.101400
      3 C3          1.5320   -0.5060    0.6810 c3        1 HAI     -0.078400
      4 C4          0.9530    0.5950    1.5480 c3        1 HAI     -0.092400
      5 C5         -0.5630    0.5960    1.5480 c3        1 HAI     -0.078400
      6 C6         -1.1410    0.5960    0.1510 c3        1 HAI     -0.101400
      7 N          -1.0260   -0.3270   -2.0660 n4        1 HAI     -0.844600
      8 H1         -0.8770   -1.3680   -0.3850 hx        1 HAI      0.112700
      9 H21         1.2700   -1.3000   -1.1890 hc        1 HAI      0.066700
     10 H22         1.2700    0.2890   -1.1890 hc        1 HAI      0.066700
     11 H31         1.3460   -1.3680    1.1000 hc        1 HAI      0.071200
     12 H32         2.4990   -0.3850    0.6230 hc        1 HAI      0.071200
     13 H41         1.2690    1.4570    1.2160 hc        1 HAI      0.070200
     14 H42         1.2680    0.4750    2.4640 hc        1 HAI      0.070200
     15 H51        -0.8780   -0.1980    2.0200 hc        1 HAI      0.071200
     16 H52        -0.8780    1.3900    2.0200 hc        1 HAI      0.071200
     17 H61        -2.1080    0.4760    0.2090 hc        1 HAI      0.066700
     18 H62        -0.9550    1.4580   -0.2680 hc        1 HAI      0.066700
     19 HN1        -0.7350    0.4760   -2.3840 hn        1 HAI      0.457800
     20 HN2        -0.7000   -0.9980   -2.5900 hn        1 HAI      0.457800
     21 HN3        -1.9380   -0.3480   -2.0780 hn        1 HAI      0.457800
@<TRIPOS>BOND
     1    1    2 1   
     2    1    6 1   
     3    1    7 1   
     4    1    8 1   
     5    2    3 1   
     6    2    9 1   
     7    2   10 1   
     8    3    4 1   
     9    3   11 1   
    10    3   12 1   
    11    4    5 1   
    12    4   13 1   
    13    4   14 1   
    14    5    6 1   
    15    5   15 1   
    16    5   16 1   
    17    6   17 1   
    18    6   18 1   
    19    7   19 1   
    20    7   20 1   
    21    7   21 1   
@<TRIPOS>SUBSTRUCTURE
     1 HAI         1 TEMP              0 ****  ****    0 ROOT
