@<TRIPOS>MOLECULE
HAI
   21    21     1     0     0
SMALL
bcc


@<TRIPOS>ATOM
      1 C1          0.0180    0.0300   -0.0050 c3        1 HAI      0.119500
      2 C2          1.5500    0.0150   -0.0050 c3        1 HAI     -0.101400
      3 C3          2.0500    0.0210    1.4280 c3        1 HAI     -0.078400
      4 C4          1.5170    1.2110    2.1970 c3        1 HAI     -0.092400
      5 C5          0.0050    1.2670    2.1510 c3        1 HAI     -0.078400
      6 C6         -0.5080    1.2710    0.7240 c3        1 HAI     -0.101400
      7 N          -0.5200   -0.0350   -1.4140 n4        1 HAI     -0.844600
      8 H1         -0.3640   -0.8990    0.5180 hx        1 HAI      0.112700
      9 H21         1.9460    0.9190   -0.5400 hc        1 HAI      0.066700
     10 H22         1.9330   -0.9000   -0.5280 hc        1 HAI      0.066700
     11 H31         1.7430   -0.9310    1.9380 hc        1 HAI      0.071200
     12 H32         3.1720    0.0490    1.4160 hc        1 HAI      0.071200
     13 H41         1.9450    2.1580    1.7720 hc        1 HAI      0.070200
     14 H42         1.8540    1.1430    3.2650 hc        1 HAI      0.070200
     15 H51        -0.4260    0.3920    2.7060 hc        1 HAI      0.071200
     16 H52        -0.3540    2.2000    2.6630 hc        1 HAI      0.071200
     17 H61        -1.6300    1.2740    0.7330 hc        1 HAI      0.066700
     18 H62        -0.1580    2.2020    0.2040 hc        1 HAI      0.066700
     19 HN1        -1.5430   -0.0470   -1.3940 hn        1 HAI      0.457800
     20 HN2        -0.1760   -0.8800   -1.8780 hn        1 HAI      0.457800
     21 HN3        -0.2080    0.7850   -1.9420 hn        1 HAI      0.457800
@<TRIPOS>BOND
     1    1    2 1   
     2    1    6 1   
     3    1    7 1   
     4    1    8 1   
     5    2    3 1   
     6    2    9 1   
     7    2   10 1   
     8    3    4 1   
     9    3   11 1   
    10    3   12 1   
    11    4    5 1   
    12    4   13 1   
    13    4   14 1   
    14    5    6 1   
    15    5   15 1   
    16    5   16 1   
    17    6   17 1   
    18    6   18 1   
    19    7   19 1   
    20    7   20 1   
    21    7   21 1   
@<TRIPOS>SUBSTRUCTURE
     1 HAI         1 TEMP              0 ****  ****    0 ROOT
