@<TRIPOS>MOLECULE
HAJ
   37    41     1     0     0
SMALL
bcc


@<TRIPOS>ATOM
      1 F2         -0.1680   -0.0350    0.1040 f         1 HAJ     -0.112900
      2 C1          1.1830   -0.0270    0.1100 ca        1 HAJ      0.184900
      3 C15         1.8610   -0.0240    1.3350 ca        1 HAJ     -0.183000
      4 C14         3.2580   -0.0150    1.3590 ca        1 HAJ     -0.084000
      5 C13         3.9980   -0.0080    0.1910 ca        1 HAJ     -0.188300
      6 C12         3.3440   -0.0110   -1.0680 ca        1 HAJ      0.437600
      7 C3          1.9170   -0.0210   -1.1030 ca        1 HAJ     -0.171300
      8 N11         4.1230   -0.0060   -2.2280 nc        1 HAJ     -0.691000
      9 C10         3.5590   -0.0070   -3.4180 cd        1 HAJ      0.593800
     10 N9          2.1500   -0.0100   -3.5690 na        1 HAJ     -0.026800
     11 N8          1.4170   -0.0170   -4.6980 nc        1 HAJ     -0.611100
     12 C6          0.1010   -0.0440   -4.2420 cd        1 HAJ      0.694200
     13 N7         -1.0160   -0.1700   -5.0680 nv        1 HAJ     -0.847800
     14 N5          0.0070   -0.0390   -2.8070 nd        1 HAJ     -0.387300
     15 C4          1.2980   -0.0250   -2.4100 cc        1 HAJ      0.035700
     16 C16         4.3760   -0.0040   -4.6980 c3        1 HAJ     -0.076400
     17 C17         5.8470    0.0100   -4.4680 ca        1 HAJ     -0.078300
     18 C25         6.5430   -1.1940   -4.3470 ca        1 HAJ     -0.110000
     19 C24         7.9360   -1.2380   -4.1580 ca        1 HAJ     -0.113000
     20 C23         8.5820   -0.0210   -4.0990 ca        1 HAJ      0.062100
     21 C19         7.8790    1.2060   -4.2210 ca        1 HAJ      0.054100
     22 C18         6.5140    1.2540   -4.4050 ca        1 HAJ     -0.096000
     23 O22         9.9370    0.2410   -3.9250 os        1 HAJ     -0.333900
     24 C21        10.0890    1.6800   -3.9330 c3        1 HAJ      0.321200
     25 O20         8.7800    2.2640   -4.1260 os        1 HAJ     -0.333900
     26 H15         1.2850   -0.0290    2.2720 ha        1 HAJ      0.156000
     27 H14         3.7750   -0.0130    2.3320 ha        1 HAJ      0.145000
     28 H13         5.0990   -0.0000    0.2290 ha        1 HAJ      0.161000
     29 H161        4.0900   -0.9180   -5.2900 hc        1 HAJ      0.087700
     30 H162        4.0740    0.8980   -5.2990 hc        1 HAJ      0.087700
     31 H7A        -0.8910    0.1950   -5.9870 hn        1 HAJ      0.413800
     32 H7B        -1.8740    0.0980   -4.6340 hn        1 HAJ      0.413800
     33 H25         5.9920   -2.1470   -4.3960 ha        1 HAJ      0.140000
     34 H18         5.9720    2.2030   -4.4940 ha        1 HAJ      0.156000
     35 H24         8.4730   -2.1890   -4.0630 ha        1 HAJ      0.156000
     36 H211       10.4820    2.0030   -2.9380 h2        1 HAJ      0.072700
     37 H212       10.7370    1.9640   -4.7980 h2        1 HAJ      0.072700
@<TRIPOS>BOND
     1    1    2 1   
     2    2    3 ar  
     3    2    7 ar  
     4    3    4 ar  
     5    3   26 1   
     6    4    5 ar  
     7    4   27 1   
     8    5    6 ar  
     9    5   28 1   
    10    6    7 ar  
    11    6    8 1   
    12    7   15 1   
    13    8    9 2   
    14    9   10 1   
    15    9   16 1   
    16   10   11 1   
    17   10   15 1   
    18   11   12 2   
    19   12   13 1   
    20   12   14 1   
    21   13   31 1   
    22   13   32 1   
    23   14   15 2   
    24   16   17 1   
    25   16   29 1   
    26   16   30 1   
    27   17   18 ar  
    28   17   22 ar  
    29   18   19 ar  
    30   18   33 1   
    31   19   20 ar  
    32   19   35 1   
    33   20   21 ar  
    34   20   23 1   
    35   21   22 ar  
    36   21   25 1   
    37   22   34 1   
    38   23   24 1   
    39   24   25 1   
    40   24   36 1   
    41   24   37 1   
@<TRIPOS>SUBSTRUCTURE
     1 HAJ         1 TEMP              0 ****  ****    0 ROOT
