@<TRIPOS>MOLECULE
HAJ
   38    42     1     0     0
SMALL
bcc


@<TRIPOS>ATOM
      1 F2         -0.1650    0.0500    0.1230 f         1 HAJ     -0.106900
      2 C1          1.1840    0.0260    0.1310 ca        1 HAJ      0.189900
      3 C15         1.8680    0.0270    1.3570 ca        1 HAJ     -0.150000
      4 C14         3.2630    0.0030    1.3780 ca        1 HAJ     -0.062000
      5 C13         4.0050   -0.0240    0.2040 ca        1 HAJ     -0.162300
      6 C12         3.3460   -0.0260   -1.0460 ca        1 HAJ      0.428600
      7 C3          1.9170   -0.0000   -1.0810 ca        1 HAJ     -0.184300
      8 N11         4.1170   -0.0520   -2.2150 nc        1 HAJ     -0.621000
      9 C10         3.5840   -0.0540   -3.4040 cd        1 HAJ      0.581800
     10 N9          2.1410   -0.0310   -3.5570 na        1 HAJ      0.001200
     11 N8          1.4130   -0.0290   -4.6640 nc        1 HAJ     -0.476100
     12 C6          0.1060   -0.0000   -4.1900 cd        1 HAJ      0.468200
     13 N7         -1.0720    0.0130   -5.0480 n4        1 HAJ     -0.731600
     14 N5         -0.0030    0.0160   -2.7780 nd        1 HAJ     -0.324300
     15 C4          1.3010   -0.0030   -2.3860 cc        1 HAJ      0.056700
     16 C16         4.3860   -0.0830   -4.6920 c3        1 HAJ     -0.067400
     17 C17         5.8560   -0.0430   -4.4630 ca        1 HAJ     -0.110300
     18 C25         6.5750   -1.2340   -4.3560 ca        1 HAJ     -0.103000
     19 C24         7.9700   -1.2500   -4.1720 ca        1 HAJ     -0.113000
     20 C23         8.5920   -0.0210   -4.1000 ca        1 HAJ      0.082100
     21 C19         7.8620    1.1960   -4.2090 ca        1 HAJ      0.061100
     22 C18         6.4960    1.2150   -4.3910 ca        1 HAJ     -0.099000
     23 O22         9.9370    0.2670   -3.9270 os        1 HAJ     -0.322900
     24 C21        10.0640    1.7110   -3.9310 c3        1 HAJ      0.320200
     25 O20         8.7380    2.2680   -4.1050 os        1 HAJ     -0.328900
     26 H15         1.2920    0.0480    2.2960 ha        1 HAJ      0.177000
     27 H14         3.7860    0.0040    2.3500 ha        1 HAJ      0.169000
     28 H13         5.1070   -0.0420    0.2430 ha        1 HAJ      0.180000
     29 H161        4.0760    0.7990   -5.3190 hc        1 HAJ      0.087200
     30 H162        4.1090   -1.0210   -5.2490 hc        1 HAJ      0.087200
     31 H7A        -0.7920   -0.0070   -6.0370 hn        1 HAJ      0.481800
     32 H7B        -1.6120    0.8680   -4.8550 hn        1 HAJ      0.481800
     33 H25         6.0480   -2.1980   -4.4190 ha        1 HAJ      0.138000
     34 H18         5.9380    2.1560   -4.4770 ha        1 HAJ      0.154000
     35 H24         8.5280   -2.1920   -4.0910 ha        1 HAJ      0.167000
     36 H211       10.4590    2.0360   -2.9370 h2        1 HAJ      0.084200
     37 H212       10.6950    2.0100   -4.8030 h2        1 HAJ      0.084200
     38 H73        -1.6490   -0.8120   -4.8310 hn        1 HAJ      0.481800
@<TRIPOS>BOND
     1    1    2 1   
     2    2    3 ar  
     3    2    7 ar  
     4    3    4 ar  
     5    3   26 1   
     6    4    5 ar  
     7    4   27 1   
     8    5    6 ar  
     9    5   28 1   
    10    6    7 ar  
    11    6    8 1   
    12    7   15 1   
    13    8    9 2   
    14    9   10 1   
    15    9   16 1   
    16   10   11 1   
    17   10   15 1   
    18   11   12 2   
    19   12   13 1   
    20   12   14 1   
    21   13   31 1   
    22   13   32 1   
    23   13   38 1   
    24   14   15 2   
    25   16   17 1   
    26   16   29 1   
    27   16   30 1   
    28   17   18 ar  
    29   17   22 ar  
    30   18   19 ar  
    31   18   33 1   
    32   19   20 ar  
    33   19   35 1   
    34   20   21 ar  
    35   20   23 1   
    36   21   22 ar  
    37   21   25 1   
    38   22   34 1   
    39   23   24 1   
    40   24   25 1   
    41   24   36 1   
    42   24   37 1   
@<TRIPOS>SUBSTRUCTURE
     1 HAJ         1 TEMP              0 ****  ****    0 ROOT
