@<TRIPOS>MOLECULE
HAL
   62    63     1     0     0
SMALL
bcc


@<TRIPOS>ATOM
      1 CP1        -3.2960   -1.9630   -1.5800 ca        1 HAL     -0.109300
      2 CP2        -2.8010   -2.1620   -0.2860 ca        1 HAL     -0.119000
      3 CP3        -3.4460   -3.0410    0.5820 ca        1 HAL     -0.125000
      4 CP4        -4.5880   -3.7240    0.1650 ca        1 HAL     -0.118000
      5 CP5        -5.0850   -3.5280   -1.1240 ca        1 HAL     -0.125000
      6 CP6        -4.4430   -2.6510   -1.9960 ca        1 HAL     -0.119000
      7 C1         -2.6250   -1.0050   -2.4990 c3        1 HAL     -0.052100
      8 C2         -1.9600   -1.7660   -3.6440 c3        1 HAL      0.115800
      9 N1         -1.3770   -0.8860   -4.6910 n4        1 HAL     -0.708800
     10 C3         -2.4450   -0.1920   -5.4790 c         1 HAL      0.517100
     11 O1         -2.6660    0.9830   -5.2080 o         1 HAL     -0.477100
     12 C4         -3.1360   -1.0070   -6.5740 c3        1 HAL      0.132400
     13 O2         -2.8030   -2.3440   -6.5410 os        1 HAL     -0.593200
     14 P          -1.6030   -2.8320   -7.6490 p5        1 HAL      1.359600
     15 O3         -2.0710   -2.2260   -8.9000 o         1 HAL     -0.824000
     16 O4         -0.4460   -2.3260   -6.8510 o         1 HAL     -0.824000
     17 C5         -1.7710   -4.5230   -7.6550 c3        1 HAL     -0.145500
     18 C6         -1.3280   -5.0660   -6.2900 c3        1 HAL     -0.017100
     19 CR1        -0.0300   -5.7970   -6.3630 ca        1 HAL     -0.097300
     20 CR2         1.1780   -5.1300   -6.1290 ca        1 HAL     -0.119500
     21 CR3         2.3830   -5.8300   -6.1720 ca        1 HAL     -0.138500
     22 CR4         2.3900   -7.1970   -6.4500 ca        1 HAL     -0.129000
     23 CR5         1.1880   -7.8630   -6.6910 ca        1 HAL     -0.138500
     24 CR6        -0.0190   -7.1680   -6.6490 ca        1 HAL     -0.119500
     25 N2         -3.1380   -4.8110   -8.0140 n         1 HAL     -0.550900
     26 C7         -3.7290   -6.0610   -7.9440 c         1 HAL      0.651100
     27 O5         -3.1340   -7.0800   -7.5470 o         1 HAL     -0.598100
     28 C8         -5.2170   -6.1180   -8.2740 c3        1 HAL     -0.155400
     29 C9         -6.0340   -5.5690   -7.1200 c3        1 HAL     -0.070400
     30 C10        -6.3480   -4.0920   -7.2680 c3        1 HAL     -0.177400
     31 C11        -6.4520   -3.4230   -5.9290 c         1 HAL      0.629100
     32 O6         -7.4790   -3.1230   -5.3220 o         1 HAL     -0.497000
     33 O7         -5.3080   -3.0690   -5.2690 oh        1 HAL     -0.617100
     34 HP2        -1.9040   -1.6210    0.0500 ha        1 HAL      0.143000
     35 HP3        -3.0540   -3.1920    1.5990 ha        1 HAL      0.140500
     36 HP4        -5.0980   -4.4170    0.8520 ha        1 HAL      0.137000
     37 HP5        -5.9880   -4.0620   -1.4560 ha        1 HAL      0.140500
     38 HP6        -4.8440   -2.5020   -3.0140 ha        1 HAL      0.143000
     39 HC11       -3.3860   -0.2840   -2.9080 hc        1 HAL      0.064200
     40 HC12       -1.8570   -0.4020   -1.9430 hc        1 HAL      0.064200
     41 HC21       -1.1250   -2.4090   -3.2440 hx        1 HAL      0.108200
     42 HC22       -2.7170   -2.4390   -4.1510 hx        1 HAL      0.108200
     43 HN1        -0.7460   -0.2060   -4.2690 hn        1 HAL      0.488300
     44 HC41       -4.2440   -0.9040   -6.3800 h1        1 HAL      0.108700
     45 HC42       -2.8600   -0.5420   -7.5680 h1        1 HAL      0.108700
     46 HC5        -1.0850   -4.9830   -8.4300 h1        1 HAL      0.094700
     47 HC61       -1.2340   -4.1990   -5.5780 hc        1 HAL      0.056200
     48 HC62       -2.0990   -5.7660   -5.8620 hc        1 HAL      0.056200
     49 HR2         1.1760   -4.0460   -5.9270 ha        1 HAL      0.156000
     50 HR3         3.3290   -5.3010   -5.9900 ha        1 HAL      0.129000
     51 HR4         3.3410   -7.7470   -6.4830 ha        1 HAL      0.127000
     52 HR5         1.1910   -8.9400   -6.9160 ha        1 HAL      0.129000
     53 HR6        -0.9720   -7.6870   -6.8480 ha        1 HAL      0.156000
     54 HN2        -4.5270   -3.3330   -5.7830 ho        1 HAL      0.456000
     55 HC81       -5.4420   -5.5680   -9.2230 hc        1 HAL      0.074200
     56 HC82       -5.4740   -7.1990   -8.4350 hc        1 HAL      0.074200
     57 HC91       -7.0000   -6.1390   -7.0540 hc        1 HAL      0.062700
     58 HC92       -5.4840   -5.7500   -6.1560 hc        1 HAL      0.062700
     59 H101       -5.5580   -3.5670   -7.8690 hc        1 HAL      0.080200
     60 H102       -7.3230   -3.9610   -7.8080 hc        1 HAL      0.080200
     61 H12        -0.8400   -1.5060   -5.3980 hn        1 HAL      0.488300
     62 H22        -3.5110   -4.1700   -8.6870 hn        1 HAL      0.323500
@<TRIPOS>BOND
     1    1    2 ar  
     2    1    6 ar  
     3    1    7 1   
     4    2    3 ar  
     5    2   34 1   
     6    3    4 ar  
     7    3   35 1   
     8    4    5 ar  
     9    4   36 1   
    10    5    6 ar  
    11    5   37 1   
    12    6   38 1   
    13    7    8 1   
    14    7   39 1   
    15    7   40 1   
    16    8    9 1   
    17    8   41 1   
    18    8   42 1   
    19    9   10 1   
    20    9   43 1   
    21    9   61 1   
    22   10   11 2   
    23   10   12 1   
    24   12   13 1   
    25   12   44 1   
    26   12   45 1   
    27   13   14 1   
    28   14   15 1   
    29   14   16 1   
    30   14   17 1   
    31   17   18 1   
    32   17   25 1   
    33   17   46 1   
    34   18   19 1   
    35   18   47 1   
    36   18   48 1   
    37   19   20 ar  
    38   19   24 ar  
    39   20   21 ar  
    40   20   49 1   
    41   21   22 ar  
    42   21   50 1   
    43   22   23 ar  
    44   22   51 1   
    45   23   24 ar  
    46   23   52 1   
    47   24   53 1   
    48   25   26 1   
    49   25   62 1   
    50   26   27 2   
    51   26   28 1   
    52   28   29 1   
    53   28   55 1   
    54   28   56 1   
    55   29   30 1   
    56   29   57 1   
    57   29   58 1   
    58   30   31 1   
    59   30   59 1   
    60   30   60 1   
    61   31   32 2   
    62   31   33 1   
    63   33   54 1   
@<TRIPOS>SUBSTRUCTURE
     1 HAL         1 TEMP              0 ****  ****    0 ROOT
