@<TRIPOS>MOLECULE
HAL
   60    61     1     0     0
SMALL
bcc


@<TRIPOS>ATOM
      1 CP1        -5.9990    2.0610   -1.5090 ca        1 HAL     -0.053300
      2 CP2        -7.3000    1.9400   -1.0000 ca        1 HAL     -0.129500
      3 CP3        -8.4020    2.1670   -1.8210 ca        1 HAL     -0.137000
      4 CP4        -8.2190    2.5180   -3.1590 ca        1 HAL     -0.151000
      5 CP5        -6.9290    2.6390   -3.6720 ca        1 HAL     -0.137000
      6 CP6        -5.8240    2.4130   -2.8530 ca        1 HAL     -0.129500
      7 C1         -4.8250    1.8300   -0.6260 c3        1 HAL     -0.080100
      8 C2         -4.6820    0.3360   -0.2900 c3        1 HAL      0.106000
      9 N1         -3.5580    0.0260    0.5370 n         1 HAL     -0.557900
     10 C3         -3.6680   -0.2050    1.8880 c         1 HAL      0.621100
     11 O1         -4.7830   -0.3400    2.4490 o         1 HAL     -0.690100
     12 C4         -2.3810   -0.3070    2.7220 c3        1 HAL      0.130400
     13 O2         -1.2710   -0.7080    1.9990 os        1 HAL     -0.586200
     14 P          -0.1890    0.4980    1.5560 p5        1 HAL      1.341600
     15 O3         -0.0900    1.3420    2.7620 o         1 HAL     -0.850000
     16 O4         -0.7840    0.9770    0.2810 o         1 HAL     -0.850000
     17 C5          1.2730   -0.3510    1.2380 c3        1 HAL     -0.133500
     18 C6          0.9590   -1.7580    0.7250 c3        1 HAL     -0.046100
     19 CR1         1.2650   -2.8210    1.7250 ca        1 HAL     -0.059300
     20 CR2         0.2300   -3.5200    2.3570 ca        1 HAL     -0.118000
     21 CR3         0.5230   -4.5450    3.2560 ca        1 HAL     -0.148000
     22 CR4         1.8490   -4.8730    3.5360 ca        1 HAL     -0.155000
     23 CR5         2.8830   -4.1630    2.9260 ca        1 HAL     -0.148000
     24 CR6         2.5960   -3.1380    2.0270 ca        1 HAL     -0.118000
     25 N2          2.0410    0.4660    0.3360 n         1 HAL     -0.531900
     26 C7          3.4070    0.3040    0.1570 c         1 HAL      0.652100
     27 O5          4.0770   -0.4370    0.9100 o         1 HAL     -0.640100
     28 C8          4.0770    1.1570   -0.9060 c3        1 HAL     -0.147400
     29 C9          4.9780    0.3380   -1.8100 c3        1 HAL     -0.061400
     30 C10         5.8010    1.2360   -2.7040 c3        1 HAL     -0.190400
     31 C11         6.5750    0.4510   -3.7740 c         1 HAL      0.908600
     32 O6          7.7880    0.7620   -3.9680 o         1 HAL     -0.858300
     33 O7          5.9720   -0.4410   -4.4370 o         1 HAL     -0.858300
     34 HP2        -7.4410    1.6600    0.0550 ha        1 HAL      0.140500
     35 HP3        -9.4180    2.0680   -1.4130 ha        1 HAL      0.118500
     36 HP4        -9.0890    2.6960   -3.8050 ha        1 HAL      0.114000
     37 HP5        -6.7800    2.9140   -4.7260 ha        1 HAL      0.118500
     38 HP6        -4.8060    2.5070   -3.2620 ha        1 HAL      0.140500
     39 HC11       -4.9540    2.4150    0.3240 hc        1 HAL      0.066700
     40 HC12       -3.8840    2.1950   -1.1190 hc        1 HAL      0.066700
     41 HC21       -4.5690   -0.2310   -1.2590 h1        1 HAL      0.044700
     42 HC22       -5.6270   -0.0120    0.2170 h1        1 HAL      0.044700
     43 HN1        -2.6370    0.2520    0.1830 hn        1 HAL      0.375500
     44 HC41       -2.5770   -1.0760    3.5200 h1        1 HAL      0.061200
     45 HC42       -2.2040    0.7010    3.2000 h1        1 HAL      0.061200
     46 HC5         1.8800   -0.4510    2.1850 h1        1 HAL      0.108700
     47 HC61       -0.1260   -1.8060    0.4300 hc        1 HAL      0.059200
     48 HC62        1.5570   -1.9880   -0.2010 hc        1 HAL      0.059200
     49 HR2        -0.8140   -3.2290    2.1570 ha        1 HAL      0.163500
     50 HR3        -0.2940   -5.0890    3.7490 ha        1 HAL      0.113000
     51 HR4         2.0780   -5.6830    4.2430 ha        1 HAL      0.104000
     52 HR5         3.9290   -4.4090    3.1560 ha        1 HAL      0.113000
     53 HR6         3.4080   -2.5520    1.5590 ha        1 HAL      0.163500
     54 HN2         1.5080    0.8370   -0.4240 hn        1 HAL      0.318500
     55 HC81        4.6910    1.9230   -0.3600 hc        1 HAL      0.049700
     56 HC82        3.3270    1.7090   -1.5300 hc        1 HAL      0.049700
     57 HC91        4.3670   -0.3520   -2.4500 hc        1 HAL      0.056200
     58 HC92        5.6540   -0.3000   -1.1830 hc        1 HAL      0.056200
     59 H101        6.5240    1.8310   -2.0900 hc        1 HAL      0.018200
     60 H102        5.1290    1.9580   -3.2360 hc        1 HAL      0.018200
@<TRIPOS>BOND
     1    1    2 ar  
     2    1    6 ar  
     3    1    7 1   
     4    2    3 ar  
     5    2   34 1   
     6    3    4 ar  
     7    3   35 1   
     8    4    5 ar  
     9    4   36 1   
    10    5    6 ar  
    11    5   37 1   
    12    6   38 1   
    13    7    8 1   
    14    7   39 1   
    15    7   40 1   
    16    8    9 1   
    17    8   41 1   
    18    8   42 1   
    19    9   10 1   
    20    9   43 1   
    21   10   11 2   
    22   10   12 1   
    23   12   13 1   
    24   12   44 1   
    25   12   45 1   
    26   13   14 1   
    27   14   15 1   
    28   14   16 1   
    29   14   17 1   
    30   17   18 1   
    31   17   25 1   
    32   17   46 1   
    33   18   19 1   
    34   18   47 1   
    35   18   48 1   
    36   19   20 ar  
    37   19   24 ar  
    38   20   21 ar  
    39   20   49 1   
    40   21   22 ar  
    41   21   50 1   
    42   22   23 ar  
    43   22   51 1   
    44   23   24 ar  
    45   23   52 1   
    46   24   53 1   
    47   25   26 1   
    48   25   54 1   
    49   26   27 2   
    50   26   28 1   
    51   28   29 1   
    52   28   55 1   
    53   28   56 1   
    54   29   30 1   
    55   29   57 1   
    56   29   58 1   
    57   30   31 1   
    58   30   59 1   
    59   30   60 1   
    60   31   32 1   
    61   31   33 1   
@<TRIPOS>SUBSTRUCTURE
     1 HAL         1 TEMP              0 ****  ****    0 ROOT
