@<TRIPOS>MOLECULE
HAL
   60    56     1     0     0
SMALL
bcc


@<TRIPOS>ATOM
      1 CP1        -1.1850    3.8550    5.9080 c1        1 HAL     -0.045000
      2 CP2         0.1380    3.8500    6.4090 c1        1 HAL     -0.143000
      3 CP3         0.3800    3.4460    7.6950 c1        1 HAL     -0.143000
      4 CP4        -0.6710    3.0430    8.5030 c1        1 HAL     -0.143000
      5 CP5        -1.9710    3.0470    8.0100 c1        1 HAL     -0.143000
      6 CP6        -2.2180    3.4560    6.7070 c1        1 HAL     -0.130000
      7 C1         -1.4670    4.3100    4.4370 c3        1 HAL     -0.168000
      8 C2         -1.4120    3.1200    3.5230 c3        1 HAL     -0.010000
      9 N1         -1.4430    3.5740    2.1130 n         1 HAL     -0.366000
     10 C3         -1.3410    2.6360    1.0650 c2        1 HAL      0.267000
     11 O1         -1.9610    1.5710    1.1310 o         1 HAL     -0.446000
     12 C4         -0.6120    3.0360   -0.2700 c3        1 HAL      0.029000
     13 O2         -0.4580    1.8560   -1.1140 os        1 HAL     -0.750000
     14 P           0.9940    1.3060   -1.3840 p5        1 HAL      1.972000
     15 O3          1.8210    1.4540   -0.1400 o         1 HAL     -0.848000
     16 O4          1.6270    2.0910   -2.4970 o         1 HAL     -0.848000
     17 C5          0.9060   -0.4970   -1.8620 c3        1 HAL     -0.610000
     18 C6          0.2820   -1.3100   -0.6970 c3        1 HAL     -0.134000
     19 CR1         1.0200   -2.6440   -0.5480 c2        1 HAL     -0.056000
     20 CR2         1.4240   -3.0710    0.6970 c2        1 HAL     -0.117000
     21 CR3         1.9850   -4.3430    0.8510 c1        1 HAL     -0.154000
     22 CR4         2.1300   -5.1590   -0.2370 c1        1 HAL     -0.143000
     23 CR5         1.7170   -4.7200   -1.5000 c1        1 HAL     -0.143000
     24 CR6         1.1700   -3.4770   -1.6490 c1        1 HAL     -0.115000
     25 N2          0.1430   -0.6310   -2.9770 n         1 HAL     -0.333000
     26 C7          0.7460   -1.0570   -4.2010 c2        1 HAL      0.297000
     27 O5          1.9480   -1.3080   -4.2310 o         1 HAL     -0.402000
     28 C8         -0.1440   -1.4430   -5.3960 c3        1 HAL     -0.174000
     29 C9          0.4430   -2.6750   -6.0980 c3        1 HAL     -0.140000
     30 C10        -0.4690   -3.0620   -7.3410 c3        1 HAL     -0.219000
     31 C11         0.1290   -4.2600   -8.0480 c2        1 HAL      0.328000
     32 O6         -0.1520   -5.4520   -7.6460 o         1 HAL     -0.593500
     33 O7          0.8380   -4.0900   -9.1130 o         1 HAL     -0.593500
     34 HP2         0.8820    4.1360    5.8370 ha        1 HAL      0.117500
     35 HP3         1.2400    3.4430    8.0210 ha        1 HAL      0.117500
     36 HP4        -0.4990    2.7560    9.4150 ha        1 HAL      0.117500
     37 HP5        -2.7200    2.7590    8.5900 ha        1 HAL      0.117500
     38 HP6        -3.0960    3.4590    6.3760 ha        1 HAL      0.143000
     39 HC11       -0.8200    4.9360    4.1760 hc        1 HAL      0.105500
     40 HC12       -2.3520    4.7160    4.3880 hc        1 HAL      0.105500
     41 HC21       -0.6230    2.6470    3.6800 h1        1 HAL      0.084500
     42 HC22       -2.2130    2.5150    3.7030 h1        1 HAL      0.084500
     43 HN1        -1.5190    4.4050    1.9340 hn        1 HAL      0.286000
     44 HC41       -1.1270    3.6830   -0.7270 h1        1 HAL      0.102500
     45 HC42        0.2450    3.3980   -0.0690 h1        1 HAL      0.102500
     46 HC5         1.7810   -0.8220   -2.0400 h1        1 HAL      0.141000
     47 HC61       -0.6350   -1.4740   -0.8820 hc        1 HAL      0.100500
     48 HC62        0.3660   -0.7720    0.1810 hc        1 HAL      0.100500
     49 HR2         1.1920   -2.5620    1.4670 ha        1 HAL      0.170000
     50 HR3         2.3120   -4.6490    1.7690 ha        1 HAL      0.109000
     51 HR4         2.5400   -5.9480   -0.1530 ha        1 HAL      0.117500
     52 HR5         1.8630   -5.2870   -2.2860 ha        1 HAL      0.117500
     53 HR6         0.7850   -3.6190   -2.5080 ha        1 HAL      0.169000
     54 HN2        -0.6890   -0.3540   -2.9720 hn        1 HAL      0.225000
     55 HC81       -0.9960   -1.6370   -5.0960 hc        1 HAL      0.088500
     56 HC82       -0.1850   -0.6680   -6.0510 hc        1 HAL      0.088500
     57 HC91        1.3590   -2.4700   -6.4130 hc        1 HAL      0.095500
     58 HC92        0.4760   -3.4470   -5.4510 hc        1 HAL      0.095500
     59 H101       -1.3910   -3.2860   -7.0230 hc        1 HAL      0.057500
     60 H102       -0.5140   -2.3120   -7.9580 hc        1 HAL      0.057500
@<TRIPOS>BOND
     1    1    6 1   
     2    1    7 1   
     3    2    3 1   
     4    2   34 1   
     5    3   35 1   
     6    4    5 1   
     7    4   36 1   
     8    5   37 1   
     9    6   38 1   
    10    7    8 1   
    11    7   39 1   
    12    7   40 1   
    13    8    9 1   
    14    8   41 1   
    15    8   42 1   
    16    9   10 1   
    17    9   43 1   
    18   10   11 1   
    19   10   12 1   
    20   12   13 1   
    21   12   44 1   
    22   12   45 1   
    23   13   14 1   
    24   14   15 1   
    25   14   16 1   
    26   14   17 1   
    27   17   18 1   
    28   17   25 1   
    29   17   46 1   
    30   18   19 1   
    31   18   47 1   
    32   18   48 1   
    33   19   20 1   
    34   19   24 1   
    35   20   21 1   
    36   20   49 1   
    37   21   50 1   
    38   22   23 1   
    39   22   51 1   
    40   23   52 1   
    41   24   53 1   
    42   25   26 1   
    43   25   54 1   
    44   26   27 1   
    45   26   28 1   
    46   28   29 1   
    47   28   55 1   
    48   28   56 1   
    49   29   30 1   
    50   29   57 1   
    51   29   58 1   
    52   30   31 1   
    53   30   59 1   
    54   30   60 1   
    55   31   32 1   
    56   31   33 1   
@<TRIPOS>SUBSTRUCTURE
     1 HAL         1 TEMP              0 ****  ****    0 ROOT
