@<TRIPOS>MOLECULE
HAL
   62    63     1     0     0
SMALL
bcc


@<TRIPOS>ATOM
      1 CP1        -4.5250   -1.5970   -1.0710 ca        1 HAL     -0.089300
      2 CP2        -4.9850   -2.7520   -0.4290 ca        1 HAL     -0.121500
      3 CP3        -5.7410   -2.6510    0.7390 ca        1 HAL     -0.129000
      4 CP4        -6.0420   -1.3980    1.2720 ca        1 HAL     -0.125000
      5 CP5        -5.5830   -0.2430    0.6360 ca        1 HAL     -0.129000
      6 CP6        -4.8270   -0.3420   -0.5300 ca        1 HAL     -0.121500
      7 C1         -3.7040   -1.7030   -2.3070 c3        1 HAL     -0.068100
      8 C2         -4.5480   -1.3160   -3.5220 c3        1 HAL      0.129800
      9 N1         -3.8690   -1.5920   -4.8120 n4        1 HAL     -0.680800
     10 C3         -2.7240   -0.6960   -5.1020 c         1 HAL      0.523100
     11 O1         -2.7950    0.4840   -4.7680 o         1 HAL     -0.487100
     12 C4         -1.5100   -1.2920   -5.8180 c3        1 HAL      0.135400
     13 O2         -1.6860   -2.6060   -6.2100 os        1 HAL     -0.584200
     14 P          -1.0380   -3.7850   -5.2210 p5        1 HAL      1.311600
     15 O3          0.3860   -3.5090   -5.0360 o         1 HAL     -0.811500
     16 O4         -2.0920   -3.8160   -4.1750 o         1 HAL     -0.811500
     17 C5         -1.3410   -5.1340   -6.2900 c3        1 HAL     -0.093700
     18 C6         -0.4140   -6.2670   -5.8620 c3        1 HAL     -0.033100
     19 CR1         0.6100   -6.5750   -6.9020 ca        1 HAL     -0.108300
     20 CR2         1.8130   -5.8600   -6.9380 ca        1 HAL     -0.117000
     21 CR3         2.7750   -6.1670   -7.9000 ca        1 HAL     -0.135000
     22 CR4         2.5450   -7.1850   -8.8260 ca        1 HAL     -0.122000
     23 CR5         1.3470   -7.9000   -8.7900 ca        1 HAL     -0.135000
     24 CR6         0.3820   -7.5970   -7.8310 ca        1 HAL     -0.117000
     25 N2         -2.7870   -5.4200   -6.2250 n4        1 HAL     -0.650800
     26 C7         -3.3180   -6.4430   -7.1730 c         1 HAL      0.560100
     27 O5         -2.8320   -7.5690   -7.1550 o         1 HAL     -0.472100
     28 C8         -4.4820   -6.0050   -8.0200 c3        1 HAL     -0.161400
     29 C9         -4.1750   -4.8310   -8.9350 c3        1 HAL     -0.064400
     30 C10        -5.1740   -3.7040   -8.7740 c3        1 HAL     -0.176400
     31 C11        -5.0420   -2.9820   -7.4500 c         1 HAL      0.909600
     32 O6         -4.8980   -3.6390   -6.3540 o         1 HAL     -0.858800
     33 O7         -5.0740   -1.7190   -7.3960 o         1 HAL     -0.858800
     34 HP2        -4.7430   -3.7430   -0.8440 ha        1 HAL      0.136000
     35 HP3        -6.0980   -3.5620    1.2400 ha        1 HAL      0.133500
     36 HP4        -6.6380   -1.3190    2.1920 ha        1 HAL      0.133000
     37 HP5        -5.8170    0.7460    1.0560 ha        1 HAL      0.133500
     38 HP6        -4.4600    0.5690   -1.0270 ha        1 HAL      0.136000
     39 HC11       -3.3010   -2.7490   -2.4310 hc        1 HAL      0.086700
     40 HC12       -2.8200   -1.0130   -2.2330 hc        1 HAL      0.086700
     41 HC21       -4.8000   -0.2190   -3.4810 hx        1 HAL      0.092700
     42 HC22       -5.5040   -1.9130   -3.5260 hx        1 HAL      0.092700
     43 HN1        -4.5650   -1.5140   -5.6050 hn        1 HAL      0.514800
     44 HC41       -1.3530   -0.6630   -6.7420 h1        1 HAL      0.097200
     45 HC42       -0.6240   -1.1960   -5.1250 h1        1 HAL      0.097200
     46 HC5        -1.1000   -4.8400   -7.3510 hx        1 HAL      0.131700
     47 HC61       -0.9890   -7.2090   -5.6360 hc        1 HAL      0.075200
     48 HC62        0.1130   -5.9630   -4.9130 hc        1 HAL      0.075200
     49 HR2         1.9980   -5.0520   -6.2070 ha        1 HAL      0.156500
     50 HR3         3.7190   -5.6020   -7.9250 ha        1 HAL      0.134000
     51 HR4         3.3070   -7.4250   -9.5810 ha        1 HAL      0.132000
     52 HR5         1.1650   -8.7050   -9.5150 ha        1 HAL      0.134000
     53 HR6        -0.5610   -8.1650   -7.7990 ha        1 HAL      0.156500
     54 HN2        -3.2980   -4.5070   -6.3970 hn        1 HAL      0.493300
     55 HC81       -4.8070   -6.8960   -8.6220 hc        1 HAL      0.109200
     56 HC82       -5.3220   -5.7260   -7.3170 hc        1 HAL      0.109200
     57 HC91       -4.2020   -5.1900   -9.9990 hc        1 HAL      0.051700
     58 HC92       -3.1410   -4.4350   -8.7560 hc        1 HAL      0.051700
     59 H101       -5.0250   -2.9610   -9.6010 hc        1 HAL      0.068200
     60 H102       -6.2200   -4.0980   -8.8510 hc        1 HAL      0.068200
     61 H12        -3.5280   -2.5830   -4.8200 hn        1 HAL      0.514800
     62 H22        -3.0040   -5.6910   -5.2540 hn        1 HAL      0.493300
@<TRIPOS>BOND
     1    1    2 ar  
     2    1    6 ar  
     3    1    7 1   
     4    2    3 ar  
     5    2   34 1   
     6    3    4 ar  
     7    3   35 1   
     8    4    5 ar  
     9    4   36 1   
    10    5    6 ar  
    11    5   37 1   
    12    6   38 1   
    13    7    8 1   
    14    7   39 1   
    15    7   40 1   
    16    8    9 1   
    17    8   41 1   
    18    8   42 1   
    19    9   10 1   
    20    9   43 1   
    21    9   61 1   
    22   10   11 2   
    23   10   12 1   
    24   12   13 1   
    25   12   44 1   
    26   12   45 1   
    27   13   14 1   
    28   14   15 1   
    29   14   16 1   
    30   14   17 1   
    31   17   18 1   
    32   17   25 1   
    33   17   46 1   
    34   18   19 1   
    35   18   47 1   
    36   18   48 1   
    37   19   20 ar  
    38   19   24 ar  
    39   20   21 ar  
    40   20   49 1   
    41   21   22 ar  
    42   21   50 1   
    43   22   23 ar  
    44   22   51 1   
    45   23   24 ar  
    46   23   52 1   
    47   24   53 1   
    48   25   26 1   
    49   25   54 1   
    50   25   62 1   
    51   26   27 2   
    52   26   28 1   
    53   28   29 1   
    54   28   55 1   
    55   28   56 1   
    56   29   30 1   
    57   29   57 1   
    58   29   58 1   
    59   30   31 1   
    60   30   59 1   
    61   30   60 1   
    62   31   32 1   
    63   31   33 1   
@<TRIPOS>SUBSTRUCTURE
     1 HAL         1 TEMP              0 ****  ****    0 ROOT
