@<TRIPOS>MOLECULE
HAL
   62    63     1     0     0
SMALL
bcc


@<TRIPOS>ATOM
      1 CP1        -4.0340   -2.1590   -1.6900 ca        1 HAL     -0.127300
      2 CP2        -3.6340   -1.3780   -0.6000 ca        1 HAL     -0.127500
      3 CP3        -3.1910   -1.9880    0.5730 ca        1 HAL     -0.130000
      4 CP4        -3.1440   -3.3790    0.6630 ca        1 HAL     -0.123000
      5 CP5        -3.5430   -4.1610   -0.4220 ca        1 HAL     -0.130000
      6 CP6        -3.9880   -3.5570   -1.5960 ca        1 HAL     -0.127500
      7 C1         -4.5260   -1.5220   -2.9410 c3        1 HAL     -0.054100
      8 C2         -3.6250   -1.8420   -4.1240 c3        1 HAL      0.088800
      9 N1         -2.2660   -1.2270   -4.0070 ny        1 HAL     -0.673800
     10 C3         -2.2040    0.0880   -4.7140 c         1 HAL      0.523100
     11 O1         -2.3640    1.1000   -4.0390 o         1 HAL     -0.480100
     12 C4         -1.9160    0.0720   -6.2170 c3        1 HAL      0.161400
     13 O2         -2.0440   -1.1750   -6.7910 os        1 HAL     -0.588200
     14 P          -0.6150   -2.0260   -7.0560 p5        1 HAL      1.310600
     15 O3         -0.0600   -1.4840   -8.2950 o         1 HAL     -0.800000
     16 O4         -0.0900   -1.9430   -5.6740 o         1 HAL     -0.800000
     17 C5         -1.2400   -3.6150   -7.4320 c3        1 HAL     -0.087700
     18 C6         -1.2980   -4.4390   -6.1570 c3        1 HAL     -0.082100
     19 CR1        -0.9660   -5.8810   -6.3220 ca        1 HAL     -0.104300
     20 CR2         0.2040   -6.2930   -6.9700 ca        1 HAL     -0.134000
     21 CR3         0.5180   -7.6490   -7.0600 ca        1 HAL     -0.128500
     22 CR4        -0.3260   -8.6030   -6.4920 ca        1 HAL     -0.128000
     23 CR5        -1.4850   -8.1970   -5.8320 ca        1 HAL     -0.128500
     24 CR6        -1.8070   -6.8440   -5.7440 ca        1 HAL     -0.134000
     25 N2         -2.5170   -3.4940   -8.1670 ny        1 HAL     -0.655800
     26 C7         -2.8080   -4.6550   -9.0660 c         1 HAL      0.556100
     27 O5         -2.3180   -4.6170  -10.1910 o         1 HAL     -0.462100
     28 C8         -3.6750   -5.7520   -8.5190 c3        1 HAL     -0.161400
     29 C9         -5.1070   -5.3120   -8.2590 c3        1 HAL     -0.069400
     30 C10        -5.5090   -5.4920   -6.8100 c3        1 HAL     -0.186400
     31 C11        -4.7960   -4.5070   -5.9010 c         1 HAL      0.898600
     32 O6         -4.3380   -4.8720   -4.7830 o         1 HAL     -0.853300
     33 O7         -4.6350   -3.2950   -6.2950 o         1 HAL     -0.853300
     34 HP2        -3.6820   -0.2800   -0.6610 ha        1 HAL      0.155000
     35 HP3        -2.8810   -1.3690    1.4280 ha        1 HAL      0.136500
     36 HP4        -2.7960   -3.8580    1.5890 ha        1 HAL      0.134000
     37 HP5        -3.5090   -5.2580   -0.3520 ha        1 HAL      0.136500
     38 HP6        -4.3020   -4.1750   -2.4590 ha        1 HAL      0.155000
     39 HC11       -4.6350   -0.4120   -2.8080 hc        1 HAL      0.078200
     40 HC12       -5.5420   -1.9350   -3.1970 hc        1 HAL      0.078200
     41 HC21       -4.0940   -1.5040   -5.0960 hx        1 HAL      0.148200
     42 HC22       -3.5040   -2.9710   -4.2130 hx        1 HAL      0.148200
     43 HN1        -1.5540   -1.8470   -4.4660 hn        1 HAL      0.476800
     44 HC41       -2.6690    0.7660   -6.6900 h1        1 HAL      0.092700
     45 HC42       -0.8690    0.4740   -6.3420 h1        1 HAL      0.092700
     46 HC5        -0.4940   -4.0880   -8.1400 hx        1 HAL      0.124700
     47 HC61       -0.5450   -4.0040   -5.4340 hc        1 HAL      0.110700
     48 HC62       -2.3130   -4.3570   -5.6590 hc        1 HAL      0.110700
     49 HR2         0.8930   -5.5500   -7.3980 ha        1 HAL      0.152500
     50 HR3         1.4390   -7.9630   -7.5730 ha        1 HAL      0.135500
     51 HR4        -0.0740   -9.6710   -6.5610 ha        1 HAL      0.134000
     52 HR5        -2.1480   -8.9460   -5.3720 ha        1 HAL      0.135500
     53 HR6        -2.7230   -6.5210   -5.2120 ha        1 HAL      0.152500
     54 HN2        -3.3210   -3.3820   -7.4780 hn        1 HAL      0.489300
     55 HC81       -3.6560   -6.5870   -9.2700 hc        1 HAL      0.104200
     56 HC82       -3.2040   -6.1360   -7.5680 hc        1 HAL      0.104200
     57 HC91       -5.7900   -5.9220   -8.9090 hc        1 HAL      0.057700
     58 HC92       -5.2570   -4.2360   -8.5420 hc        1 HAL      0.057700
     59 H101       -6.6110   -5.3110   -6.7100 hc        1 HAL      0.062700
     60 H102       -5.2970   -6.5360   -6.4670 hc        1 HAL      0.062700
     61 H12        -2.0270   -1.1130   -3.0180 hn        1 HAL      0.476800
     62 H22        -2.4520   -2.6400   -8.7390 hn        1 HAL      0.489300
@<TRIPOS>BOND
     1    1    2 ar  
     2    1    6 ar  
     3    1    7 1   
     4    2    3 ar  
     5    2   34 1   
     6    3    4 ar  
     7    3   35 1   
     8    4    5 ar  
     9    4   36 1   
    10    5    6 ar  
    11    5   37 1   
    12    6   38 1   
    13    7    8 1   
    14    7   39 1   
    15    7   40 1   
    16    8    9 1   
    17    8   41 1   
    18    8   42 1   
    19    9   10 1   
    20    9   43 1   
    21    9   61 1   
    22   10   11 2   
    23   10   12 1   
    24   12   13 1   
    25   12   44 1   
    26   12   45 1   
    27   13   14 1   
    28   14   15 1   
    29   14   16 1   
    30   14   17 1   
    31   17   18 1   
    32   17   25 1   
    33   17   46 1   
    34   18   19 1   
    35   18   47 1   
    36   18   48 1   
    37   19   20 ar  
    38   19   24 ar  
    39   20   21 ar  
    40   20   49 1   
    41   21   22 ar  
    42   21   50 1   
    43   22   23 ar  
    44   22   51 1   
    45   23   24 ar  
    46   23   52 1   
    47   24   53 1   
    48   25   26 1   
    49   25   54 1   
    50   25   62 1   
    51   26   27 2   
    52   26   28 1   
    53   28   29 1   
    54   28   55 1   
    55   28   56 1   
    56   29   30 1   
    57   29   57 1   
    58   29   58 1   
    59   30   31 1   
    60   30   59 1   
    61   30   60 1   
    62   31   32 1   
    63   31   33 1   
@<TRIPOS>SUBSTRUCTURE
     1 HAL         1 TEMP              0 ****  ****    0 ROOT
