@<TRIPOS>MOLECULE
HAM
   54    57     1     0     0
SMALL
bcc


@<TRIPOS>ATOM
      1 P          -1.6700   -1.9790    1.3830 p5        1 HAM      1.706500
      2 O1P        -2.6640   -3.0400    0.7680 oh        1 HAM     -0.762400
      3 O2P        -0.5420   -2.3910    2.1910 o         1 HAM     -0.786300
      4 O3P        -2.6580   -0.9150    2.0630 os        1 HAM     -0.641500
      5 O5'        -1.2400   -1.1980    0.0470 os        1 HAM     -0.599200
      6 C5'         0.0520   -0.6420   -0.0220 c3        1 HAM      0.162400
      7 C4'         0.8470   -1.3280   -1.1400 c3        1 HAM      0.072100
      8 O4'         1.6480   -0.3380   -1.8030 os        1 HAM     -0.410600
      9 C3'         1.7790   -2.4510   -0.6370 c3        1 HAM      0.120100
     10 O3'         1.5620   -3.6460   -1.3460 oh        1 HAM     -0.571800
     11 C2'         3.2090   -1.8870   -0.7880 c3        1 HAM      0.085100
     12 O2'         3.9430   -2.7360   -1.6420 oh        1 HAM     -0.592800
     13 C1'         3.0340   -0.5000   -1.4920 c3        1 HAM      0.222800
     14 N9          3.5050    0.6180   -0.7060 na        1 HAM     -0.291000
     15 C8          2.8390    1.8330   -0.4150 cc        1 HAM      0.421700
     16 N7          3.5990    2.7120    0.2550 nd        1 HAM     -0.547100
     17 C5          4.8390    2.0760    0.4180 ca        1 HAM     -0.229200
     18 C6          6.0710    2.4770    1.0360 ca        1 HAM      0.767200
     19 N6          6.1830    3.7120    1.6150 nh        1 HAM     -0.958500
     20 N1          7.1350    1.6020    1.0230 nb        1 HAM     -0.795000
     21 C2          6.9540    0.4000    0.4150 ca        1 HAM      0.692900
     22 N3          5.8640   -0.1120   -0.2030 nb        1 HAM     -0.761000
     23 C4          4.8030    0.7510   -0.1900 ca        1 HAM      0.453800
     24 C          -4.0060   -0.7370    2.0190 c         1 HAM      0.719100
     25 O          -4.6320   -1.0910    3.0110 o         1 HAM     -0.476000
     26 CA         -4.5500    0.0290    0.8070 c3        1 HAM      0.112500
     27 N          -4.6320   -0.8670   -0.3270 n3        1 HAM     -0.924800
     28 CB         -5.8630    0.7000    1.2440 c3        1 HAM     -0.123700
     29 CG         -6.3940    1.6180    0.2190 cc        1 HAM      0.285600
     30 CD2        -6.8450    2.9370    0.4450 cd        1 HAM     -0.238600
     31 ND1        -6.5670    1.2890   -1.1330 nc        1 HAM     -0.687000
     32 CE1        -7.1070    2.3810   -1.7120 cd        1 HAM      0.398400
     33 NE2        -7.2950    3.4120   -0.7840 na        1 HAM     -0.316900
     34 H5'1        0.5670   -0.7480    0.9730 h1        1 HAM      0.066200
     35 H5'2       -0.0650    0.4490   -0.2830 h1        1 HAM      0.066200
     36 H4'         0.1410   -1.7120   -1.9280 h1        1 HAM      0.104700
     37 H3'         1.5690   -2.7170    0.4380 h1        1 HAM      0.121700
     38 HO3'        1.9880   -3.5700   -2.2110 ho        1 HAM      0.421000
     39 H2'         3.7020   -1.8000    0.2150 h1        1 HAM      0.090700
     40 HO2'        4.8790   -2.5550   -1.4800 ho        1 HAM      0.436000
     41 H1'         3.5730   -0.4900   -2.4890 h2        1 HAM      0.102700
     42 H8          1.8000    1.9870   -0.7330 h5        1 HAM      0.082800
     43 HN61        7.0150    3.9820    2.0760 hn        1 HAM      0.450300
     44 HN62        5.3870    4.2980    1.6470 hn        1 HAM      0.450300
     45 H2          7.8460   -0.2640    0.4320 h5        1 HAM      0.052100
     46 HA         -3.7950    0.8410    0.5750 h1        1 HAM      0.088700
     47 HN1        -4.4940   -0.3630   -1.1820 hn        1 HAM      0.377800
     48 HN2        -3.0660   -2.8440   -0.0790 ho        1 HAM      0.506000
     49 HN3        -5.5250   -1.3220   -0.3570 hn        1 HAM      0.377800
     50 HB1        -6.6270   -0.0920    1.4810 hc        1 HAM      0.073200
     51 HB2        -5.6730    1.2710    2.1920 hc        1 HAM      0.073200
     52 HD2        -6.8730    3.5340    1.3550 h4        1 HAM      0.184000
     53 HE1        -7.3770    2.4760   -2.7690 h5        1 HAM      0.065100
     54 HE2        -7.6780    4.3020   -0.9600 hn        1 HAM      0.305700
@<TRIPOS>BOND
     1    1    2 1   
     2    1    3 2   
     3    1    4 1   
     4    1    5 1   
     5    2   48 1   
     6    4   24 1   
     7    5    6 1   
     8    6    7 1   
     9    6   34 1   
    10    6   35 1   
    11    7    8 1   
    12    7    9 1   
    13    7   36 1   
    14    8   13 1   
    15    9   10 1   
    16    9   11 1   
    17    9   37 1   
    18   10   38 1   
    19   11   12 1   
    20   11   13 1   
    21   11   39 1   
    22   12   40 1   
    23   13   14 1   
    24   13   41 1   
    25   14   15 1   
    26   14   23 1   
    27   15   16 2   
    28   15   42 1   
    29   16   17 1   
    30   17   18 ar  
    31   17   23 ar  
    32   18   19 1   
    33   18   20 ar  
    34   19   43 1   
    35   19   44 1   
    36   20   21 ar  
    37   21   22 ar  
    38   21   45 1   
    39   22   23 ar  
    40   24   25 2   
    41   24   26 1   
    42   26   27 1   
    43   26   28 1   
    44   26   46 1   
    45   27   47 1   
    46   27   49 1   
    47   28   29 1   
    48   28   50 1   
    49   28   51 1   
    50   29   30 2   
    51   29   31 1   
    52   30   33 1   
    53   30   52 1   
    54   31   32 2   
    55   32   33 1   
    56   32   53 1   
    57   33   54 1   
@<TRIPOS>SUBSTRUCTURE
     1 HAM         1 TEMP              0 ****  ****    0 ROOT
