@<TRIPOS>MOLECULE
HAM
   54    57     1     0     0
SMALL
bcc


@<TRIPOS>ATOM
      1 P           0.1620    0.4160    1.1170 p5        1 HAM      1.502800
      2 O1P         1.0550   -0.7190    0.7790 o         1 HAM     -0.790500
      3 O2P         0.3140    1.6080    1.9410 o         1 HAM     -0.790500
      4 O3P        -1.2100   -0.4610    1.5600 os        1 HAM     -0.568500
      5 O5'        -0.4700    0.8190   -0.3340 os        1 HAM     -0.599200
      6 C5'        -1.2790    1.9610   -0.3930 c3        1 HAM      0.167400
      7 C4'        -0.5690    3.0940   -1.1460 c3        1 HAM      0.103100
      8 O4'        -1.5530    3.8800   -1.8340 os        1 HAM     -0.411600
      9 C3'         0.2290    4.0440   -0.2320 c3        1 HAM      0.064100
     10 O3'         1.5270    4.1630   -0.7880 oh        1 HAM     -0.594800
     11 C2'        -0.4970    5.4090   -0.3060 c3        1 HAM      0.082100
     12 O2'         0.3010    6.4010   -0.9040 oh        1 HAM     -0.581800
     13 C1'        -1.7650    5.1390   -1.1800 c3        1 HAM      0.213800
     14 N9         -2.9960    5.1460   -0.4280 na        1 HAM     -0.281000
     15 C8         -3.2420    4.5930    0.8570 cc        1 HAM      0.405700
     16 N7         -4.5280    4.6440    1.2290 nd        1 HAM     -0.542100
     17 C5         -5.1990    5.2330    0.1460 ca        1 HAM     -0.233200
     18 C6         -6.5760    5.5650   -0.0810 ca        1 HAM      0.752200
     19 N6         -7.5280    5.2460    0.8580 nh        1 HAM     -0.952500
     20 N1         -6.9250    6.1680   -1.2670 nb        1 HAM     -0.795000
     21 C2         -5.9340    6.3990   -2.1680 ca        1 HAM      0.682900
     22 N3         -4.6080    6.1360   -2.0980 nb        1 HAM     -0.729000
     23 C4         -4.2520    5.5450   -0.9180 ca        1 HAM      0.470800
     24 C          -1.4230   -1.7610    1.4290 c         1 HAM      0.713100
     25 O          -1.5630   -2.4640    2.4280 o         1 HAM     -0.496000
     26 CA         -1.6430   -2.3180   -0.0020 c3        1 HAM      0.035500
     27 N          -0.3300   -2.5680   -0.6590 n4        1 HAM     -0.863600
     28 CB         -2.5240   -3.5660    0.0880 c3        1 HAM     -0.110700
     29 CG         -2.8830   -4.1250   -1.2280 cc        1 HAM      0.261600
     30 CD2        -4.1730   -4.5320   -1.6310 cd        1 HAM     -0.215600
     31 ND1        -1.9680   -4.3810   -2.2610 nc        1 HAM     -0.725000
     32 CE1        -2.6850   -4.9280   -3.2630 cd        1 HAM      0.416400
     33 NE2        -4.0360   -5.0410   -2.9190 na        1 HAM     -0.309900
     34 H5'1       -1.5630    2.2830    0.6470 h1        1 HAM      0.052700
     35 H5'2       -2.2080    1.6880   -0.9710 h1        1 HAM      0.052700
     36 H4'         0.0900    2.6660   -1.9520 h1        1 HAM      0.105700
     37 H3'         0.2820    3.6740    0.8290 h1        1 HAM      0.115700
     38 HO3'        2.0650    4.6310   -0.1370 ho        1 HAM      0.419000
     39 H2'        -0.7450    5.8140    0.7110 h1        1 HAM      0.102700
     40 HO2'        0.7020    6.0180   -1.6990 ho        1 HAM      0.422000
     41 H1'        -1.8600    5.8930   -2.0180 h2        1 HAM      0.128700
     42 H8         -2.4230    4.1880    1.4670 h5        1 HAM      0.081800
     43 HN61       -8.4490    5.5950    0.7620 hn        1 HAM      0.442300
     44 HN62       -7.2170    4.9580    1.7530 hn        1 HAM      0.442300
     45 H2         -6.2710    6.8830   -3.1110 h5        1 HAM      0.050100
     46 HA         -2.1750   -1.5200   -0.6050 hx        1 HAM      0.122700
     47 HN1        -0.4300   -2.5230   -1.6730 hn        1 HAM      0.473133
     48 HN2         0.3660   -1.8180   -0.3300 hn        1 HAM      0.473133
     49 HN3         0.0220   -3.4880   -0.3990 hn        1 HAM      0.473133
     50 HB1        -2.0100   -4.3480    0.7150 hc        1 HAM      0.092200
     51 HB2        -3.4590   -3.2710    0.6400 hc        1 HAM      0.092200
     52 HD2        -5.1280   -4.4940   -1.1090 h4        1 HAM      0.191000
     53 HE1        -2.2860   -5.2550   -4.2310 h5        1 HAM      0.072100
     54 HE2        -4.7590   -5.4100   -3.4800 hn        1 HAM      0.313700
@<TRIPOS>BOND
     1    1    2 1   
     2    1    3 1   
     3    1    4 1   
     4    1    5 1   
     5    4   24 1   
     6    5    6 1   
     7    6    7 1   
     8    6   34 1   
     9    6   35 1   
    10    7    8 1   
    11    7    9 1   
    12    7   36 1   
    13    8   13 1   
    14    9   10 1   
    15    9   11 1   
    16    9   37 1   
    17   10   38 1   
    18   11   12 1   
    19   11   13 1   
    20   11   39 1   
    21   12   40 1   
    22   13   14 1   
    23   13   41 1   
    24   14   15 1   
    25   14   23 1   
    26   15   16 2   
    27   15   42 1   
    28   16   17 1   
    29   17   18 ar  
    30   17   23 ar  
    31   18   19 1   
    32   18   20 ar  
    33   19   43 1   
    34   19   44 1   
    35   20   21 ar  
    36   21   22 ar  
    37   21   45 1   
    38   22   23 ar  
    39   24   25 2   
    40   24   26 1   
    41   26   27 1   
    42   26   28 1   
    43   26   46 1   
    44   27   47 1   
    45   27   48 1   
    46   27   49 1   
    47   28   29 1   
    48   28   50 1   
    49   28   51 1   
    50   29   30 2   
    51   29   31 1   
    52   30   33 1   
    53   30   52 1   
    54   31   32 2   
    55   32   33 1   
    56   32   53 1   
    57   33   54 1   
@<TRIPOS>SUBSTRUCTURE
     1 HAM         1 TEMP              0 ****  ****    0 ROOT
