@<TRIPOS>MOLECULE
HAM
   54    57     1     0     0
SMALL
bcc


@<TRIPOS>ATOM
      1 P          -0.1580    0.4000    1.1110 p5        1 HAM      1.710500
      2 O1P         1.1310   -0.4190    0.7120 oh        1 HAM     -0.763400
      3 O2P        -0.0800    1.4950    2.0580 o         1 HAM     -0.797300
      4 O3P        -1.2260   -0.7420    1.4550 os        1 HAM     -0.644500
      5 O5'        -0.6460    0.8860   -0.3390 os        1 HAM     -0.598200
      6 C5'        -1.4280    2.0550   -0.4260 c3        1 HAM      0.165400
      7 C4'        -0.6310    3.1810   -1.0950 c3        1 HAM      0.104100
      8 O4'        -1.5440    4.0260   -1.8050 os        1 HAM     -0.406600
      9 C3'         0.1530    4.0680   -0.1060 c3        1 HAM      0.064100
     10 O3'         1.4970    4.0910   -0.5540 oh        1 HAM     -0.592800
     11 C2'        -0.4710    5.4780   -0.2210 c3        1 HAM      0.081100
     12 O2'         0.4190    6.3970   -0.8030 oh        1 HAM     -0.577800
     13 C1'        -1.7250    5.2830   -1.1310 c3        1 HAM      0.213800
     14 N9         -2.9720    5.3260   -0.4120 na        1 HAM     -0.285000
     15 C8         -3.2710    4.7690    0.8620 cc        1 HAM      0.397700
     16 N7         -4.5640    4.8510    1.1960 nd        1 HAM     -0.535100
     17 C5         -5.1890    5.4650    0.0990 ca        1 HAM     -0.238200
     18 C6         -6.5500    5.8350   -0.1640 ca        1 HAM      0.761200
     19 N6         -7.5320    5.5520    0.7490 nv        1 HAM     -0.957500
     20 N1         -6.8480    6.4510   -1.3580 nb        1 HAM     -0.795000
     21 C2         -5.8260    6.6630   -2.2280 ca        1 HAM      0.688900
     22 N3         -4.5090    6.3680   -2.1200 nb        1 HAM     -0.732000
     23 C4         -4.2040    5.7610   -0.9350 ca        1 HAM      0.474800
     24 C          -1.2370   -2.0920    1.2820 c         1 HAM      0.719100
     25 O          -1.0560   -2.7660    2.2890 o         1 HAM     -0.474000
     26 CA         -1.6310   -2.5940   -0.1120 c3        1 HAM      0.112500
     27 N          -0.4900   -2.4860   -0.9970 n8        1 HAM     -0.925800
     28 CB         -2.2300   -4.0000    0.0610 c3        1 HAM     -0.122700
     29 CG         -2.8080   -4.5190   -1.1920 cc        1 HAM      0.283600
     30 CD2        -4.0950   -5.0830   -1.3390 cd        1 HAM     -0.237600
     31 ND1        -2.1350   -4.5610   -2.4220 nc        1 HAM     -0.687000
     32 CE1        -2.9920   -5.1350   -3.2920 cd        1 HAM      0.399400
     33 NE2        -4.2010   -5.4710   -2.6720 na        1 HAM     -0.316900
     34 H5'1       -1.7770    2.3550    0.6000 h1        1 HAM      0.065700
     35 H5'2       -2.3130    1.8120   -1.0810 h1        1 HAM      0.065700
     36 H4'         0.0540    2.7500   -1.8780 h1        1 HAM      0.111700
     37 H3'         0.0970    3.6920    0.9510 h1        1 HAM      0.100700
     38 HO3'        1.9900    4.6360    0.0750 ho        1 HAM      0.422000
     39 H2'        -0.7220    5.9180    0.7810 h1        1 HAM      0.106700
     40 HO2'        0.7840    5.9890   -1.6030 ho        1 HAM      0.423000
     41 H1'        -1.7650    6.0530   -1.9600 h2        1 HAM      0.133700
     42 H8         -2.4790    4.3440    1.4940 h5        1 HAM      0.077800
     43 HN61       -7.2660    5.2040    1.6370 hn        1 HAM      0.447300
     44 HN62       -8.4540    5.8840    0.6120 hn        1 HAM      0.447300
     45 H2         -6.1230    7.1600   -3.1780 h5        1 HAM      0.052100
     46 HA         -2.4470   -1.9020   -0.4840 h1        1 HAM      0.089700
     47 HN1         0.0570   -3.3260   -0.9770 hn        1 HAM      0.378800
     48 HN2         1.1880   -0.7630   -0.1810 ho        1 HAM      0.507000
     49 HN3        -0.7910   -2.3160   -1.9380 hn        1 HAM      0.378800
     50 HB1        -3.0300   -3.9520    0.8480 hc        1 HAM      0.073200
     51 HB2        -1.4360   -4.7020    0.4370 hc        1 HAM      0.073200
     52 HD2        -4.8960   -5.2260   -0.6170 h4        1 HAM      0.184000
     53 HE1        -2.7930   -5.3260   -4.3510 h5        1 HAM      0.066100
     54 HE2        -4.9800   -5.9020   -3.0930 hn        1 HAM      0.306700
@<TRIPOS>BOND
     1    1    2 1   
     2    1    3 2   
     3    1    4 1   
     4    1    5 1   
     5    2   48 1   
     6    4   24 1   
     7    5    6 1   
     8    6    7 1   
     9    6   34 1   
    10    6   35 1   
    11    7    8 1   
    12    7    9 1   
    13    7   36 1   
    14    8   13 1   
    15    9   10 1   
    16    9   11 1   
    17    9   37 1   
    18   10   38 1   
    19   11   12 1   
    20   11   13 1   
    21   11   39 1   
    22   12   40 1   
    23   13   14 1   
    24   13   41 1   
    25   14   15 1   
    26   14   23 1   
    27   15   16 2   
    28   15   42 1   
    29   16   17 1   
    30   17   18 ar  
    31   17   23 ar  
    32   18   19 1   
    33   18   20 ar  
    34   19   43 1   
    35   19   44 1   
    36   20   21 ar  
    37   21   22 ar  
    38   21   45 1   
    39   22   23 ar  
    40   24   25 2   
    41   24   26 1   
    42   26   27 1   
    43   26   28 1   
    44   26   46 1   
    45   27   47 1   
    46   27   49 1   
    47   28   29 1   
    48   28   50 1   
    49   28   51 1   
    50   29   30 2   
    51   29   31 1   
    52   30   33 1   
    53   30   52 1   
    54   31   32 2   
    55   32   33 1   
    56   32   53 1   
    57   33   54 1   
@<TRIPOS>SUBSTRUCTURE
     1 HAM         1 TEMP              0 ****  ****    0 ROOT
