@<TRIPOS>MOLECULE
HAM
   55    58     1     0     0
SMALL
bcc


@<TRIPOS>ATOM
      1 P          -1.1000    0.8100    0.3810 p5        1 HAM      1.538800
      2 O1P        -0.1030   -0.2070    0.7660 o         1 HAM     -0.825000
      3 O2P        -1.5010    2.0430    1.0650 o         1 HAM     -0.825000
      4 O3P        -2.4300   -0.1800    0.1210 os        1 HAM     -0.592500
      5 O5'        -0.8800    1.2050   -1.1810 os        1 HAM     -0.577200
      6 C5'        -1.6820    2.2260   -1.7050 c3        1 HAM      0.177400
      7 C4'        -0.8690    3.4930   -2.0140 c3        1 HAM      0.107100
      8 O4'        -1.7930    4.5890   -2.1560 os        1 HAM     -0.405600
      9 C3'         0.1440    3.8780   -0.9230 c3        1 HAM      0.093100
     10 O3'         1.3790    4.1460   -1.5580 oh        1 HAM     -0.587800
     11 C2'        -0.4010    5.1650   -0.2640 c3        1 HAM      0.092100
     12 O2'         0.4910    6.2450   -0.3510 oh        1 HAM     -0.575800
     13 C1'        -1.7070    5.4930   -1.0570 c3        1 HAM      0.208800
     14 N9         -2.9160    5.4400   -0.2460 na        1 HAM     -0.265000
     15 C8         -3.2490    4.5530    0.8030 cc        1 HAM      0.523700
     16 N7         -4.4820    4.7500    1.3180 nd        1 HAM     -0.611100
     17 C5         -5.0190    5.8030    0.5770 ca        1 HAM     -0.122200
     18 C6         -6.2390    6.4930    0.5980 ca        1 HAM      0.492200
     19 N6         -7.2470    6.0940    1.5970 n4        1 HAM     -0.811300
     20 N1         -6.5110    7.5100   -0.2630 nb        1 HAM     -0.686000
     21 C2         -5.5300    7.8320   -1.1490 ca        1 HAM      0.660900
     22 N3         -4.2970    7.2740   -1.3000 nb        1 HAM     -0.618000
     23 C4         -4.0400    6.2600   -0.4430 ca        1 HAM      0.459800
     24 C          -2.6270   -1.4290    0.5290 c         1 HAM      0.707100
     25 O          -3.3740   -1.6550    1.4780 o         1 HAM     -0.485000
     26 CA         -2.0130   -2.5510   -0.3380 c3        1 HAM      0.045500
     27 N          -0.6010   -2.7980    0.0660 n4        1 HAM     -0.860600
     28 CB         -2.9000   -3.7950   -0.2240 c3        1 HAM     -0.108700
     29 CG         -2.4780   -4.9050   -1.0970 cc        1 HAM      0.251600
     30 CD2        -3.3380   -5.7800   -1.7960 cd        1 HAM     -0.208600
     31 ND1        -1.1460   -5.2880   -1.3140 nc        1 HAM     -0.737000
     32 CE1        -1.1960   -6.3660   -2.1220 cd        1 HAM      0.427400
     33 NE2        -2.5160   -6.7010   -2.4390 na        1 HAM     -0.304900
     34 H5'1       -2.1220    1.8510   -2.6720 h1        1 HAM      0.051200
     35 H5'2       -2.5120    2.4760   -0.9860 h1        1 HAM      0.051200
     36 H4'        -0.3610    3.4030   -3.0140 h1        1 HAM      0.113700
     37 H3'         0.2400    3.0540   -0.1620 h1        1 HAM      0.083700
     38 HO3'        2.0550    4.1580   -0.8670 ho        1 HAM      0.425000
     39 H2'        -0.5790    5.0180    0.8360 h1        1 HAM      0.113700
     40 HO2'        0.8710    6.2550   -1.2440 ho        1 HAM      0.429000
     41 H1'        -1.6580    6.5280   -1.5170 h2        1 HAM      0.127700
     42 H8         -2.5410    3.7650    1.1650 h5        1 HAM      0.178800
     43 HN61       -6.8810    6.3120    2.5310 hn        1 HAM      0.474133
     44 HN62       -7.3920    5.0790    1.5220 hn        1 HAM      0.474133
     45 H2         -5.7730    8.6670   -1.8460 h5        1 HAM      0.093100
     46 HA         -1.9980   -2.1950   -1.4130 hx        1 HAM      0.122700
     47 HN1        -0.1000   -3.2790   -0.6840 hn        1 HAM      0.478467
     48 HN2        -0.1300   -1.8700    0.2720 hn        1 HAM      0.478467
     49 HN3        -0.5750   -3.3810    0.9030 hn        1 HAM      0.478467
     50 HB1        -2.9330   -4.1380    0.8480 hc        1 HAM      0.091700
     51 HB2        -3.9460   -3.4810   -0.4960 hc        1 HAM      0.091700
     52 HD2        -4.4250   -5.8060   -1.8690 h4        1 HAM      0.193000
     53 HE1        -0.3310   -6.9280   -2.4950 h5        1 HAM      0.078100
     54 HE2        -2.8140   -7.4530   -3.0050 hn        1 HAM      0.319700
     55 H63        -8.1350    6.5870    1.4480 hn        1 HAM      0.474133
@<TRIPOS>BOND
     1    1    2 1   
     2    1    3 1   
     3    1    4 1   
     4    1    5 1   
     5    4   24 1   
     6    5    6 1   
     7    6    7 1   
     8    6   34 1   
     9    6   35 1   
    10    7    8 1   
    11    7    9 1   
    12    7   36 1   
    13    8   13 1   
    14    9   10 1   
    15    9   11 1   
    16    9   37 1   
    17   10   38 1   
    18   11   12 1   
    19   11   13 1   
    20   11   39 1   
    21   12   40 1   
    22   13   14 1   
    23   13   41 1   
    24   14   15 1   
    25   14   23 1   
    26   15   16 2   
    27   15   42 1   
    28   16   17 1   
    29   17   18 ar  
    30   17   23 ar  
    31   18   19 1   
    32   18   20 ar  
    33   19   43 1   
    34   19   44 1   
    35   19   55 1   
    36   20   21 ar  
    37   21   22 ar  
    38   21   45 1   
    39   22   23 ar  
    40   24   25 2   
    41   24   26 1   
    42   26   27 1   
    43   26   28 1   
    44   26   46 1   
    45   27   47 1   
    46   27   48 1   
    47   27   49 1   
    48   28   29 1   
    49   28   50 1   
    50   28   51 1   
    51   29   30 2   
    52   29   31 1   
    53   30   33 1   
    54   30   52 1   
    55   31   32 2   
    56   32   33 1   
    57   32   53 1   
    58   33   54 1   
@<TRIPOS>SUBSTRUCTURE
     1 HAM         1 TEMP              0 ****  ****    0 ROOT
