@<TRIPOS>MOLECULE
HAN
   37    38     1     0     0
SMALL
bcc


@<TRIPOS>ATOM
      1 N1         -0.2350   -0.1070    0.0760 na        1 HAN     -0.179300
      2 C2          1.1950   -0.1560   -0.0010 cc        1 HAN      0.609700
      3 N3          1.7920   -0.0620    1.2310 nd        1 HAN     -0.637100
      4 C4          0.7310    0.0870    3.5420 ca        1 HAN     -0.093000
      5 C5         -0.4850    0.1280    4.2210 ca        1 HAN     -0.101300
      6 C6         -1.7160    0.0780    3.5250 ca        1 HAN     -0.085300
      7 C7         -1.7530   -0.0120    2.1340 ca        1 HAN     -0.119000
      8 C9          0.7280   -0.0050    2.1470 ca        1 HAN      0.093400
      9 C8         -0.5420   -0.0520    1.4430 ca        1 HAN     -0.071200
     10 C10        -0.4900    0.2220    5.7010 c3        1 HAN     -0.041800
     11 C11        -2.9890    0.1170    4.2840 c3        1 HAN     -0.043800
     12 N12         1.8760   -0.3450   -1.2100 nh        1 HAN     -0.868800
     13 C13        -1.1600   -0.2470   -1.0130 c3        1 HAN      0.039300
     14 C14        -1.2570   -1.6350   -1.6470 c3        1 HAN     -0.105400
     15 C15        -2.1440   -1.5580   -2.8730 c3        1 HAN     -0.069400
     16 C16        -2.2200   -2.8750   -3.6040 c3        1 HAN     -0.197400
     17 C17        -2.8050   -2.6860   -5.0180 c         1 HAN      0.908600
     18 O18        -2.4280   -1.6840   -5.6930 o         1 HAN     -0.849300
     19 O19        -3.6210   -3.5550   -5.4360 o         1 HAN     -0.849300
     20 H4          1.6830    0.1240    4.0900 ha        1 HAN      0.137000
     21 H7         -2.7120   -0.0550    1.5990 ha        1 HAN      0.137000
     22 H101       -1.0190   -0.6580    6.1440 hc        1 HAN      0.034367
     23 H102       -1.0250    1.1490    6.0300 hc        1 HAN      0.034367
     24 H103        0.5490    0.2520    6.1110 hc        1 HAN      0.034367
     25 H111       -3.8730    0.0740    3.6020 hc        1 HAN      0.036700
     26 H112       -3.0530    1.0590    4.8860 hc        1 HAN      0.036700
     27 H113       -3.0450   -0.7490    4.9900 hc        1 HAN      0.036700
     28 H121        1.3480   -0.1350   -2.0300 hn        1 HAN      0.413800
     29 H122        2.8020    0.0210   -1.2100 hn        1 HAN      0.413800
     30 H131       -0.8630    0.4960   -1.8110 h1        1 HAN      0.054700
     31 H132       -2.1790    0.0480   -0.6310 h1        1 HAN      0.054700
     32 H141       -1.6790   -2.3650   -0.9110 hc        1 HAN      0.047200
     33 H142       -0.2410   -2.0060   -1.9400 hc        1 HAN      0.047200
     34 H151       -1.7510   -0.7820   -3.5870 hc        1 HAN      0.046200
     35 H152       -3.1750   -1.2370   -2.5710 hc        1 HAN      0.046200
     36 H161       -1.1960   -3.3130   -3.7190 hc        1 HAN      0.023700
     37 H162       -2.8450   -3.6060   -3.0360 hc        1 HAN      0.023700
@<TRIPOS>BOND
     1    1    2 1   
     2    1    9 1   
     3    1   13 1   
     4    2    3 2   
     5    2   12 1   
     6    3    8 1   
     7    4    5 ar  
     8    4    8 ar  
     9    4   20 1   
    10    5    6 ar  
    11    5   10 1   
    12    6    7 ar  
    13    6   11 1   
    14    7    9 ar  
    15    7   21 1   
    16    8    9 ar  
    17   10   22 1   
    18   10   23 1   
    19   10   24 1   
    20   11   25 1   
    21   11   26 1   
    22   11   27 1   
    23   12   28 1   
    24   12   29 1   
    25   13   14 1   
    26   13   30 1   
    27   13   31 1   
    28   14   15 1   
    29   14   32 1   
    30   14   33 1   
    31   15   16 1   
    32   15   34 1   
    33   15   35 1   
    34   16   17 1   
    35   16   36 1   
    36   16   37 1   
    37   17   18 1   
    38   17   19 1   
@<TRIPOS>SUBSTRUCTURE
     1 HAN         1 TEMP              0 ****  ****    0 ROOT
