@<TRIPOS>MOLECULE
HAN
   37    38     1     0     0
SMALL
bcc


@<TRIPOS>ATOM
      1 N1         -0.2340   -0.1090    0.0760 na        1 HAN     -0.179300
      2 C2          1.1960   -0.1610   -0.0010 cc        1 HAN      0.609700
      3 N3          1.7930   -0.0690    1.2320 nd        1 HAN     -0.637100
      4 C4          0.7320    0.0820    3.5430 ca        1 HAN     -0.093000
      5 C5         -0.4840    0.1250    4.2220 ca        1 HAN     -0.101300
      6 C6         -1.7150    0.0780    3.5250 ca        1 HAN     -0.085300
      7 C7         -1.7520   -0.0120    2.1350 ca        1 HAN     -0.119000
      8 C9          0.7290   -0.0100    2.1480 ca        1 HAN      0.093400
      9 C8         -0.5400   -0.0550    1.4440 ca        1 HAN     -0.071200
     10 C10        -0.4890    0.2200    5.7020 c3        1 HAN     -0.041800
     11 C11        -2.9880    0.1190    4.2840 c3        1 HAN     -0.043800
     12 N12         1.8770   -0.3510   -1.2090 nv        1 HAN     -0.868800
     13 C13        -1.1580   -0.2480   -1.0120 c3        1 HAN      0.039300
     14 C14        -1.2580   -1.6340   -1.6480 c3        1 HAN     -0.105400
     15 C15        -2.1450   -1.5550   -2.8740 c3        1 HAN     -0.069400
     16 C16        -2.2230   -2.8720   -3.6050 c3        1 HAN     -0.197400
     17 C17        -2.8080   -2.6810   -5.0190 c         1 HAN      0.908600
     18 O18        -2.4280   -1.6800   -5.6940 o         1 HAN     -0.849300
     19 O19        -3.6260   -3.5470   -5.4370 o         1 HAN     -0.849300
     20 H4          1.6840    0.1170    4.0910 ha        1 HAN      0.137000
     21 H7         -2.7110   -0.0540    1.5990 ha        1 HAN      0.137000
     22 H101       -1.0230    1.1470    6.0300 hc        1 HAN      0.034367
     23 H102        0.5500    0.2470    6.1120 hc        1 HAN      0.034367
     24 H103       -1.0200   -0.6600    6.1450 hc        1 HAN      0.034367
     25 H111       -3.0460   -0.7470    4.9900 hc        1 HAN      0.036700
     26 H112       -3.0500    1.0610    4.8850 hc        1 HAN      0.036700
     27 H113       -3.8720    0.0770    3.6020 hc        1 HAN      0.036700
     28 H121        1.3500   -0.1400   -2.0290 hn        1 HAN      0.413800
     29 H122        2.8040    0.0130   -1.2090 hn        1 HAN      0.413800
     30 H131       -2.1770    0.0500   -0.6310 h1        1 HAN      0.054700
     31 H132       -0.8600    0.4950   -1.8100 h1        1 HAN      0.054700
     32 H141       -1.6820   -2.3640   -0.9110 hc        1 HAN      0.047200
     33 H142       -0.2430   -2.0080   -1.9410 hc        1 HAN      0.047200
     34 H151       -3.1750   -1.2320   -2.5720 hc        1 HAN      0.046200
     35 H152       -1.7500   -0.7800   -3.5870 hc        1 HAN      0.046200
     36 H161       -1.2000   -3.3120   -3.7200 hc        1 HAN      0.023700
     37 H162       -2.8510   -3.6020   -3.0370 hc        1 HAN      0.023700
@<TRIPOS>BOND
     1    1    2 1   
     2    1    9 1   
     3    1   13 1   
     4    2    3 2   
     5    2   12 1   
     6    3    8 1   
     7    4    5 ar  
     8    4    8 ar  
     9    4   20 1   
    10    5    6 ar  
    11    5   10 1   
    12    6    7 ar  
    13    6   11 1   
    14    7    9 ar  
    15    7   21 1   
    16    8    9 ar  
    17   10   22 1   
    18   10   23 1   
    19   10   24 1   
    20   11   25 1   
    21   11   26 1   
    22   11   27 1   
    23   12   28 1   
    24   12   29 1   
    25   13   14 1   
    26   13   30 1   
    27   13   31 1   
    28   14   15 1   
    29   14   32 1   
    30   14   33 1   
    31   15   16 1   
    32   15   34 1   
    33   15   35 1   
    34   16   17 1   
    35   16   36 1   
    36   16   37 1   
    37   17   18 1   
    38   17   19 1   
@<TRIPOS>SUBSTRUCTURE
     1 HAN         1 TEMP              0 ****  ****    0 ROOT
