@<TRIPOS>MOLECULE
HAN
   38    39     1     0     0
SMALL
bcc


@<TRIPOS>ATOM
      1 N1         -0.3790    0.4860   -0.0230 na        1 HAN     -0.169300
      2 C2          1.0600    0.3770   -0.1690 cc        1 HAN      0.573700
      3 N3          1.7040    0.2410    1.0220 nd        1 HAN     -0.602100
      4 C4          0.7570    0.0120    3.3780 ca        1 HAN     -0.081000
      5 C5         -0.4250   -0.0310    4.1170 ca        1 HAN     -0.088300
      6 C6         -1.6870    0.0780    3.4860 ca        1 HAN     -0.069300
      7 C7         -1.7900    0.2330    2.1030 ca        1 HAN     -0.123000
      8 C9          0.6820    0.1590    1.9910 ca        1 HAN      0.091400
      9 C8         -0.6150    0.2700    1.3550 ca        1 HAN     -0.087200
     10 C10        -0.3570   -0.1920    5.5890 c3        1 HAN     -0.050800
     11 C11        -2.9210    0.0280    4.3060 c3        1 HAN     -0.051800
     12 N12         1.6720    0.3940   -1.4390 nh        1 HAN     -0.853800
     13 C13        -1.3100    0.1320   -1.0540 c3        1 HAN      0.042300
     14 C14        -1.3220   -1.3430   -1.4650 c3        1 HAN     -0.118400
     15 C15        -2.3000   -1.5530   -2.6020 c3        1 HAN     -0.084400
     16 C16        -2.3180   -2.9930   -3.0790 c3        1 HAN     -0.179400
     17 C17        -1.6280   -3.1750   -4.3980 c         1 HAN      0.622100
     18 O18        -2.0890   -3.7260   -5.3970 o         1 HAN     -0.487000
     19 O19        -0.3520   -2.7140   -4.5670 oh        1 HAN     -0.582100
     20 H4          1.7360   -0.0660    3.8740 ha        1 HAN      0.149000
     21 H7         -2.7730    0.3260    1.6220 ha        1 HAN      0.133000
     22 H101       -0.8380    0.6820    6.0970 hc        1 HAN      0.043700
     23 H102        0.7000   -0.2680    5.9430 hc        1 HAN      0.043700
     24 H103       -0.9020   -1.1180    5.9040 hc        1 HAN      0.043700
     25 H111       -2.9190    0.8560    5.0590 hc        1 HAN      0.043700
     26 H112       -2.9790   -0.9430    4.8590 hc        1 HAN      0.043700
     27 H113       -3.8370    0.1300    3.6730 hc        1 HAN      0.043700
     28 H121        1.2740    1.0810   -2.0480 hn        1 HAN      0.400800
     29 H122       -0.0400   -2.3010   -3.7500 ho        1 HAN      0.428000
     30 H131       -1.0740    0.7610   -1.9600 h1        1 HAN      0.060200
     31 H132       -2.3400    0.4180   -0.6910 h1        1 HAN      0.060200
     32 H141       -1.6160   -1.9790   -0.5890 hc        1 HAN      0.059700
     33 H142       -0.2910   -1.6590   -1.7740 hc        1 HAN      0.059700
     34 H151       -2.0420   -0.8690   -3.4550 hc        1 HAN      0.056200
     35 H152       -3.3290   -1.2690   -2.2570 hc        1 HAN      0.056200
     36 H161       -1.8250   -3.6680   -2.3300 hc        1 HAN      0.084700
     37 H162       -3.3790   -3.3420   -3.1970 hc        1 HAN      0.084700
     38 H123        2.6670    0.4850   -1.3740 hn        1 HAN      0.400800
@<TRIPOS>BOND
     1    1    2 1   
     2    1    9 1   
     3    1   13 1   
     4    2    3 2   
     5    2   12 1   
     6    3    8 1   
     7    4    5 ar  
     8    4    8 ar  
     9    4   20 1   
    10    5    6 ar  
    11    5   10 1   
    12    6    7 ar  
    13    6   11 1   
    14    7    9 ar  
    15    7   21 1   
    16    8    9 ar  
    17   10   22 1   
    18   10   23 1   
    19   10   24 1   
    20   11   25 1   
    21   11   26 1   
    22   11   27 1   
    23   12   28 1   
    24   12   38 1   
    25   13   14 1   
    26   13   30 1   
    27   13   31 1   
    28   14   15 1   
    29   14   32 1   
    30   14   33 1   
    31   15   16 1   
    32   15   34 1   
    33   15   35 1   
    34   16   17 1   
    35   16   36 1   
    36   16   37 1   
    37   17   18 2   
    38   17   19 1   
    39   19   29 1   
@<TRIPOS>SUBSTRUCTURE
     1 HAN         1 TEMP              0 ****  ****    0 ROOT
