@<TRIPOS>MOLECULE
HAN
   37    38     1     0     0
SMALL
bcc


@<TRIPOS>ATOM
      1 N1          0.8540    0.5590    0.5280 na        1 HAN     -0.170300
      2 C2          2.1530    0.0320    0.8320 cc        1 HAN      0.600700
      3 N3          2.2360   -0.4600    2.1090 nd        1 HAN     -0.637100
      4 C4          0.4510   -0.5870    3.9220 ca        1 HAN     -0.092000
      5 C5         -0.8840   -0.3080    4.2070 ca        1 HAN     -0.101300
      6 C6         -1.7330    0.2800    3.2400 ca        1 HAN     -0.084300
      7 C7         -1.2610    0.6030    1.9690 ca        1 HAN     -0.119000
      8 C9          0.9550   -0.2790    2.6540 ca        1 HAN      0.092400
      9 C8          0.0750    0.3290    1.6710 ca        1 HAN     -0.072200
     10 C10        -1.4260   -0.6350    5.5480 c3        1 HAN     -0.041800
     11 C11        -3.1490    0.5560    3.5800 c3        1 HAN     -0.043800
     12 N12         3.2250    0.1510   -0.0670 nh        1 HAN     -0.861800
     13 C13         0.3880    0.9460   -0.7730 c3        1 HAN      0.032300
     14 C14         0.1650   -0.1980   -1.7630 c3        1 HAN     -0.104400
     15 C15        -0.0370    0.3610   -3.1560 c3        1 HAN     -0.070400
     16 C16        -0.2570   -0.7320   -4.1730 c3        1 HAN     -0.198400
     17 C17        -0.0310   -0.2090   -5.6050 c         1 HAN      0.909600
     18 O18         0.9690    0.5370   -5.8170 o         1 HAN     -0.847800
     19 O19        -0.8480   -0.5720   -6.4970 o         1 HAN     -0.847800
     20 H4          1.1050   -1.0420    4.6790 ha        1 HAN      0.137000
     21 H7         -1.9240    1.0590    1.2200 ha        1 HAN      0.136000
     22 H101       -1.8070    0.2900    6.0490 hc        1 HAN      0.034700
     23 H102       -2.2780   -1.3550    5.4570 hc        1 HAN      0.034700
     24 H103       -0.6450   -1.0940    6.2020 hc        1 HAN      0.034700
     25 H111       -3.6740   -0.3930    3.8550 hc        1 HAN      0.037033
     26 H112       -3.2100    1.2510    4.4560 hc        1 HAN      0.037033
     27 H113       -3.6920    1.0230    2.7220 hc        1 HAN      0.037033
     28 H121        4.0030   -0.4250    0.1780 hn        1 HAN      0.411300
     29 H122        2.9590    0.0690   -1.0270 hn        1 HAN      0.411300
     30 H131       -0.5820    1.5040   -0.6360 h1        1 HAN      0.064200
     31 H132        1.1410    1.6670   -1.2080 h1        1 HAN      0.064200
     32 H141        1.0440   -0.8940   -1.7660 hc        1 HAN      0.038200
     33 H142       -0.7300   -0.7990   -1.4560 hc        1 HAN      0.038200
     34 H151       -0.9140    1.0590   -3.1570 hc        1 HAN      0.049200
     35 H152        0.8650    0.9570   -3.4670 hc        1 HAN      0.049200
     36 H161        0.4670   -1.5700   -4.0030 hc        1 HAN      0.022700
     37 H162       -1.2910   -1.1480   -4.0860 hc        1 HAN      0.022700
@<TRIPOS>BOND
     1    1    2 1   
     2    1    9 1   
     3    1   13 1   
     4    2    3 2   
     5    2   12 1   
     6    3    8 1   
     7    4    5 ar  
     8    4    8 ar  
     9    4   20 1   
    10    5    6 ar  
    11    5   10 1   
    12    6    7 ar  
    13    6   11 1   
    14    7    9 ar  
    15    7   21 1   
    16    8    9 ar  
    17   10   22 1   
    18   10   23 1   
    19   10   24 1   
    20   11   25 1   
    21   11   26 1   
    22   11   27 1   
    23   12   28 1   
    24   12   29 1   
    25   13   14 1   
    26   13   30 1   
    27   13   31 1   
    28   14   15 1   
    29   14   32 1   
    30   14   33 1   
    31   15   16 1   
    32   15   34 1   
    33   15   35 1   
    34   16   17 1   
    35   16   36 1   
    36   16   37 1   
    37   17   18 1   
    38   17   19 1   
@<TRIPOS>SUBSTRUCTURE
     1 HAN         1 TEMP              0 ****  ****    0 ROOT
