@<TRIPOS>MOLECULE
HAO
   28    26     1     0     0
SMALL
bcc


@<TRIPOS>ATOM
      1 N8         -4.3240   -1.6100    0.6460 n3        1 HAO     -0.202000
      2 N9         -2.9790   -1.4400    0.2820 n         1 HAO     -0.302000
      3 C10        -2.3620   -0.1030    0.3440 c2        1 HAO      0.321000
      4 O11        -3.0630    0.8850    0.4310 o         1 HAO     -0.373000
      5 C12        -0.8340    0.0460    0.2620 c2        1 HAO     -0.101000
      6 C13        -0.2140    0.0460   -0.9540 c1        1 HAO     -0.152000
      7 C14        -0.0830    0.2190    1.4350 c2        1 HAO      0.015000
      8 C15        -0.5580   -0.0350    3.7500 c3        1 HAO     -0.066000
      9 O15        -0.8710    0.6290    2.5240 os        1 HAO     -0.242000
     10 C17         1.2670    0.3880    1.3600 c1        1 HAO     -0.158000
     11 C18         1.9030    0.3890    0.1170 c2        1 HAO     -0.139000
     12 C19         1.1650    0.2190   -1.0310 c1        1 HAO      0.101000
     13 N20         1.8260    0.1700   -2.3130 n         1 HAO     -0.327000
     14 C21         2.6980    1.2110   -2.7000 c2        1 HAO      0.232000
     15 O22         2.8960    2.1610   -1.9440 o         1 HAO     -0.384000
     16 C23         3.4570    1.1220   -4.0350 c2        1 HAO      0.360000
     17 O24         4.6110    0.7020   -4.0590 o         1 HAO     -0.515500
     18 HN8        -4.3860   -2.2570    1.3240 hn        1 HAO      0.135000
     19 H13        -0.7200   -0.1680   -1.7540 ha        1 HAO      0.150000
     20 H15         0.2220    0.4180    4.1860 h1        1 HAO      0.076667
     21 H15A       -0.3260   -0.9940    3.5630 h1        1 HAO      0.076667
     22 H15B       -1.3050    0.0010    4.3260 h1        1 HAO      0.076667
     23 H17         1.8000    0.5740    2.1990 DU        1 HAO      0.129000
     24 H18         2.8980    0.5120    0.0620 ha        1 HAO      0.183000
     25 HN20        1.6730   -0.5250   -2.8730 hn        1 HAO      0.241000
     26 O5          2.8950    1.4940   -5.1130 o         1 HAO     -0.515500
     27 H9         -4.8170   -1.8910   -0.1000 hn        1 HAO      0.135000
     28 H10        -2.4710   -2.1650    0.0640 hn        1 HAO      0.246000
@<TRIPOS>BOND
     1    1    2 1   
     2    1   18 1   
     3    1   27 1   
     4    2    3 1   
     5    2   28 1   
     6    3    4 1   
     7    3    5 1   
     8    5    6 1   
     9    5    7 1   
    10    6   19 1   
    11    7    9 1   
    12    7   10 1   
    13    8    9 1   
    14    8   20 1   
    15    8   21 1   
    16    8   22 1   
    17   10   11 1   
    18   11   12 1   
    19   11   24 1   
    20   12   13 1   
    21   13   14 1   
    22   13   25 1   
    23   14   15 1   
    24   14   16 1   
    25   16   17 1   
    26   16   26 1   
@<TRIPOS>SUBSTRUCTURE
     1 HAO         1 TEMP              0 ****  ****    0 ROOT
