@<TRIPOS>MOLECULE
HAO
   28    28     1     0     0
SMALL
bcc


@<TRIPOS>ATOM
      1 N8          4.6080   -2.2070   -0.1340 n3        1 HAO     -0.640800
      2 N9          3.4650   -1.5290   -0.4340 n         1 HAO     -0.428300
      3 C10         2.4530   -1.2710    0.5140 c         1 HAO      0.644700
      4 O11         2.4390   -1.8880    1.5990 o         1 HAO     -0.615100
      5 C12         1.3810   -0.3250    0.1110 ca        1 HAO     -0.110600
      6 C13         0.0570   -0.7140    0.3090 ca        1 HAO     -0.164000
      7 C14         1.6570    0.9290   -0.4550 ca        1 HAO      0.035100
      8 C15         3.4310    2.3860    0.0740 c3        1 HAO      0.119700
      9 O15         2.9750    1.2940   -0.7220 os        1 HAO     -0.361900
     10 C17         0.6050    1.7800   -0.8170 ca        1 HAO     -0.127000
     11 C18        -0.7120    1.3950   -0.6270 ca        1 HAO     -0.154000
     12 C19        -1.0250    0.1340   -0.0510 ca        1 HAO      0.107600
     13 N20        -2.3240   -0.2810    0.1890 n         1 HAO     -0.472100
     14 C21        -3.5360    0.3270   -0.1950 c         1 HAO      0.537100
     15 O22        -3.5540    1.3790   -0.8510 o         1 HAO     -0.619100
     16 C23        -4.8210   -0.4490    0.2860 c         1 HAO      0.891600
     17 O24        -4.8550   -1.6710    0.0000 o         1 HAO     -0.779300
     18 HN8         4.8840   -2.0270    0.8280 hn        1 HAO      0.339800
     19 H13        -0.1360   -1.6980    0.7660 ha        1 HAO      0.149000
     20 H15         3.4290    2.1070    1.1550 h1        1 HAO      0.035367
     21 H15A        4.4730    2.5680   -0.2890 h1        1 HAO      0.035367
     22 H15B        2.7910    3.2860   -0.0920 h1        1 HAO      0.035367
     23 H17         0.8330    2.7590   -1.2620 ha        1 HAO      0.132000
     24 H18        -1.5280    2.0760   -0.9280 ha        1 HAO      0.183000
     25 HN20       -2.4290   -1.1930    0.5840 hn        1 HAO      0.328500
     26 O5         -5.6590    0.2260    0.9190 o         1 HAO     -0.779300
     27 H9          4.3960   -3.1990   -0.1760 hn        1 HAO      0.339800
     28 H10         3.6400   -0.7900   -1.0960 hn        1 HAO      0.337500
@<TRIPOS>BOND
     1    1    2 1   
     2    1   18 1   
     3    1   27 1   
     4    2    3 1   
     5    2   28 1   
     6    3    4 2   
     7    3    5 1   
     8    5    6 ar  
     9    5    7 ar  
    10    6   12 ar  
    11    6   19 1   
    12    7    9 1   
    13    7   10 ar  
    14    8    9 1   
    15    8   20 1   
    16    8   21 1   
    17    8   22 1   
    18   10   11 ar  
    19   10   23 1   
    20   11   12 ar  
    21   11   24 1   
    22   12   13 1   
    23   13   14 1   
    24   13   25 1   
    25   14   15 2   
    26   14   16 1   
    27   16   17 1   
    28   16   26 1   
@<TRIPOS>SUBSTRUCTURE
     1 HAO         1 TEMP              0 ****  ****    0 ROOT
