@<TRIPOS>MOLECULE
HAP
   55    50     1     0     0
SMALL
bcc


@<TRIPOS>ATOM
      1 C1       -441.4110 -118.2760 -364.1460 cu        1 HAP      0.360000
      2 C2       -442.7410 -118.8210 -363.9470 cu        1 HAP      0.243000
      3 C3        -86.3520  -53.9890  194.3620 c2        1 HAP     -0.441000
      4 C4        -87.0570  -51.8220  190.6650 c3        1 HAP     -0.227500
      5 C5        -86.1710  -53.0470  190.6870 c3        1 HAP     -0.129000
      6 C6        -86.4210  -53.9070  191.9300 c3        1 HAP     -0.132000
      7 C7        -86.4220  -53.9140  189.4680 c3        1 HAP     -0.227500
      8 C8        -85.4250  -54.3940  195.2310 c1        1 HAP      0.339000
      9 C9        318.9030  124.4320  -81.1240 c3        1 HAP     -0.258000
     10 C10       317.3850  124.2080  -81.0930 c2        1 HAP      0.301000
     11 C11       315.3290  123.9060  -82.4020 c3        1 HAP     -0.088000
     12 C12       319.4390  124.6110  -79.7690 c2        1 HAP      0.188000
     13 C13       320.7080  125.0520  -79.4510 c2        1 HAP     -0.288000
     14 C14       -83.1780  -51.4520  193.2360 c1        1 HAP     -0.230500
     15 C15       -82.9990  -52.2780  192.3880 c1        1 HAP     -0.230500
     16 C16       324.0400  126.2510  -79.7380 c1        1 HAP      0.099000
     17 C17       322.9340  125.8580  -80.0270 c1        1 HAP     -0.281000
     18 C18       321.6760  125.4160  -80.3810 c2        1 HAP      0.297000
     19 N1       -442.5890 -117.5660 -363.6240 n         1 HAP     -0.198000
     20 N2        -86.1020  -53.1750  193.2020 n4        1 HAP      0.062000
     21 O1       -442.5820 -119.9340 -361.8290 oh        1 HAP     -0.476000
     22 O2       -440.2670 -118.0650 -364.3920 o         1 HAP     -0.023000
     23 O3        -84.6780  -54.7850  196.0490 o         1 HAP     -0.002000
     24 H21      -443.4370 -119.6690 -363.9780 h4        1 HAP      0.291000
     25 H22       -83.3240  -55.1300  190.4140 ha        1 HAP      0.001000
     26 H3        -83.8060  -54.7700  190.7270 ha        1 HAP      0.001000
     27 H41       -86.9720  -51.3140  189.6710 hc        1 HAP      0.098167
     28 H42       -87.4040  -54.3020  194.5150 hx        1 HAP      0.242000
     29 H5        -88.1290  -52.0990  190.8180 hc        1 HAP      0.098167
     30 H61       -86.7570  -51.0830  191.4460 hc        1 HAP      0.098167
     31 H62       -85.0890  -52.7240  190.6760 hc        1 HAP      0.109000
     32 H63       -85.7760  -54.8310  191.8960 hx        1 HAP      0.147000
     33 H71       -87.4850  -54.2560  189.4350 hc        1 HAP      0.098167
     34 H72       -85.7540  -54.8100  189.4760 hc        1 HAP      0.098167
     35 H73       -86.2130  -53.3260  188.5410 hc        1 HAP      0.098167
     36 H9        -86.7070  -52.3420  193.2630 hn        1 HAP      0.253000
     37 H111      314.8620  124.7430  -82.9860 h1        1 HAP      0.105667
     38 H112      315.1390  122.9350  -82.9350 h1        1 HAP      0.105667
     39 H113      314.8620  123.8620  -81.3810 h1        1 HAP      0.105667
     40 H121      318.7390  124.3560  -78.9320 ha        1 HAP      0.220000
     41 H122      319.1480  125.3140  -81.7800 hc        1 HAP      0.163500
     42 H14       -83.2920  -50.6960  193.9770 ha        1 HAP      0.237500
     43 H15       320.9670  125.1230  -78.3730 ha        1 HAP      0.196000
     44 H16       -82.7880  -52.9920  191.6260 ha        1 HAP      0.237500
     45 H17       325.0200  126.6000  -79.4860 ha        1 HAP      0.272000
     46 H18       321.4580  125.3610  -81.4720 ha        1 HAP      0.168000
     47 HN1      -443.0790 -116.7900 -363.2430 hn        1 HAP      0.314000
     48 HN2       319.3870  123.5220  -81.5910 hc        1 HAP      0.163500
     49 HN3       317.2600  124.2060  -83.1380 hn        1 HAP      0.234000
     50 HO1      -442.0920 -120.7460 -361.6560 ho        1 HAP      0.244000
     51 N3        316.7430  124.1280  -82.2960 n         1 HAP     -0.352000
     52 H12      -443.0250 -119.7450 -360.9940 ho        1 HAP      0.244000
     53 H221      -87.5020  -54.2210  191.9760 hx        1 HAP      0.147000
     54 H32       -85.1200  -52.8540  193.1670 hn        1 HAP      0.253000
     55 O4        316.8050  124.1060  -79.9930 o         1 HAP     -0.353000
@<TRIPOS>BOND
     1    1    2 1   
     2    1   19 1   
     3    1   22 1   
     4    2   19 1   
     5    2   24 1   
     6    3    8 1   
     7    3   20 1   
     8    3   28 1   
     9    4    5 1   
    10    4   27 1   
    11    4   29 1   
    12    4   30 1   
    13    5    6 1   
    14    5    7 1   
    15    5   31 1   
    16    6   20 1   
    17    6   32 1   
    18    6   53 1   
    19    7   33 1   
    20    7   34 1   
    21    7   35 1   
    22    8   23 1   
    23    9   10 1   
    24    9   12 1   
    25    9   41 1   
    26    9   48 1   
    27   10   51 1   
    28   10   55 1   
    29   11   37 1   
    30   11   38 1   
    31   11   39 1   
    32   11   51 1   
    33   12   13 1   
    34   12   40 1   
    35   13   18 1   
    36   13   43 1   
    37   14   15 1   
    38   14   42 1   
    39   15   44 1   
    40   16   17 1   
    41   16   45 1   
    42   17   18 1   
    43   18   46 1   
    44   19   47 1   
    45   20   36 1   
    46   20   54 1   
    47   21   50 1   
    48   21   52 1   
    49   25   26 1   
    50   49   51 1   
@<TRIPOS>SUBSTRUCTURE
     1 HAP         1 TEMP              0 ****  ****    0 ROOT
