@<TRIPOS>MOLECULE
HAQ
   31    33     1     0     0
SMALL
bcc


@<TRIPOS>ATOM
      1 N           1.7690    2.6690   -0.7790 n3        1 HAQ     -0.892800
      2 CA          0.6300    2.5120    0.1110 c3        1 HAQ      0.115500
      3 CB         -0.6950    2.5470   -0.6510 c3        1 HAQ     -0.076400
      4 CG         -1.8800    2.1430    0.2070 c3        1 HAQ     -0.021100
      5 C           0.8300    1.2780    1.0230 c         1 HAQ      0.708500
      6 O           1.6070    1.3880    1.9880 o         1 HAQ     -0.624500
      7 N2          0.2350    0.0450    0.7540 n         1 HAQ     -0.366000
      8 CA2         1.0320   -1.2000    0.7390 c3        1 HAQ     -0.026300
      9 CB2         0.0280   -2.3390    0.3980 c3        1 HAQ     -0.030100
     10 CG2        -1.2600   -1.6270    0.1390 ca        1 HAQ     -0.127300
     11 CD1        -1.0590   -0.2130    0.3160 ca        1 HAQ      0.112600
     12 CD2        -2.5010   -2.1130   -0.2070 ca        1 HAQ     -0.097000
     13 CE1        -2.1180    0.6820    0.1100 ca        1 HAQ     -0.159300
     14 CE2        -3.5650   -1.2140   -0.3850 ca        1 HAQ     -0.197000
     15 CZ         -3.3710    0.1530   -0.2330 ca        1 HAQ     -0.098000
     16 C2          2.2180   -1.1800   -0.2840 c         1 HAQ      0.919600
     17 O2          2.6280   -0.0680   -0.7170 o         1 HAQ     -0.830800
     18 OXT         2.7030   -2.3010   -0.5910 o         1 HAQ     -0.830800
     19 H           2.6150    2.5950   -0.2410 hn        1 HAQ      0.375800
     20 H2          1.7830    1.9170   -1.4500 hn        1 HAQ      0.375800
     21 HA1         0.6400    3.3960    0.8210 h1        1 HAQ      0.056700
     22 HB2        -0.8480    3.5950   -1.0250 hc        1 HAQ      0.051700
     23 HB3        -0.6440    1.8790   -1.5520 hc        1 HAQ      0.051700
     24 HG2        -1.6950    2.4290    1.2780 hc        1 HAQ      0.037200
     25 HG3        -2.7920    2.7030   -0.1320 hc        1 HAQ      0.037200
     26 HA2         1.4740   -1.3450    1.7610 h1        1 HAQ      0.062700
     27 HB23        0.3910   -2.9040   -0.4980 hc        1 HAQ      0.065200
     28 HB22       -0.0670   -3.0520    1.2520 hc        1 HAQ      0.065200
     29 HD2        -2.6600   -3.1910   -0.3460 ha        1 HAQ      0.121000
     30 HE2        -4.5570   -1.5990   -0.6550 ha        1 HAQ      0.111000
     31 HZ         -4.2120    0.8440   -0.3910 ha        1 HAQ      0.111000
@<TRIPOS>BOND
     1    1    2 1   
     2    1   19 1   
     3    1   20 1   
     4    2    3 1   
     5    2    5 1   
     6    2   21 1   
     7    3    4 1   
     8    3   22 1   
     9    3   23 1   
    10    4   13 1   
    11    4   24 1   
    12    4   25 1   
    13    5    6 2   
    14    5    7 1   
    15    7    8 1   
    16    7   11 1   
    17    8    9 1   
    18    8   16 1   
    19    8   26 1   
    20    9   10 1   
    21    9   27 1   
    22    9   28 1   
    23   10   11 ar  
    24   10   12 ar  
    25   11   13 ar  
    26   12   14 ar  
    27   12   29 1   
    28   13   15 ar  
    29   14   15 ar  
    30   14   30 1   
    31   15   31 1   
    32   16   17 1   
    33   16   18 1   
@<TRIPOS>SUBSTRUCTURE
     1 HAQ         1 TEMP              0 ****  ****    0 ROOT
