@<TRIPOS>MOLECULE
HAQ
   31    32     1     0     0
SMALL
bcc


@<TRIPOS>ATOM
      1 N          -1.0890    2.8210   -0.1250 n3        1 HAQ     -0.333000
      2 CA          0.2820    2.6150   -0.3770 c3        1 HAQ     -0.041000
      3 CB          0.9590    2.1480    0.8780 c3        1 HAQ     -0.151000
      4 CG          0.0700    1.2040    1.6480 c3        1 HAQ     -0.103000
      5 C           0.4480    1.5120   -1.3760 c2        1 HAQ      0.309000
      6 O           0.9210    1.6560   -2.4870 o         1 HAQ     -0.344000
      7 N2         -0.0940    0.2740   -0.8730 n         1 HAQ     -0.255000
      8 CA2        -0.8060   -0.7810   -1.6530 c3        1 HAQ     -0.068000
      9 CB2         0.0800   -1.9850   -1.5240 c3        1 HAQ     -0.118000
     10 CG2         1.1190   -1.6890   -0.4790 c2        1 HAQ     -0.107000
     11 CD1         0.8650   -0.3950    0.0320 c2        1 HAQ      0.110000
     12 CD2         1.1120   -2.8050    0.3880 c1        1 HAQ     -0.107000
     13 CE1         0.4870   -0.2360    1.3660 c2        1 HAQ     -0.136000
     14 CE2         0.7920   -2.6370    1.7450 c1        1 HAQ     -0.184000
     15 CZ          0.4800   -1.3590    2.2400 c2        1 HAQ     -0.113000
     16 C2         -2.2310   -1.0210   -1.1960 c2        1 HAQ      0.337000
     17 O2         -3.1940   -0.6670   -1.9240 o         1 HAQ     -0.563500
     18 OXT        -2.4510   -1.6270   -0.1150 o         1 HAQ     -0.563500
     19 H          -1.3190    3.6750   -0.3690 hn        1 HAQ      0.171000
     20 H2         -1.5820    2.2210   -0.6110 hn        1 HAQ      0.171000
     21 HA1         0.5470    3.5040   -0.6880 h1        1 HAQ      0.114000
     22 HB2         1.1670    2.9210    1.4380 hc        1 HAQ      0.080000
     23 HB3         1.7900    1.6880    0.6440 hc        1 HAQ      0.080000
     24 HG2        -0.8260    1.3060    1.2700 hc        1 HAQ      0.078000
     25 HG3         0.2610    1.3610    2.5940 hc        1 HAQ      0.078000
     26 HA2        -0.9380   -0.5210   -2.5870 h1        1 HAQ      0.111000
     27 HB23       -0.4530   -2.7600   -1.2510 hc        1 HAQ      0.102500
     28 HB22        0.5160   -2.1690   -2.3810 hc        1 HAQ      0.102500
     29 HD2         1.7090   -3.5490    0.1880 ha        1 HAQ      0.122000
     30 HE2         0.9720   -3.3670    2.3680 ha        1 HAQ      0.113000
     31 HZ          0.4060   -1.3380    3.2170 ha        1 HAQ      0.110000
@<TRIPOS>BOND
     1    1    2 1   
     2    1   19 1   
     3    1   20 1   
     4    2    3 1   
     5    2    5 1   
     6    2   21 1   
     7    3    4 1   
     8    3   22 1   
     9    3   23 1   
    10    4   13 1   
    11    4   24 1   
    12    4   25 1   
    13    5    6 1   
    14    5    7 1   
    15    7    8 1   
    16    7   11 1   
    17    8    9 1   
    18    8   16 1   
    19    8   26 1   
    20    9   10 1   
    21    9   27 1   
    22    9   28 1   
    23   10   11 1   
    24   10   12 1   
    25   11   13 1   
    26   12   29 1   
    27   13   15 1   
    28   14   15 1   
    29   14   30 1   
    30   15   31 1   
    31   16   17 1   
    32   16   18 1   
@<TRIPOS>SUBSTRUCTURE
     1 HAQ         1 TEMP              0 ****  ****    0 ROOT
