@<TRIPOS>MOLECULE
HAR
   26    25     1     0     0
SMALL
bcc


@<TRIPOS>ATOM
      1 N           1.8680   -0.4290    2.8070 n3        1 HAR     -0.893800
      2 CA          0.5570    0.2050    2.7340 c3        1 HAR      0.016500
      3 C          -0.3740   -0.0970    3.9570 c         1 HAR      0.888600
      4 O           0.0840   -0.8240    4.8850 o         1 HAR     -0.842800
      5 CB         -0.2090   -0.1360    1.4550 c3        1 HAR     -0.061400
      6 CG          0.4680    0.4240    0.2230 c3        1 HAR     -0.087400
      7 CD         -0.3400    0.0720   -1.0270 c3        1 HAR      0.179800
      8 NE          0.2780    0.5770   -2.2410 nh        1 HAR     -0.790200
      9 CZ         -0.2160    0.1050   -3.4910 c2        1 HAR      0.690100
     10 NH1         0.6970    0.4280   -4.6290 nh        1 HAR     -0.580700
     11 NH2        -1.3520   -0.5310   -3.5910 n2        1 HAR     -0.840100
     12 OH1         0.0970    0.2490   -5.8120 oh        1 HAR     -0.422300
     13 OXT        -1.5240    0.4230    3.9550 o         1 HAR     -0.842800
     14 H           1.7490   -1.4170    2.6690 hn        1 HAR      0.330800
     15 H2          2.1980   -0.3180    3.7520 hn        1 HAR      0.330800
     16 HA          0.7410    1.3190    2.7460 h1        1 HAR      0.040700
     17 HB2        -0.3190   -1.2470    1.3560 hc        1 HAR      0.050700
     18 HB3        -1.2400    0.2970    1.5610 hc        1 HAR      0.050700
     19 HG2         0.5590    1.5380    0.3210 hc        1 HAR      0.042200
     20 HG3         1.5070    0.0090    0.1390 hc        1 HAR      0.042200
     21 HD2        -0.4740   -1.0480   -1.0650 h1        1 HAR      0.052700
     22 HD3        -1.3660    0.5310   -0.9550 h1        1 HAR      0.052700
     23 HE          1.2790    0.5600   -2.1890 hn        1 HAR      0.394800
     24 HH1         0.9400    1.4180   -4.5800 hn        1 HAR      0.387800
     25 HH2        -1.6550   -0.7010   -4.5260 hn        1 HAR      0.387400
     26 HO1         0.4190   -0.6180   -6.1260 ho        1 HAR      0.422000
@<TRIPOS>BOND
     1    1    2 1   
     2    1   14 1   
     3    1   15 1   
     4    2    3 1   
     5    2    5 1   
     6    2   16 1   
     7    3    4 1   
     8    3   13 1   
     9    5    6 1   
    10    5   17 1   
    11    5   18 1   
    12    6    7 1   
    13    6   19 1   
    14    6   20 1   
    15    7    8 1   
    16    7   21 1   
    17    7   22 1   
    18    8    9 1   
    19    8   23 1   
    20    9   10 1   
    21    9   11 2   
    22   10   12 1   
    23   10   24 1   
    24   11   25 1   
    25   12   26 1   
@<TRIPOS>SUBSTRUCTURE
     1 HAR         1 TEMP              0 ****  ****    0 ROOT
