@<TRIPOS>MOLECULE
HAU
   39    40     1     0     0
SMALL
bcc


@<TRIPOS>ATOM
      1 C           0.3910    0.9540   -0.8690 c         1 HAU      0.658100
      2 O           1.2430    1.6080   -1.4960 o         1 HAU     -0.577100
      3 C1          0.4410    0.8380    0.6310 c3        1 HAU     -0.171100
      4 N1         -0.5970    0.2530   -1.5820 n         1 HAU     -0.473800
      5 O1         -5.0200    2.2810   -2.5820 o         1 HAU     -0.398100
      6 N2         -3.3020    3.6190   -5.2650 nb        1 HAU     -0.650000
      7 C3         -0.6590    0.3770   -3.0190 c3        1 HAU      0.086500
      8 N3         -4.6330    1.6550   -4.7910 n4        1 HAU     -0.663500
      9 C4         -1.8330    1.2290   -3.5190 c3        1 HAU     -0.110400
     10 C5         -3.1380    0.7220   -2.9190 c3        1 HAU     -0.120700
     11 C6         -3.0480    0.6560   -1.3970 c3        1 HAU     -0.110400
     12 C7         -1.8290   -0.1750   -0.9730 c3        1 HAU      0.086500
     13 C8         -4.2970    1.6140   -3.2980 c         1 HAU      0.563100
     14 C9         -4.5300    3.0230   -5.3430 ca        1 HAU      0.430200
     15 C10        -5.6670    3.6400   -5.9010 ca        1 HAU     -0.180300
     16 C11        -5.5180    4.9360   -6.4110 ca        1 HAU     -0.085000
     17 C12        -4.2750    5.5700   -6.3480 ca        1 HAU     -0.111600
     18 C13        -3.1960    4.8550   -5.7590 ca        1 HAU      0.425200
     19 C14        -4.0650    6.9380   -6.8580 c3        1 HAU     -0.078800
     20 H1          1.3970    1.2960    0.9880 hc        1 HAU      0.076033
     21 H1A        -0.4140    1.3890    1.0930 hc        1 HAU      0.076033
     22 H1B         0.4130   -0.2310    0.9540 hc        1 HAU      0.076033
     23 H3         -0.7570   -0.6610   -3.4500 h1        1 HAU      0.075950
     24 H3A         0.3010    0.8320   -3.4010 h1        1 HAU      0.075950
     25 HN3        -3.9890    1.0380   -5.3010 hn        1 HAU      0.462800
     26 H4         -1.8540    1.1650   -4.6370 hc        1 HAU      0.072950
     27 H4A        -1.6720    2.3020   -3.2370 hc        1 HAU      0.072950
     28 H5         -3.3490   -0.3160   -3.3120 hc        1 HAU      0.091700
     29 H6         -3.9720    0.1810   -0.9780 hc        1 HAU      0.072950
     30 H6A        -2.9750    1.6940   -0.9790 hc        1 HAU      0.072950
     31 H7         -1.7520   -0.1410    0.1490 h1        1 HAU      0.075950
     32 H7A        -2.0080   -1.2500   -1.2730 h1        1 HAU      0.075950
     33 H10        -6.6470    3.1420   -5.9430 ha        1 HAU      0.166000
     34 H11        -6.3870    5.4480   -6.8570 ha        1 HAU      0.179000
     35 H13        -2.1880    5.3130   -5.6840 h4        1 HAU      0.064100
     36 H14        -3.1260    6.9930   -7.4650 hc        1 HAU      0.076700
     37 H14A       -4.9210    7.2720   -7.4960 hc        1 HAU      0.076700
     38 H14B       -3.9660    7.6540   -6.0000 hc        1 HAU      0.076700
     39 H32        -5.5960    1.3300   -4.9320 hn        1 HAU      0.462800
@<TRIPOS>BOND
     1    1    2 2   
     2    1    3 1   
     3    1    4 1   
     4    3   20 1   
     5    3   21 1   
     6    3   22 1   
     7    4    7 1   
     8    4   12 1   
     9    5   13 2   
    10    6   14 ar  
    11    6   18 ar  
    12    7    9 1   
    13    7   23 1   
    14    7   24 1   
    15    8   13 1   
    16    8   14 1   
    17    8   25 1   
    18    8   39 1   
    19    9   10 1   
    20    9   26 1   
    21    9   27 1   
    22   10   11 1   
    23   10   13 1   
    24   10   28 1   
    25   11   12 1   
    26   11   29 1   
    27   11   30 1   
    28   12   31 1   
    29   12   32 1   
    30   14   15 ar  
    31   15   16 ar  
    32   15   33 1   
    33   16   17 ar  
    34   16   34 1   
    35   17   18 ar  
    36   17   19 1   
    37   18   35 1   
    38   19   36 1   
    39   19   37 1   
    40   19   38 1   
@<TRIPOS>SUBSTRUCTURE
     1 HAU         1 TEMP              0 ****  ****    0 ROOT
