@<TRIPOS>MOLECULE
HAU
   38    36     1     0     0
SMALL
bcc


@<TRIPOS>ATOM
      1 C           2.7190   -1.9530    3.9740 c1        1 HAU      0.300000
      2 O           3.9810   -1.9250    4.0020 o         1 HAU     -0.365000
      3 C1          1.9310   -2.0870    5.2730 c2        1 HAU     -0.238000
      4 N1          2.0270   -2.0220    2.7020 n3        1 HAU     -0.322000
      5 O1          0.7470    1.1930   -0.6260 o         1 HAU     -0.305000
      6 N2         -0.8400    2.1760   -2.2610 n1        1 HAU     -0.137000
      7 C3          2.7190   -2.0590    1.4510 c3        1 HAU     -0.033000
      8 N3         -0.9460   -0.1030   -1.4730 n         1 HAU     -0.335000
      9 C4          2.2340   -1.0120    0.4850 c3        1 HAU     -0.177500
     10 C5          0.7160   -1.0410    0.2890 c3        1 HAU     -0.126000
     11 C6          0.0520   -1.0020    1.6550 c3        1 HAU     -0.177500
     12 C7          0.5900   -2.0520    2.5960 c3        1 HAU     -0.033000
     13 C8          0.2120    0.1010   -0.6570 c2        1 HAU      0.314000
     14 C9         -1.4720    0.9830   -2.2510 c2        1 HAU      0.122000
     15 C10        -2.6370    0.8020   -3.0000 c2        1 HAU     -0.219000
     16 C11        -3.1370    1.8300   -3.7430 c1        1 HAU     -0.072000
     17 C12        -2.4990    3.0350   -3.7550 c1        1 HAU     -0.147000
     18 C13        -1.3420    3.2130   -3.0100 c1        1 HAU     -0.041000
     19 C14        -3.0960    4.2100   -4.5320 c3        1 HAU     -0.170000
     20 H1          2.5390   -2.2620    6.0030 ha        1 HAU      0.106333
     21 H1A         1.2970   -2.8260    5.1920 ha        1 HAU      0.106333
     22 H1B         1.4460   -1.2610    5.4470 ha        1 HAU      0.106333
     23 H3          3.6620   -1.9220    1.6100 h1        1 HAU      0.098750
     24 H3A         2.5880   -2.9730    1.0340 h1        1 HAU      0.098750
     25 HN3        -1.3000   -0.9550   -1.5700 hn        1 HAU      0.233000
     26 H4          2.4880   -0.1290    0.8250 hc        1 HAU      0.103750
     27 H4A         2.6680   -1.1540   -0.3800 hc        1 HAU      0.103750
     28 H5          0.4440   -1.8380   -0.2110 hc        1 HAU      0.103000
     29 H6         -0.9090   -1.1420    1.5430 hc        1 HAU      0.103750
     30 H6A         0.2000   -0.1100    2.0550 hc        1 HAU      0.103750
     31 H7          0.2130   -1.9120    3.4650 h1        1 HAU      0.098750
     32 H7A         0.3190   -2.9270    2.2730 h1        1 HAU      0.098750
     33 H10        -3.0830   -0.0420   -2.9910 ha        1 HAU      0.140000
     34 H11        -3.9720    1.7010   -4.2800 ha        1 HAU      0.138000
     35 H13        -0.8840    4.0760   -3.0180 ha        1 HAU      0.164000
     36 H14        -3.3290    4.9360   -3.9050 hc        1 HAU      0.085000
     37 H14A       -2.4250    4.5450   -5.1950 hc        1 HAU      0.085000
     38 H14B       -3.9230    3.9050   -5.0160 hc        1 HAU      0.085000
@<TRIPOS>BOND
     1    1    2 1   
     2    1    4 1   
     3    3   20 1   
     4    3   21 1   
     5    3   22 1   
     6    4    7 1   
     7    4   12 1   
     8    5   13 1   
     9    6   14 1   
    10    7    9 1   
    11    7   23 1   
    12    7   24 1   
    13    8   13 1   
    14    8   14 1   
    15    8   25 1   
    16    9   10 1   
    17    9   26 1   
    18    9   27 1   
    19   10   11 1   
    20   10   13 1   
    21   10   28 1   
    22   11   12 1   
    23   11   29 1   
    24   11   30 1   
    25   12   31 1   
    26   12   32 1   
    27   14   15 1   
    28   15   16 1   
    29   15   33 1   
    30   16   34 1   
    31   17   18 1   
    32   17   19 1   
    33   18   35 1   
    34   19   36 1   
    35   19   37 1   
    36   19   38 1   
@<TRIPOS>SUBSTRUCTURE
     1 HAU         1 TEMP              0 ****  ****    0 ROOT
