@<TRIPOS>MOLECULE
HAU
   38    39     1     0     0
SMALL
bcc


@<TRIPOS>ATOM
      1 C           5.0530    0.1470   -0.4530 c         1 HAU      0.656100
      2 O           5.6510   -0.9290   -0.6530 o         1 HAU     -0.600100
      3 C1          5.5430    1.4180   -1.1020 c3        1 HAU     -0.170100
      4 N1          3.9750    0.1930    0.4310 n         1 HAU     -0.465800
      5 O1         -0.4330   -1.3280   -0.8600 o         1 HAU     -0.538100
      6 N2         -3.2000   -1.0180   -0.1270 nb        1 HAU     -0.663000
      7 C3          3.4120   -1.0400    0.9450 c3        1 HAU      0.084500
      8 N3         -1.3180    0.3800    0.4310 n         1 HAU     -0.570400
      9 C4          2.0070   -1.3480    0.4250 c3        1 HAU     -0.099400
     10 C5          1.0840   -0.1550    0.6230 c3        1 HAU     -0.136700
     11 C6          1.6860    1.0920   -0.0070 c3        1 HAU     -0.099400
     12 C7          3.1000    1.3360    0.5300 c3        1 HAU      0.084500
     13 C8         -0.2820   -0.4460   -0.0040 c         1 HAU      0.670100
     14 C9         -2.6910    0.2230    0.1540 ca        1 HAU      0.532200
     15 C10        -3.5250    1.3800    0.2070 ca        1 HAU     -0.287300
     16 C11        -4.8850    1.2430   -0.0510 ca        1 HAU     -0.071000
     17 C12        -5.4110   -0.0160   -0.3580 ca        1 HAU     -0.220600
     18 C13        -4.5130   -1.1050   -0.3770 ca        1 HAU      0.425200
     19 C14        -6.8420   -0.2090   -0.6640 c3        1 HAU     -0.044800
     20 H1          4.7780    1.8110   -1.8140 hc        1 HAU      0.066033
     21 H1A         5.7720    2.1960   -0.3350 hc        1 HAU      0.066033
     22 H1B         6.4770    1.1860   -1.6700 hc        1 HAU      0.066033
     23 H3          4.0940   -1.8990    0.6850 h1        1 HAU      0.059200
     24 H3A         3.3730   -0.9460    2.0680 h1        1 HAU      0.059200
     25 HN3        -1.0890    1.1540    1.0110 hn        1 HAU      0.318500
     26 H4          2.0410   -1.6190   -0.6630 hc        1 HAU      0.063950
     27 H4A         1.6040   -2.2340    0.9780 hc        1 HAU      0.063950
     28 H5          0.9600    0.0160    1.7290 hc        1 HAU      0.063700
     29 H6          1.7110    0.9750   -1.1210 hc        1 HAU      0.063950
     30 H6A         1.0610    1.9910    0.2310 hc        1 HAU      0.063950
     31 H7          3.0220    1.6030    1.6250 h1        1 HAU      0.059200
     32 H7A         3.5380    2.2220   -0.0060 h1        1 HAU      0.059200
     33 H10        -3.1060    2.3670    0.4440 ha        1 HAU      0.138000
     34 H11        -5.5420    2.1250   -0.0160 ha        1 HAU      0.138000
     35 H13        -4.8750   -2.1250   -0.6050 h4        1 HAU      0.027100
     36 H14        -7.0100   -0.1490   -1.7700 hc        1 HAU      0.045700
     37 H14A       -7.1930   -1.2120   -0.3130 hc        1 HAU      0.045700
     38 H14B       -7.4670    0.5760   -0.1720 hc        1 HAU      0.045700
@<TRIPOS>BOND
     1    1    2 2   
     2    1    3 1   
     3    1    4 1   
     4    3   20 1   
     5    3   21 1   
     6    3   22 1   
     7    4    7 1   
     8    4   12 1   
     9    5   13 2   
    10    6   14 ar  
    11    6   18 ar  
    12    7    9 1   
    13    7   23 1   
    14    7   24 1   
    15    8   13 1   
    16    8   14 1   
    17    8   25 1   
    18    9   10 1   
    19    9   26 1   
    20    9   27 1   
    21   10   11 1   
    22   10   13 1   
    23   10   28 1   
    24   11   12 1   
    25   11   29 1   
    26   11   30 1   
    27   12   31 1   
    28   12   32 1   
    29   14   15 ar  
    30   15   16 ar  
    31   15   33 1   
    32   16   17 ar  
    33   16   34 1   
    34   17   18 ar  
    35   17   19 1   
    36   18   35 1   
    37   19   36 1   
    38   19   37 1   
    39   19   38 1   
@<TRIPOS>SUBSTRUCTURE
     1 HAU         1 TEMP              0 ****  ****    0 ROOT
