@<TRIPOS>MOLECULE
HAU
   38    39     1     0     0
SMALL
bcc


@<TRIPOS>ATOM
      1 C           0.0400   -0.1750    0.0180 c         1 HAU      0.656100
      2 O           1.2860   -0.1240   -0.0220 o         1 HAU     -0.600100
      3 C1         -0.6760   -0.1950    1.3460 c3        1 HAU     -0.170100
      4 N1         -0.6930   -0.2870   -1.1640 n         1 HAU     -0.465800
      5 O1         -1.5330    3.5350   -4.0070 o         1 HAU     -0.537100
      6 N2         -3.3480    4.4380   -6.0500 nb        1 HAU     -0.663000
      7 C3         -0.0280   -0.1260   -2.4410 c3        1 HAU      0.085000
      8 N3         -3.6180    2.6370   -4.4720 n         1 HAU     -0.570400
      9 C4         -0.4270    1.1420   -3.1960 c3        1 HAU     -0.099400
     10 C5         -1.9410    1.2500   -3.3060 c3        1 HAU     -0.136700
     11 C6         -2.5800    1.1580   -1.9290 c3        1 HAU     -0.099400
     12 C7         -2.1240   -0.1160   -1.2100 c3        1 HAU      0.085000
     13 C8         -2.3190    2.5790   -3.9660 c         1 HAU      0.670100
     14 C9         -4.1650    3.6610   -5.2710 ca        1 HAU      0.532200
     15 C10        -5.5810    3.8380   -5.2610 ca        1 HAU     -0.288300
     16 C11        -6.1410    4.8340   -6.0540 ca        1 HAU     -0.070000
     17 C12        -5.3150    5.6430   -6.8410 ca        1 HAU     -0.220600
     18 C13        -3.9270    5.3910   -6.7920 ca        1 HAU      0.425200
     19 C14        -5.8590    6.7100   -7.7020 c3        1 HAU     -0.044800
     20 H1         -1.3000    0.7230    1.4660 hc        1 HAU      0.066033
     21 H1A        -1.3220   -1.1010    1.4390 hc        1 HAU      0.066033
     22 H1B         0.0920   -0.2150    2.1590 hc        1 HAU      0.066033
     23 H3          1.0890   -0.1210   -2.2840 h1        1 HAU      0.059200
     24 H3A        -0.2910   -1.0250   -3.0710 h1        1 HAU      0.059200
     25 HN3        -4.2320    1.8820   -4.2730 hn        1 HAU      0.318500
     26 H4         -0.0220    2.0510   -2.6800 hc        1 HAU      0.063950
     27 H4A         0.0250    1.1090   -4.2210 hc        1 HAU      0.063950
     28 H5         -2.3110    0.3970   -3.9410 hc        1 HAU      0.063700
     29 H6         -3.6970    1.1300   -2.0180 hc        1 HAU      0.063950
     30 H6A        -2.3050    2.0610   -1.3260 hc        1 HAU      0.063950
     31 H7         -2.5600   -0.1170   -0.1730 h1        1 HAU      0.059200
     32 H7A        -2.5500   -1.0060   -1.7610 h1        1 HAU      0.059200
     33 H10        -6.2240    3.2040   -4.6370 ha        1 HAU      0.138000
     34 H11        -7.2310    4.9870   -6.0550 ha        1 HAU      0.138000
     35 H13        -3.2260    5.9980   -7.3960 h4        1 HAU      0.027100
     36 H14        -5.9950    6.3310   -8.7470 hc        1 HAU      0.045700
     37 H14A       -6.8530    7.0610   -7.3270 hc        1 HAU      0.045700
     38 H14B       -5.1650    7.5860   -7.7370 hc        1 HAU      0.045700
@<TRIPOS>BOND
     1    1    2 2   
     2    1    3 1   
     3    1    4 1   
     4    3   20 1   
     5    3   21 1   
     6    3   22 1   
     7    4    7 1   
     8    4   12 1   
     9    5   13 2   
    10    6   14 ar  
    11    6   18 ar  
    12    7    9 1   
    13    7   23 1   
    14    7   24 1   
    15    8   13 1   
    16    8   14 1   
    17    8   25 1   
    18    9   10 1   
    19    9   26 1   
    20    9   27 1   
    21   10   11 1   
    22   10   13 1   
    23   10   28 1   
    24   11   12 1   
    25   11   29 1   
    26   11   30 1   
    27   12   31 1   
    28   12   32 1   
    29   14   15 ar  
    30   15   16 ar  
    31   15   33 1   
    32   16   17 ar  
    33   16   34 1   
    34   17   18 ar  
    35   17   19 1   
    36   18   35 1   
    37   19   36 1   
    38   19   37 1   
    39   19   38 1   
@<TRIPOS>SUBSTRUCTURE
     1 HAU         1 TEMP              0 ****  ****    0 ROOT
