@<TRIPOS>MOLECULE
HAV
   23    22     1     0     0
SMALL
bcc


@<TRIPOS>ATOM
      1 NA         -0.0480    0.4510    0.0440 nz        1 HAV     -0.844600
      2 CA          1.4420    0.2760    0.0440 c3        1 HAV      0.065500
      3 CB          1.9590   -0.1800    1.4410 c3        1 HAV     -0.076700
      4 CG1         1.4100   -1.5550    1.7630 c3        1 HAV     -0.135100
      5 CG2         3.4720   -0.1940    1.4480 c3        1 HAV     -0.135100
      6 C           2.1150    1.5930   -0.3380 c         1 HAV      0.536100
      7 O           1.7750    2.7160   -0.0170 o         1 HAV     -0.335100
      8 O1          3.0960    0.6450   -2.2220 oh        1 HAV     -0.377300
      9 N           3.3700    1.5070   -1.2160 ny        1 HAV     -0.446300
     10 HNA1       -0.4760   -0.4210    0.4030 hn        1 HAV      0.492133
     11 HNA2       -0.4030    0.6300   -0.9050 hn        1 HAV      0.492133
     12 HA          1.6860   -0.5320   -0.7200 hx        1 HAV      0.169700
     13 HB          1.6030    0.5560    2.2200 hc        1 HAV      0.105700
     14 HG11        0.3140   -1.5300    1.9780 hc        1 HAV      0.079700
     15 HG12        1.9100   -1.9440    2.6910 hc        1 HAV      0.079700
     16 HG13        1.6150   -2.2830    0.9400 hc        1 HAV      0.079700
     17 HG21        3.8840   -0.7900    0.5980 hc        1 HAV      0.079700
     18 HG22        3.8890    0.8430    1.4450 hc        1 HAV      0.079700
     19 HG23        3.8290   -0.6800    2.3980 hc        1 HAV      0.079700
     20 HO1         3.7990    0.7140   -2.9190 ho        1 HAV      0.517000
     21 HN          3.5990    2.4630   -1.5720 hn        1 HAV      0.500800
     22 HA3        -0.3270    1.2300    0.6610 hn        1 HAV      0.492133
     23 H2          4.1650    1.1490   -0.6400 hn        1 HAV      0.500800
@<TRIPOS>BOND
     1    1    2 1   
     2    1   10 1   
     3    1   11 1   
     4    1   22 1   
     5    2    3 1   
     6    2    6 1   
     7    2   12 1   
     8    3    4 1   
     9    3    5 1   
    10    3   13 1   
    11    4   14 1   
    12    4   15 1   
    13    4   16 1   
    14    5   17 1   
    15    5   18 1   
    16    5   19 1   
    17    6    7 2   
    18    6    9 1   
    19    8    9 1   
    20    8   20 1   
    21    9   21 1   
    22    9   23 1   
@<TRIPOS>SUBSTRUCTURE
     1 HAV         1 TEMP              0 ****  ****    0 ROOT
