@<TRIPOS>MOLECULE
HAV
   21    20     1     0     0
SMALL
bcc


@<TRIPOS>ATOM
      1 NA         -1.7710   -0.4960   -0.0980 n3        1 HAV     -0.894800
      2 CA         -0.3880   -0.2100   -0.2360 c3        1 HAV      0.114500
      3 CB          0.2530   -0.1370    1.1370 c3        1 HAV     -0.058700
      4 CG1        -0.3900   -1.1610    2.0520 c3        1 HAV     -0.092100
      5 CG2         1.7340   -0.4260    1.0180 c3        1 HAV     -0.092100
      6 C          -0.2160    1.1180   -0.9450 c         1 HAV      0.544100
      7 O          -0.4180    2.1540   -0.3480 o         1 HAV     -0.567100
      8 O1          0.0300    2.3370   -3.0360 oh        1 HAV     -0.438100
      9 N           0.0680    1.1450   -2.3500 n         1 HAV     -0.354400
     10 HNA1       -1.9590   -1.2950   -0.5020 hn        1 HAV      0.361800
     11 HNA2       -2.2610    0.1690   -0.4940 hn        1 HAV      0.361800
     12 HA          0.0410   -0.9180   -0.7600 h1        1 HAV      0.070700
     13 HB          0.1260    0.7550    1.5070 hc        1 HAV      0.063700
     14 HG11       -1.2680   -0.8380    2.3360 hc        1 HAV      0.040700
     15 HG12       -0.4930   -2.0110    1.5710 hc        1 HAV      0.040700
     16 HG13        0.1770   -1.2970    2.8370 hc        1 HAV      0.040700
     17 HG21        1.8640   -1.2720    0.5530 hc        1 HAV      0.040700
     18 HG22        2.1280   -0.4820    1.9120 hc        1 HAV      0.040700
     19 HG23        2.1660    0.2910    0.5160 hc        1 HAV      0.040700
     20 HO1         0.3400    2.2120   -3.8690 ho        1 HAV      0.435000
     21 HN          0.2370    0.3620   -2.8000 hn        1 HAV      0.299500
@<TRIPOS>BOND
     1    1    2 1   
     2    1   10 1   
     3    1   11 1   
     4    2    3 1   
     5    2    6 1   
     6    2   12 1   
     7    3    4 1   
     8    3    5 1   
     9    3   13 1   
    10    4   14 1   
    11    4   15 1   
    12    4   16 1   
    13    5   17 1   
    14    5   18 1   
    15    5   19 1   
    16    6    7 2   
    17    6    9 1   
    18    8    9 1   
    19    8   20 1   
    20    9   21 1   
@<TRIPOS>SUBSTRUCTURE
     1 HAV         1 TEMP              0 ****  ****    0 ROOT
