@<TRIPOS>MOLECULE
HAV
   23    22     1     0     0
SMALL
bcc


@<TRIPOS>ATOM
      1 NA         -0.0520    0.4370    0.0620 n4        1 HAV     -0.844600
      2 CA          1.4390    0.2710    0.0500 c3        1 HAV      0.065500
      3 CB          1.9710   -0.1770    1.4430 c3        1 HAV     -0.076700
      4 CG1         1.4330   -1.5540    1.7750 c3        1 HAV     -0.135100
      5 CG2         3.4840   -0.1820    1.4370 c3        1 HAV     -0.135100
      6 C           2.1000    1.5910   -0.3430 c         1 HAV      0.536100
      7 O           1.7570    2.7120   -0.0240 o         1 HAV     -0.335100
      8 O1          3.0720    0.6420   -2.2320 oh        1 HAV     -0.377300
      9 N           3.3490    1.5100   -1.2310 n4        1 HAV     -0.446300
     10 HNA1       -0.3300    1.2160    0.6780 hn        1 HAV      0.492133
     11 HNA2       -0.4710   -0.4360    0.4270 hn        1 HAV      0.492133
     12 HA          1.6820   -0.5380   -0.7140 hx        1 HAV      0.169700
     13 HB          1.6180    0.5600    2.2230 hc        1 HAV      0.105700
     14 HG11        1.6350   -2.2840    0.9530 hc        1 HAV      0.079700
     15 HG12        0.3390   -1.5350    2.0000 hc        1 HAV      0.079700
     16 HG13        1.9440   -1.9370    2.7000 hc        1 HAV      0.079700
     17 HG21        3.8930   -0.7780    0.5860 hc        1 HAV      0.079700
     18 HG22        3.8950    0.8570    1.4270 hc        1 HAV      0.079700
     19 HG23        3.8530   -0.6630    2.3850 hc        1 HAV      0.079700
     20 HO1         3.7680    0.7130   -2.9350 ho        1 HAV      0.517000
     21 HN          4.1510    1.1590   -0.6610 hn        1 HAV      0.500800
     22 HA3        -0.4160    0.6100   -0.8840 hn        1 HAV      0.492133
     23 H2          3.5680    2.4660   -1.5930 hn        1 HAV      0.500800
@<TRIPOS>BOND
     1    1    2 1   
     2    1   10 1   
     3    1   11 1   
     4    1   22 1   
     5    2    3 1   
     6    2    6 1   
     7    2   12 1   
     8    3    4 1   
     9    3    5 1   
    10    3   13 1   
    11    4   14 1   
    12    4   15 1   
    13    4   16 1   
    14    5   17 1   
    15    5   18 1   
    16    5   19 1   
    17    6    7 2   
    18    6    9 1   
    19    8    9 1   
    20    8   20 1   
    21    9   21 1   
    22    9   23 1   
@<TRIPOS>SUBSTRUCTURE
     1 HAV         1 TEMP              0 ****  ****    0 ROOT
