@<TRIPOS>MOLECULE
HAV
   23    22     1     0     0
SMALL
bcc


@<TRIPOS>ATOM
      1 NA         -0.0550    0.4320    0.0790 n4        1 HAV     -0.844600
      2 CA          1.4370    0.2670    0.0540 c3        1 HAV      0.065500
      3 CB          1.9820   -0.1650    1.4480 c3        1 HAV     -0.076700
      4 CG1         1.4500   -1.5400    1.7990 c3        1 HAV     -0.135100
      5 CG2         3.4940   -0.1680    1.4290 c3        1 HAV     -0.135100
      6 C           2.0920    1.5840   -0.3580 c         1 HAV      0.536100
      7 O           1.7500    2.7080   -0.0470 o         1 HAV     -0.335100
      8 O1          3.0470    0.6160   -2.2460 oh        1 HAV     -0.377300
      9 N           3.3330    1.4940   -1.2570 n4        1 HAV     -0.446300
     10 HNA1       -0.4280    0.5940   -0.8660 hn        1 HAV      0.492133
     11 HNA2       -0.4700   -0.4380    0.4580 hn        1 HAV      0.492133
     12 HA          1.6730   -0.5500   -0.7020 hx        1 HAV      0.169700
     13 HB          1.6340    0.5790    2.2240 hc        1 HAV      0.105700
     14 HG11        1.6460   -2.2780    0.9830 hc        1 HAV      0.079700
     15 HG12        0.3570   -1.5210    2.0320 hc        1 HAV      0.079700
     16 HG13        1.9690   -1.9120    2.7230 hc        1 HAV      0.079700
     17 HG21        3.8720   -0.6370    2.3780 hc        1 HAV      0.079700
     18 HG22        3.9030    0.8720    1.4030 hc        1 HAV      0.079700
     19 HG23        3.8970   -0.7720    0.5800 hc        1 HAV      0.079700
     20 HO1         3.7370    0.6800   -2.9560 ho        1 HAV      0.517000
     21 HN          3.5470    2.4460   -1.6310 hn        1 HAV      0.500800
     22 HA3        -0.3280    1.2170    0.6890 hn        1 HAV      0.492133
     23 H2          4.1400    1.1500   -0.6900 hn        1 HAV      0.500800
@<TRIPOS>BOND
     1    1    2 1   
     2    1   10 1   
     3    1   11 1   
     4    1   22 1   
     5    2    3 1   
     6    2    6 1   
     7    2   12 1   
     8    3    4 1   
     9    3    5 1   
    10    3   13 1   
    11    4   14 1   
    12    4   15 1   
    13    4   16 1   
    14    5   17 1   
    15    5   18 1   
    16    5   19 1   
    17    6    7 2   
    18    6    9 1   
    19    8    9 1   
    20    8   20 1   
    21    9   21 1   
    22    9   23 1   
@<TRIPOS>SUBSTRUCTURE
     1 HAV         1 TEMP              0 ****  ****    0 ROOT
