@<TRIPOS>MOLECULE
HAV
   21    20     1     0     0
SMALL
bcc


@<TRIPOS>ATOM
      1 NA         -1.8420   -0.4460    1.0160 n3        1 HAV     -0.890800
      2 CA         -0.4570   -0.4840    0.6040 c3        1 HAV      0.112500
      3 CB          0.4550    0.4000    1.4870 c3        1 HAV     -0.061700
      4 CG1         0.3780   -0.0430    2.9330 c3        1 HAV     -0.096600
      5 CG2         1.8880    0.3380    1.0000 c3        1 HAV     -0.096600
      6 C          -0.2640   -0.0350   -0.8620 c         1 HAV      0.542100
      7 O          -0.9150    0.9050   -1.3480 o         1 HAV     -0.570100
      8 O1          0.9860   -0.2580   -2.8170 oh        1 HAV     -0.439100
      9 N           0.5650   -0.8460   -1.6940 n         1 HAV     -0.350400
     10 HNA1       -2.4060   -0.9890    0.3920 hn        1 HAV      0.363300
     11 HNA2       -2.1830    0.4970    1.0300 hn        1 HAV      0.363300
     12 HA         -0.1160   -1.5580    0.7130 h1        1 HAV      0.077700
     13 HB          0.0970    1.4650    1.4110 hc        1 HAV      0.064700
     14 HG11        1.0830    0.5630    3.5540 hc        1 HAV      0.041200
     15 HG12       -0.6530    0.0930    3.3390 hc        1 HAV      0.041200
     16 HG13        0.6570   -1.1190    3.0290 hc        1 HAV      0.041200
     17 HG21        2.2350   -0.7200    0.9120 hc        1 HAV      0.041200
     18 HG22        1.9960    0.8400    0.0080 hc        1 HAV      0.041200
     19 HG23        2.5570    0.8630    1.7250 hc        1 HAV      0.041200
     20 HO1         0.1990   -0.1890   -3.3930 ho        1 HAV      0.435000
     21 HN          1.3840   -1.1900   -1.2040 hn        1 HAV      0.299500
@<TRIPOS>BOND
     1    1    2 1   
     2    1   10 1   
     3    1   11 1   
     4    2    3 1   
     5    2    6 1   
     6    2   12 1   
     7    3    4 1   
     8    3    5 1   
     9    3   13 1   
    10    4   14 1   
    11    4   15 1   
    12    4   16 1   
    13    5   17 1   
    14    5   18 1   
    15    5   19 1   
    16    6    7 2   
    17    6    9 1   
    18    8    9 1   
    19    8   20 1   
    20    9   21 1   
@<TRIPOS>SUBSTRUCTURE
     1 HAV         1 TEMP              0 ****  ****    0 ROOT
