@<TRIPOS>MOLECULE
HAZ
   65    64     1     0     0
SMALL
bcc


@<TRIPOS>ATOM
      1 O6         -2.8680   -8.6390    6.3100 o         1 HAZ     -0.590000
      2 C25        -2.8510   -7.7470    7.2030 c1        1 HAZ      0.330000
      3 O5         -3.7580   -7.7160    8.0810 os        1 HAZ     -0.574000
      4 C22        -1.0250   -4.5080    6.2760 c3        1 HAZ     -0.180000
      5 C23        -1.8910   -5.7540    6.0460 c3        1 HAZ     -0.158000
      6 C24        -1.7290   -6.7150    7.2290 c3        1 HAZ     -0.227000
      7 C21        -0.7860   -3.7970    4.9390 c2        1 HAZ      0.311000
      8 O4         -0.4620   -4.4420    3.9550 o         1 HAZ     -0.387000
      9 N3         -0.8890   -2.3670    4.8590 n         1 HAZ     -0.323000
     10 C15        -0.1460   -0.2100    1.3110 c1        1 HAZ      0.012000
     11 C16         0.8490   -0.3220    2.2800 c1        1 HAZ     -0.136500
     12 C17         0.6170   -1.0650    3.4330 c1        1 HAZ     -0.136500
     13 C18        -0.6100   -1.6950    3.6200 c1        1 HAZ      0.077000
     14 C19        -1.6040   -1.5820    2.6520 c1        1 HAZ     -0.170000
     15 C20        -1.3710   -0.8390    1.4980 c1        1 HAZ     -0.141000
     16 N2          0.0510    0.6520    0.1780 n         1 HAZ     -0.291000
     17 C14         0.7700    0.1690   -0.9780 c2        1 HAZ      0.296000
     18 O3          1.2090   -0.9690   -0.9910 o         1 HAZ     -0.373000
     19 C1          1.5820    1.5950   -4.6330 c3        1 HAZ     -0.161000
     20 C10         0.9620    2.5860   -4.3060 c3        1 HAZ     -0.048000
     21 C11         2.1320    5.7780   -2.2400 c3        1 HAZ     -0.201000
     22 C12         0.5530    3.4070   -5.5510 c3        1 HAZ     -0.207000
     23 C2          1.1160    0.6390   -4.9730 c3        1 HAZ     -0.169000
     24 C3          0.0220    0.3920   -4.3320 c3        1 HAZ     -0.151000
     25 O2         -1.3040    0.9560   -2.3970 o         1 HAZ     -0.666000
     26 C13         1.0850    1.1320   -2.1500 c3        1 HAZ     -0.174000
     27 N1         -0.1360    1.2420   -3.0590 n4        1 HAZ      0.319000
     28 C5         -0.1810    2.2020   -3.5580 c3        1 HAZ     -0.065000
     29 C6         -0.8080    3.3190   -2.7930 c3        1 HAZ     -0.161000
     30 C7          0.2250    4.0900   -1.8700 c3        1 HAZ     -0.148000
     31 C8          1.4260    4.4620   -2.5950 cx        1 HAZ      0.012000
     32 C9          2.0980    3.4770   -3.3260 cx        1 HAZ     -0.038000
     33 O1          2.1970    3.4200   -1.9960 os        1 HAZ     -0.261000
     34 H221       -0.1620   -4.7760    6.6640 hc        1 HAZ      0.107500
     35 H222       -1.4860   -3.8990    6.8940 hc        1 HAZ      0.107500
     36 H231       -2.8330   -5.4880    5.9660 hc        1 HAZ      0.092500
     37 H232       -1.6060   -6.2020    5.2200 hc        1 HAZ      0.092500
     38 H241       -0.8620   -7.1720    7.1640 hc        1 HAZ      0.064500
     39 H242       -1.7700   -6.2080    8.0700 hc        1 HAZ      0.064500
     40 HN3        -1.1340   -1.8830    5.5970 hn        1 HAZ      0.248000
     41 H16         1.6930    0.1670    2.1740 ha        1 HAZ      0.168000
     42 H17         1.3180   -1.1440    4.1160 ha        1 HAZ      0.168000
     43 H19        -2.4690   -2.0270    2.7840 ha        1 HAZ      0.139000
     44 H20        -2.0730   -0.7600    0.8160 ha        1 HAZ      0.132000
     45 HN2        -0.3450    1.4700    0.1570 hn        1 HAZ      0.269000
     46 H11         2.1500    1.3630   -3.8650 hc        1 HAZ      0.099500
     47 H12         2.1860    1.8790   -5.3610 hc        1 HAZ      0.099500
     48 H111        2.0690    5.9320   -1.2720 hc        1 HAZ      0.089667
     49 H112        1.7010    6.5210   -2.7200 hc        1 HAZ      0.089667
     50 H113        3.0790    5.7230   -2.5030 hc        1 HAZ      0.089667
     51 H121       -0.1290    2.9140   -6.0580 hc        1 HAZ      0.081667
     52 H122        1.3420    3.5550   -6.1200 hc        1 HAZ      0.081667
     53 H123        0.1860    4.2770   -5.2650 hc        1 HAZ      0.081667
     54 H21         1.7530   -0.1020   -4.8220 hc        1 HAZ      0.094500
     55 H22         0.9170    0.7020   -5.9380 hc        1 HAZ      0.094500
     56 H31         0.0110   -0.5620   -4.0790 hx        1 HAZ      0.131000
     57 H32        -0.7420    0.5710   -4.9290 hx        1 HAZ      0.131000
     58 H131        1.8450    0.7840   -2.6640 hx        1 HAZ      0.143000
     59 H132        1.3080    2.0160   -1.7950 hx        1 HAZ      0.143000
     60 H5         -0.8470    2.0340   -4.2670 hx        1 HAZ      0.123000
     61 H61        -1.2020    3.9570   -3.4300 hc        1 HAZ      0.112500
     62 H62        -1.5260    2.9510   -2.2280 hc        1 HAZ      0.112500
     63 H71        -0.2040    4.9050   -1.5210 hc        1 HAZ      0.101500
     64 H72         0.4730    3.5120   -1.1160 hc        1 HAZ      0.101500
     65 H9          2.8830    3.8440   -3.7920 h1        1 HAZ      0.128000
@<TRIPOS>BOND
     1    1    2 1   
     2    2    6 1   
     3    4    5 1   
     4    4    7 1   
     5    4   34 1   
     6    4   35 1   
     7    5    6 1   
     8    5   36 1   
     9    5   37 1   
    10    6   38 1   
    11    6   39 1   
    12    7    8 1   
    13    7    9 1   
    14    9   13 1   
    15    9   40 1   
    16   10   15 1   
    17   10   16 1   
    18   11   12 1   
    19   11   41 1   
    20   12   42 1   
    21   13   14 1   
    22   14   43 1   
    23   15   44 1   
    24   16   17 1   
    25   16   45 1   
    26   17   18 1   
    27   17   26 1   
    28   19   20 1   
    29   19   23 1   
    30   19   46 1   
    31   19   47 1   
    32   20   22 1   
    33   20   28 1   
    34   20   32 1   
    35   21   31 1   
    36   21   48 1   
    37   21   49 1   
    38   21   50 1   
    39   22   51 1   
    40   22   52 1   
    41   22   53 1   
    42   23   24 1   
    43   23   54 1   
    44   23   55 1   
    45   24   27 1   
    46   24   56 1   
    47   24   57 1   
    48   25   27 1   
    49   26   27 1   
    50   26   58 1   
    51   26   59 1   
    52   27   28 1   
    53   28   29 1   
    54   28   60 1   
    55   29   30 1   
    56   29   61 1   
    57   29   62 1   
    58   30   31 1   
    59   30   63 1   
    60   30   64 1   
    61   31   32 1   
    62   31   33 1   
    63   32   33 1   
    64   32   65 1   
@<TRIPOS>SUBSTRUCTURE
     1 HAZ         1 TEMP              0 ****  ****    0 ROOT
