@<TRIPOS>MOLECULE
HAZ
   67    67     1     0     0
SMALL
bcc


@<TRIPOS>ATOM
      1 O6          0.0940   -1.1700   -5.7320 o         1 HAZ     -0.253000
      2 C25         1.1920   -0.7850   -5.4010 cu        1 HAZ      0.278000
      3 O5          1.9170    0.2990   -5.8370 os        1 HAZ     -0.313000
      4 C22         4.0730    0.0270   -2.9690 c3        1 HAZ     -0.216000
      5 C23         2.6370    0.0280   -3.4300 c3        1 HAZ     -0.168000
      6 C24         2.4950   -0.5910   -4.7860 cx        1 HAZ      0.010000
      7 C21         1.2570    3.1020   -4.5980 c1        1 HAZ      0.231000
      8 O4          0.5310    2.9850   -5.5120 o         1 HAZ     -0.230000
      9 N3         -0.0360    1.1130   -7.9420 n3        1 HAZ     -0.337000
     10 C15        -3.2320    0.6610   -9.6540 c2        1 HAZ     -0.107000
     11 C16        -3.2200   -0.1350   -8.4080 c2        1 HAZ     -0.130000
     12 C17        -2.2890    0.2050   -7.4900 c2        1 HAZ     -0.135000
     13 C18        -1.3920    1.4390   -7.5720 c3        1 HAZ      0.016000
     14 C19        -2.0710    2.4720   -8.4890 c2        1 HAZ     -0.042000
     15 C20        -2.7220    1.8810   -9.4690 c1        1 HAZ     -0.109000
     16 C14        -2.6800    0.4020  -12.0400 c2        1 HAZ     -0.013000
     17 O3         -3.4010    0.7430  -13.1690 os        1 HAZ     -0.199000
     18 C1         -7.1500   -3.7990  -13.2320 c3        1 HAZ     -0.166000
     19 C10        -6.7810   -2.3210  -13.1090 c3        1 HAZ     -0.066000
     20 C11        -4.3830    0.3840  -15.2720 c3        1 HAZ     -0.231000
     21 C12        -7.8750   -1.4570  -13.7150 c3        1 HAZ     -0.213000
     22 C2         -6.2670   -4.7200  -12.4110 c3        1 HAZ     -0.136000
     23 C3         -5.5130   -4.0770  -11.3020 c2        1 HAZ     -0.191000
     24 O2         -4.9580   -2.2600  -10.0660 o         1 HAZ     -0.431200
     25 C13        -1.3490    0.5390  -11.9530 c2        1 HAZ     -0.124000
     26 N1         -5.6500   -2.8130  -10.9330 n3        1 HAZ      0.155200
     27 C5         -6.6680   -1.9780  -11.6190 c3        1 HAZ     -0.097000
     28 C6         -1.9130   -1.2190  -15.4160 c2        1 HAZ     -0.136000
     29 C7         -2.6960   -1.2880  -14.3430 c2        1 HAZ     -0.261000
     30 C8         -3.8060   -0.3250  -14.0500 c3        1 HAZ      0.240000
     31 C9         -5.4560   -2.0610  -13.8430 c3        1 HAZ     -0.008000
     32 O1         -4.8290   -0.9220  -13.2470 os        1 HAZ     -0.346000
     33 H221        4.1450    0.5010   -1.9600 hc        1 HAZ      0.090333
     34 H222        4.7170    0.6040   -3.6770 hc        1 HAZ      0.090333
     35 H231        4.4690   -1.0150   -2.8980 hc        1 HAZ      0.090333
     36 H232        2.2480    1.0840   -3.4590 hc        1 HAZ      0.114000
     37 H241        2.0060   -0.5480   -2.7000 hc        1 HAZ      0.114000
     38 H242        3.3640   -1.1800   -5.1500 h1        1 HAZ      0.167000
     39 HN3         0.2060    0.1840   -7.6490 hn        1 HAZ      0.174000
     40 H16        -2.1020   -0.4300   -6.6070 ha        1 HAZ      0.175000
     41 H17        -3.8970   -0.9970   -8.3110 ha        1 HAZ      0.186000
     42 H19        -1.4510    1.9440   -6.5510 h1        1 HAZ      0.122000
     43 H20        -2.0700    3.5300   -8.2100 ha        1 HAZ      0.182000
     44 HN2        -3.5440   -1.0030  -10.7870 hn        1 HAZ      0.275500
     45 H112       -4.4880   -0.3430  -16.1120 hc        1 HAZ      0.110333
     46 H113       -5.3830    0.8120  -15.0210 hc        1 HAZ      0.110333
     47 H121       -8.0740   -1.7740  -14.7680 hc        1 HAZ      0.093667
     48 H122       -8.8230   -1.5540  -13.1320 hc        1 HAZ      0.093667
     49 H123       -7.5580   -0.3860  -13.7150 hc        1 HAZ      0.093667
     50 H21        -8.2180   -3.9180  -12.9050 hc        1 HAZ      0.107000
     51 H22        -5.5050   -5.2110  -13.0790 hc        1 HAZ      0.117500
     52 H31        -6.8960   -5.5460  -11.9760 hc        1 HAZ      0.117500
     53 H32        -4.7800   -4.6970  -10.7520 h4        1 HAZ      0.185000
     54 H131       -0.7640    0.8090  -12.8450 ha        1 HAZ      0.171500
     55 H132       -0.7920    0.4170  -11.0120 ha        1 HAZ      0.171500
     56 H5         -7.6530   -2.1600  -11.1050 h1        1 HAZ      0.130500
     57 H61        -6.3860   -0.8980  -11.4840 h1        1 HAZ      0.130500
     58 H62        -2.0190   -0.4440  -16.1890 ha        1 HAZ      0.134000
     59 H71        -1.1050   -1.9450  -15.5930 ha        1 HAZ      0.134000
     60 H72        -2.5680   -2.0770  -13.5830 ha        1 HAZ      0.136000
     61 H9         -5.6540   -1.8710  -14.9310 h1        1 HAZ      0.092000
     62 H11        -4.7630   -2.9390  -13.7370 h1        1 HAZ      0.092000
     63 H12        -7.1020   -4.1030  -14.3110 hc        1 HAZ      0.107000
     64 H321        0.6070    1.7660   -7.5340 hn        1 HAZ      0.174000
     65 N2         -3.5630    0.0290  -10.9150 n4        1 HAZ      0.063000
     66 H111       -3.7020    1.2130  -15.5830 hc        1 HAZ      0.110333
     67 H223       -4.5320    0.2820  -11.1700 hn        1 HAZ      0.275500
@<TRIPOS>BOND
     1    1    2 1   
     2    2    3 1   
     3    2    6 1   
     4    3    6 1   
     5    4    5 1   
     6    4   33 1   
     7    4   34 1   
     8    4   35 1   
     9    5    6 1   
    10    5   36 1   
    11    5   37 1   
    12    6   38 1   
    13    7    8 1   
    14    9   13 1   
    15    9   39 1   
    16    9   64 1   
    17   10   11 1   
    18   10   15 1   
    19   10   65 1   
    20   11   12 1   
    21   11   41 1   
    22   12   13 1   
    23   12   40 1   
    24   13   14 1   
    25   13   42 1   
    26   14   15 1   
    27   14   43 1   
    28   16   17 1   
    29   16   25 1   
    30   16   65 1   
    31   17   30 1   
    32   18   19 1   
    33   18   22 1   
    34   18   50 1   
    35   18   63 1   
    36   19   21 1   
    37   19   27 1   
    38   19   31 1   
    39   20   30 1   
    40   20   45 1   
    41   20   46 1   
    42   20   66 1   
    43   21   47 1   
    44   21   48 1   
    45   21   49 1   
    46   22   23 1   
    47   22   51 1   
    48   22   52 1   
    49   23   26 1   
    50   23   53 1   
    51   24   26 2   
    52   25   54 1   
    53   25   55 1   
    54   26   27 1   
    55   27   56 1   
    56   27   57 1   
    57   28   29 1   
    58   28   58 1   
    59   28   59 1   
    60   29   30 1   
    61   29   60 1   
    62   30   32 1   
    63   31   32 1   
    64   31   61 1   
    65   31   62 1   
    66   44   65 1   
    67   65   67 1   
@<TRIPOS>SUBSTRUCTURE
     1 HAZ         1 TEMP              0 ****  ****    0 ROOT
