@<TRIPOS>MOLECULE
HAZ
   65    61     1     0     0
SMALL
bcc


@<TRIPOS>ATOM
      1 O6          1.1050   -0.0940   -3.0900 o         1 HAZ     -0.598500
      2 C25         0.4930   -1.1650   -3.3960 c2        1 HAZ      0.345000
      3 O5         -0.1920   -1.2270   -4.4680 o         1 HAZ     -0.598500
      4 C22         1.3430   -3.5670   -0.4790 c3        1 HAZ     -0.176000
      5 C23         1.2540   -2.3960   -1.3730 c2        1 HAZ     -0.182000
      6 C24         0.5620   -2.3690   -2.5140 c2        1 HAZ     -0.177000
      7 C21         1.0790    2.3930   -4.6800 c2        1 HAZ      0.254000
      8 O4          1.3020    3.5690   -5.0180 o         1 HAZ     -0.396000
      9 N3          0.2910    1.5160   -5.4160 n         1 HAZ     -0.306000
     10 C15        -1.7460    2.3210   -9.0310 c2        1 HAZ     -0.135000
     11 C16        -1.8000    1.0580   -8.4240 c2        1 HAZ      0.038000
     12 C17        -1.1170    0.8010   -7.2300 c2        1 HAZ     -0.308000
     13 C18        -0.3540    1.7880   -6.5930 c2        1 HAZ      0.139000
     14 C19        -0.2660    3.1450   -7.2320 c3        1 HAZ     -0.165000
     15 C20        -0.9900    3.3550   -8.4670 c1        1 HAZ     -0.235000
     16 C14        -2.8850    1.7650  -11.1770 c2        1 HAZ      0.286000
     17 O3         -2.8570    0.5170  -11.0480 o         1 HAZ     -0.429000
     18 C1         -3.5660   -2.8190  -13.2770 c3        1 HAZ     -0.122000
     19 C10        -4.7340   -2.0230  -13.7640 c2        1 HAZ     -0.098000
     20 C11        -8.7320   -2.7880  -18.3310 c3        1 HAZ     -0.182000
     21 C12        -5.2930   -1.0320  -12.8150 c3        1 HAZ     -0.204000
     22 C2         -2.3370   -1.9920  -13.2030 c2        1 HAZ     -0.026000
     23 C3         -1.1980   -2.1840  -13.8960 c2        1 HAZ     -0.317000
     24 O2         -0.0140   -3.3080  -15.4280 o         1 HAZ     -0.168700
     25 C13        -3.4640    2.3700  -12.4410 c3        1 HAZ     -0.247000
     26 N1         -1.0240   -3.2470  -14.8530 n2        1 HAZ      0.137700
     27 C5         -5.2490   -2.2350  -14.9860 c2        1 HAZ     -0.176000
     28 C6         -6.4200   -1.4950  -15.5190 c3        1 HAZ     -0.103000
     29 C7         -6.9230   -2.0670  -16.7920 c2        1 HAZ     -0.156000
     30 C8         -8.2210   -2.2450  -17.0580 c2        1 HAZ     -0.180000
     31 C9         -8.5430   -4.9830  -13.4450 c1        1 HAZ      0.198000
     32 O1         -7.9070   -5.9230  -13.7340 o         1 HAZ     -0.199000
     33 H221        2.4100   -3.8850   -0.3640 hc        1 HAZ      0.062000
     34 H222        0.7590   -4.4360   -0.8710 hc        1 HAZ      0.062000
     35 H231        0.9490   -3.3100    0.5360 hc        1 HAZ      0.062000
     36 H232        1.4830    1.9120   -3.7510 h5        1 HAZ      0.208000
     37 H241        1.8070   -1.4980   -1.0470 ha        1 HAZ      0.133000
     38 H242       -0.0050   -3.2390   -2.8800 ha        1 HAZ      0.110000
     39 HN3         0.1850    0.5730   -5.0220 hn        1 HAZ      0.328000
     40 H16        -1.1870   -0.2070   -6.7810 ha        1 HAZ      0.175000
     41 H17        -2.3760    0.2300   -8.8790 ha        1 HAZ      0.154000
     42 H19         0.8230    3.3960   -7.4190 hc        1 HAZ      0.171000
     43 H20        -0.6100    3.9290   -6.4890 hc        1 HAZ      0.171000
     44 HN2        -2.4170    3.6090  -10.4460 hn        1 HAZ      0.235000
     45 H11        -3.7920   -3.1870  -12.2340 hc        1 HAZ      0.106500
     46 H12        -3.4220   -3.7260  -13.9230 hc        1 HAZ      0.106500
     47 H111       -9.3240   -3.7180  -18.1420 hc        1 HAZ      0.076667
     48 H112       -7.9050   -3.0360  -19.0410 hc        1 HAZ      0.076667
     49 H113       -9.4060   -2.0420  -18.8240 hc        1 HAZ      0.076667
     50 H121       -5.6460   -0.1180  -13.3540 hc        1 HAZ      0.093000
     51 H122       -4.5300   -0.7200  -12.0540 hc        1 HAZ      0.093000
     52 H123       -6.1680   -1.4760  -12.2750 hc        1 HAZ      0.093000
     53 H21        -3.3040   -1.5330   -9.8710 ha        1 HAZ      0.001500
     54 H22        -3.2700   -1.8650  -10.4620 ha        1 HAZ      0.001500
     55 H31        -2.3900   -1.1440  -12.4850 ha        1 HAZ      0.176000
     56 H32        -0.3380   -1.5040  -13.7350 h4        1 HAZ      0.139000
     57 H131       -3.9690    1.5600  -13.0220 hc        1 HAZ      0.096667
     58 H132       -4.2090    3.1680  -12.2080 hc        1 HAZ      0.096667
     59 H5         -2.6440    2.8060  -13.0590 hc        1 HAZ      0.096667
     60 H61        -4.8030   -2.9850  -15.6590 ha        1 HAZ      0.126000
     61 H62        -6.1200   -0.4230  -15.7050 hc        1 HAZ      0.094000
     62 H71        -7.2360   -1.4700  -14.7440 hc        1 HAZ      0.094000
     63 H72        -6.1470   -2.3310  -17.5300 ha        1 HAZ      0.122000
     64 H9         -8.9940   -1.9860  -16.3150 ha        1 HAZ      0.119000
     65 N2         -2.4690    2.6410  -10.2090 n         1 HAZ     -0.270000
@<TRIPOS>BOND
     1    1    2 1   
     2    2    3 1   
     3    2    6 1   
     4    4    5 1   
     5    4   33 1   
     6    4   34 1   
     7    4   35 1   
     8    5    6 1   
     9    5   37 1   
    10    6   38 1   
    11    7    8 1   
    12    7    9 1   
    13    7   36 1   
    14    9   13 1   
    15    9   39 1   
    16   10   11 1   
    17   10   15 1   
    18   10   65 1   
    19   11   12 1   
    20   11   41 1   
    21   12   13 1   
    22   12   40 1   
    23   13   14 1   
    24   14   15 1   
    25   14   42 1   
    26   14   43 1   
    27   16   17 1   
    28   16   25 1   
    29   16   65 1   
    30   18   19 1   
    31   18   22 1   
    32   18   45 1   
    33   18   46 1   
    34   19   21 1   
    35   19   27 1   
    36   20   30 1   
    37   20   47 1   
    38   20   48 1   
    39   20   49 1   
    40   21   50 1   
    41   21   51 1   
    42   21   52 1   
    43   22   23 1   
    44   22   55 1   
    45   23   26 1   
    46   23   56 1   
    47   24   26 2   
    48   25   57 1   
    49   25   58 1   
    50   25   59 1   
    51   27   28 1   
    52   27   60 1   
    53   28   29 1   
    54   28   61 1   
    55   28   62 1   
    56   29   30 1   
    57   29   63 1   
    58   30   64 1   
    59   31   32 1   
    60   44   65 1   
    61   53   54 1   
@<TRIPOS>SUBSTRUCTURE
     1 HAZ         1 TEMP              0 ****  ****    0 ROOT
