@<TRIPOS>MOLECULE
HAZ
   65    68     1     0     0
SMALL
bcc


@<TRIPOS>ATOM
      1 O6         -9.3700   -1.7960    0.3510 o         1 HAZ     -0.847300
      2 C25       -10.0280   -0.8330   -0.1380 c         1 HAZ      0.910600
      3 O5        -11.1740   -0.9480   -0.6560 o         1 HAZ     -0.847300
      4 C22        -7.2810    1.8330    0.2670 c3        1 HAZ     -0.151400
      5 C23        -7.9050    0.5200   -0.1480 c3        1 HAZ     -0.079400
      6 C24        -9.4130    0.5800   -0.0830 c3        1 HAZ     -0.199400
      7 C21        -5.7870    1.9530    0.0230 c         1 HAZ      0.668100
      8 O4         -5.2760    3.0630   -0.2290 o         1 HAZ     -0.628100
      9 N3         -5.0250    0.7960    0.1360 n         1 HAZ     -0.469100
     10 C15        -0.8520    0.2390   -0.3740 ca        1 HAZ      0.001600
     11 C16        -1.7230   -0.8510   -0.1820 ca        1 HAZ     -0.131500
     12 C17        -3.0860   -0.6470   -0.0220 ca        1 HAZ     -0.160500
     13 C18        -3.6450    0.6550   -0.0480 ca        1 HAZ      0.072600
     14 C19        -2.7670    1.7440   -0.2410 ca        1 HAZ     -0.160500
     15 C20        -1.4050    1.5390   -0.3980 ca        1 HAZ     -0.131500
     16 C14         1.2870   -1.0050   -0.2400 c         1 HAZ      0.652100
     17 O3          0.8400   -2.0750    0.2250 o         1 HAZ     -0.617100
     18 C1          5.6360   -0.9410    1.8990 c3        1 HAZ     -0.080400
     19 C10         5.8460   -0.9770    0.3830 c3        1 HAZ     -0.045000
     20 C11         9.0740   -0.0760   -1.7060 c3        1 HAZ     -0.083100
     21 C12         5.5690   -2.3780   -0.1480 c3        1 HAZ     -0.095100
     22 C2          4.1700   -0.9700    2.2660 c3        1 HAZ     -0.099400
     23 C3          3.3930    0.1490    1.6010 c3        1 HAZ      0.095800
     24 O2          3.0500    1.3370   -0.3430 o         1 HAZ     -0.662000
     25 C13         2.7960   -0.9470   -0.5380 c3        1 HAZ      0.005800
     26 N1          3.5260    0.2230    0.0850 n4        1 HAZ     -0.151600
     27 C5          5.0260    0.1650   -0.2540 c3        1 HAZ      0.112500
     28 C6          5.2960    0.2770   -1.7540 c3        1 HAZ     -0.082400
     29 C7          6.7080    0.7780   -1.9870 c3        1 HAZ     -0.064400
     30 C8          7.7300    0.1400   -1.0840 cx        1 HAZ      0.080800
     31 C9          7.3120   -0.6800    0.0950 cx        1 HAZ      0.073100
     32 O1          7.7640    0.6700    0.2630 os        1 HAZ     -0.404600
     33 H221       -7.4500    2.0060    1.3630 hc        1 HAZ      0.069200
     34 H222       -7.7690    2.6780   -0.2890 hc        1 HAZ      0.069200
     35 H231       -7.5890    0.2560   -1.1900 hc        1 HAZ      0.053200
     36 H232       -7.5740   -0.3160    0.5290 hc        1 HAZ      0.053200
     37 H241       -9.7390    1.0530    0.8780 hc        1 HAZ      0.025200
     38 H242       -9.8200    1.1940   -0.9240 hc        1 HAZ      0.025200
     39 HN3        -5.5270   -0.0580    0.2750 hn        1 HAZ      0.336500
     40 H16        -1.3310   -1.8810   -0.1500 ha        1 HAZ      0.147000
     41 H17        -3.7340   -1.5260    0.1240 ha        1 HAZ      0.158000
     42 H19        -3.1570    2.7760   -0.2720 ha        1 HAZ      0.158000
     43 H20        -0.7550    2.4170   -0.5460 ha        1 HAZ      0.147000
     44 HN2         1.0370    0.9310   -0.8100 hn        1 HAZ      0.359500
     45 H111        9.4410    0.8750   -2.1610 hc        1 HAZ      0.050033
     46 H112        9.8150   -0.4120   -0.9400 hc        1 HAZ      0.050033
     47 H113        8.9980   -0.8540   -2.5040 hc        1 HAZ      0.050033
     48 H121        5.1860   -2.3550   -1.1950 hc        1 HAZ      0.045033
     49 H122        6.5060   -2.9900   -0.1400 hc        1 HAZ      0.045033
     50 H123        4.8270   -2.9140    0.4930 hc        1 HAZ      0.045033
     51 H21         3.7190   -1.9640    2.0080 hc        1 HAZ      0.062200
     52 H22         4.0640   -0.8410    3.3770 hc        1 HAZ      0.062200
     53 H31         2.2950    0.0460    1.8250 hx        1 HAZ      0.089700
     54 H32         3.7390    1.1480    1.9880 hx        1 HAZ      0.089700
     55 H131        2.9360   -0.8750   -1.6510 hx        1 HAZ      0.092700
     56 H132        3.2280   -1.9080   -0.1550 hx        1 HAZ      0.092700
     57 H5          5.4120    1.1270    0.2160 hx        1 HAZ      0.107700
     58 H61         4.5710    1.0080   -2.2080 hc        1 HAZ      0.068200
     59 H62         5.1480   -0.7080   -2.2640 hc        1 HAZ      0.068200
     60 H71         6.7420    1.8890   -1.8190 hc        1 HAZ      0.064200
     61 H72         6.9900    0.5850   -3.0550 hc        1 HAZ      0.064200
     62 H9          8.0060   -1.4330    0.5220 h1        1 HAZ      0.089700
     63 H11         6.1590   -1.8150    2.3660 hc        1 HAZ      0.056200
     64 N2          0.5360    0.0890   -0.5810 n         1 HAZ     -0.434100
     65 H12         6.1080   -0.0050    2.3030 hc        1 HAZ      0.056200
@<TRIPOS>BOND
     1    1    2 1   
     2    2    3 1   
     3    2    6 1   
     4    4    5 1   
     5    4    7 1   
     6    4   33 1   
     7    4   34 1   
     8    5    6 1   
     9    5   35 1   
    10    5   36 1   
    11    6   37 1   
    12    6   38 1   
    13    7    8 2   
    14    7    9 1   
    15    9   13 1   
    16    9   39 1   
    17   10   11 ar  
    18   10   15 ar  
    19   10   64 1   
    20   11   12 ar  
    21   11   40 1   
    22   12   13 ar  
    23   12   41 1   
    24   13   14 ar  
    25   14   15 ar  
    26   14   42 1   
    27   15   43 1   
    28   16   17 2   
    29   16   25 1   
    30   16   64 1   
    31   18   19 1   
    32   18   22 1   
    33   18   63 1   
    34   18   65 1   
    35   19   21 1   
    36   19   27 1   
    37   19   31 1   
    38   20   30 1   
    39   20   45 1   
    40   20   46 1   
    41   20   47 1   
    42   21   48 1   
    43   21   49 1   
    44   21   50 1   
    45   22   23 1   
    46   22   51 1   
    47   22   52 1   
    48   23   26 1   
    49   23   53 1   
    50   23   54 1   
    51   24   26 1   
    52   25   26 1   
    53   25   55 1   
    54   25   56 1   
    55   26   27 1   
    56   27   28 1   
    57   27   57 1   
    58   28   29 1   
    59   28   58 1   
    60   28   59 1   
    61   29   30 1   
    62   29   60 1   
    63   29   61 1   
    64   30   31 1   
    65   30   32 1   
    66   31   32 1   
    67   31   62 1   
    68   44   64 1   
@<TRIPOS>SUBSTRUCTURE
     1 HAZ         1 TEMP              0 ****  ****    0 ROOT
