@<TRIPOS>MOLECULE
HB0
   23    23     1     0     0
SMALL
bcc


@<TRIPOS>ATOM
      1 CAA         0.0510   -0.0820   -0.0010 c3        1 HB0      0.141100
      2 CAB         1.5770   -0.0620    0.0240 c3        1 HB0     -0.093400
      3 CAC         2.0870    0.0230    1.4460 c3        1 HB0     -0.071900
      4 CAD         1.5170    1.2360    2.1640 c3        1 HB0     -0.068700
      5 CAE        -0.0040    1.2080    2.1410 c3        1 HB0     -0.071900
      6 CAF        -0.5270    1.1300    0.7240 c3        1 HB0     -0.093400
      7 CAG         2.0320    1.2760    3.5990 c3        1 HB0      0.133400
      8 OAH         1.7070    2.5500    4.1330 oh        1 HB0     -0.601800
      9 OAI        -0.3280   -0.0890   -1.3730 oh        1 HB0     -0.600800
     10 HAA        -0.3250   -1.0260    0.4870 h1        1 HB0      0.030700
     11 HAB         1.9400    0.8160   -0.5720 hc        1 HB0      0.051200
     12 HABA        1.9640   -0.9890   -0.4700 hc        1 HB0      0.051200
     13 HAC         1.8070   -0.9080    2.0050 hc        1 HB0      0.045200
     14 HACA        3.2070    0.0850    1.4330 hc        1 HB0      0.045200
     15 HAD         1.8640    2.1700    1.6400 hc        1 HB0      0.068700
     16 HAE        -0.3920    2.1340    2.6420 hc        1 HB0      0.045200
     17 HAEA       -0.3720    0.3260    2.7270 hc        1 HB0      0.045200
     18 HAF        -1.6450    1.0610    0.7360 hc        1 HB0      0.051200
     19 HAFA       -0.2510    2.0590    0.1600 hc        1 HB0      0.051200
     20 HAG         3.1460    1.1310    3.6150 h1        1 HB0      0.021700
     21 HAGA        1.5520    0.4690    4.2150 h1        1 HB0      0.021700
     22 HOAH        2.0400    2.5610    5.0380 ho        1 HB0      0.399000
     23 HOAI       -1.2880   -0.0050   -1.3960 ho        1 HB0      0.399000
@<TRIPOS>BOND
     1    1    2 1   
     2    1    6 1   
     3    1    9 1   
     4    1   10 1   
     5    2    3 1   
     6    2   11 1   
     7    2   12 1   
     8    3    4 1   
     9    3   13 1   
    10    3   14 1   
    11    4    5 1   
    12    4    7 1   
    13    4   15 1   
    14    5    6 1   
    15    5   16 1   
    16    5   17 1   
    17    6   18 1   
    18    6   19 1   
    19    7    8 1   
    20    7   20 1   
    21    7   21 1   
    22    8   22 1   
    23    9   23 1   
@<TRIPOS>SUBSTRUCTURE
     1 HB0         1 TEMP              0 ****  ****    0 ROOT
