@<TRIPOS>MOLECULE
HB0
   23    23     1     0     0
SMALL
bcc


@<TRIPOS>ATOM
      1 CAA         0.0500   -0.0820   -0.0010 c3        1 HB0      0.141100
      2 CAB         1.5760   -0.0570    0.0210 c3        1 HB0     -0.093400
      3 CAC         2.0900    0.0270    1.4420 c3        1 HB0     -0.071900
      4 CAD         1.5160    1.2370    2.1640 c3        1 HB0     -0.068700
      5 CAE        -0.0040    1.2050    2.1440 c3        1 HB0     -0.071900
      6 CAF        -0.5300    1.1270    0.7280 c3        1 HB0     -0.093400
      7 CAG         2.0350    1.2760    3.5980 c3        1 HB0      0.133400
      8 OAH         1.7070    2.5490    4.1350 oh        1 HB0     -0.601800
      9 OAI        -0.3320   -0.0880   -1.3710 oh        1 HB0     -0.600800
     10 HAA        -0.3220   -1.0280    0.4860 h1        1 HB0      0.030700
     11 HAB         1.9350    0.8230   -0.5740 hc        1 HB0      0.051200
     12 HABA        1.9650   -0.9820   -0.4760 hc        1 HB0      0.051200
     13 HAC         3.2090    0.0920    1.4270 hc        1 HB0      0.045200
     14 HACA        1.8130   -0.9060    2.0010 hc        1 HB0      0.045200
     15 HAD         1.8600    2.1730    1.6410 hc        1 HB0      0.068700
     16 HAE        -0.3940    2.1280    2.6470 hc        1 HB0      0.045200
     17 HAEA       -0.3680    0.3200    2.7290 hc        1 HB0      0.045200
     18 HAF        -1.6480    1.0550    0.7420 hc        1 HB0      0.051200
     19 HAFA       -0.2580    2.0580    0.1640 hc        1 HB0      0.051200
     20 HAG         3.1500    1.1350    3.6100 h1        1 HB0      0.021700
     21 HAGA        1.5590    0.4660    4.2130 h1        1 HB0      0.021700
     22 HOAH        2.0410    2.5590    5.0380 ho        1 HB0      0.399000
     23 HOAI       -1.2920   -0.0060   -1.3930 ho        1 HB0      0.399000
@<TRIPOS>BOND
     1    1    2 1   
     2    1    6 1   
     3    1    9 1   
     4    1   10 1   
     5    2    3 1   
     6    2   11 1   
     7    2   12 1   
     8    3    4 1   
     9    3   13 1   
    10    3   14 1   
    11    4    5 1   
    12    4    7 1   
    13    4   15 1   
    14    5    6 1   
    15    5   16 1   
    16    5   17 1   
    17    6   18 1   
    18    6   19 1   
    19    7    8 1   
    20    7   20 1   
    21    7   21 1   
    22    8   22 1   
    23    9   23 1   
@<TRIPOS>SUBSTRUCTURE
     1 HB0         1 TEMP              0 ****  ****    0 ROOT
