@<TRIPOS>MOLECULE
HB2
   47    49     1     0     0
SMALL
bcc


@<TRIPOS>ATOM
      1 CAQ         0.1130   -0.0100   -0.0510 c3        1 HB2     -0.093100
      2 CAP         1.6170   -0.0670    0.0170 c3        1 HB2     -0.081400
      3 CAO         2.1060   -0.0420    1.4500 c3        1 HB2     -0.077400
      4 CAN         3.6210   -0.0960    1.5010 c3        1 HB2     -0.102700
      5 CAL         4.1070   -0.0920    2.9140 cc        1 HB2      0.402800
      6 NAK         4.3170   -1.1960    3.6650 nd        1 HB2     -0.555100
      7 CAH         4.7530   -0.7250    4.9060 ca        1 HB2     -0.098900
      8 CAG         5.1050   -1.4600    6.1060 ca        1 HB2      0.731200
      9 NAR         5.1470   -2.8450    6.0550 nv        1 HB2     -0.940500
     10 NAI         5.4360   -0.8040    7.2320 nb        1 HB2     -0.772000
     11 CAA         5.5020    0.5740    7.2260 ca        1 HB2      0.457600
     12 CAC         5.8810    1.2190    8.4480 ca        1 HB2     -0.182300
     13 CAE         5.9870    2.5870    8.5220 ca        1 HB2     -0.116000
     14 CAF         5.7320    3.3880    7.3920 ca        1 HB2     -0.152000
     15 CAD         5.3600    2.8040    6.2020 ca        1 HB2     -0.111000
     16 CAB         5.2190    1.4040    6.0900 ca        1 HB2     -0.157300
     17 CAJ         4.8130    0.7090    4.9100 ca        1 HB2     -0.026200
     18 NAM         4.3930    1.1050    3.6360 na        1 HB2     -0.133300
     19 CAS         4.2160    2.4290    3.1270 c3        1 HB2      0.042300
     20 CAT         5.4330    3.0670    2.4020 c3        1 HB2      0.134800
     21 CAU         5.3080    4.5850    2.5030 c3        1 HB2     -0.127600
     22 CAV         6.7820    2.6140    2.9350 c3        1 HB2     -0.127600
     23 OAW         5.2830    2.6710    1.0370 oh        1 HB2     -0.608800
     24 H1         -0.3400   -0.8800    0.4830 hc        1 HB2      0.034367
     25 H2         -0.2280   -0.0330   -1.1150 hc        1 HB2      0.034367
     26 H3         -0.2690    0.9270    0.4210 hc        1 HB2      0.034367
     27 H4          2.0540    0.8010   -0.5440 hc        1 HB2      0.041200
     28 H5          1.9820   -1.0020   -0.4850 hc        1 HB2      0.041200
     29 H6          1.6780   -0.9140    2.0110 hc        1 HB2      0.046700
     30 H7          1.7400    0.8910    1.9550 hc        1 HB2      0.046700
     31 H8          3.9810   -1.0360    1.0000 hc        1 HB2      0.079200
     32 H9          4.0620    0.7730    0.9410 hc        1 HB2      0.079200
     33 H10         4.6400   -3.2740    5.3170 hn        1 HB2      0.427300
     34 H11         5.1920   -3.3410    6.9140 hn        1 HB2      0.427300
     35 H12         6.0910    0.5960    9.3320 ha        1 HB2      0.149000
     36 H13         6.2780    3.0680    9.4680 ha        1 HB2      0.132000
     37 H14         5.8360    4.4800    7.4690 ha        1 HB2      0.130000
     38 H15         5.1860    3.4450    5.3250 ha        1 HB2      0.122000
     39 H16         3.3680    2.4010    2.3770 h1        1 HB2      0.078700
     40 H17         3.9040    3.1020    3.9730 h1        1 HB2      0.078700
     41 H18         6.0840    5.0730    1.8670 hc        1 HB2      0.050867
     42 H19         4.3020    4.9130    2.1480 hc        1 HB2      0.050867
     43 H20         5.4520    4.9130    3.5590 hc        1 HB2      0.050867
     44 H21         6.9810    1.5550    2.6400 hc        1 HB2      0.050867
     45 H22         7.5940    3.2550    2.5130 hc        1 HB2      0.050867
     46 H23         6.8090    2.6890    4.0480 hc        1 HB2      0.050867
     47 H24         6.0650    2.9800    0.5640 ho        1 HB2      0.407000
@<TRIPOS>BOND
     1    1    2 1   
     2    1   24 1   
     3    1   25 1   
     4    1   26 1   
     5    2    3 1   
     6    2   27 1   
     7    2   28 1   
     8    3    4 1   
     9    3   29 1   
    10    3   30 1   
    11    4    5 1   
    12    4   31 1   
    13    4   32 1   
    14    5    6 2   
    15    5   18 1   
    16    6    7 1   
    17    7    8 ar  
    18    7   17 ar  
    19    8    9 1   
    20    8   10 ar  
    21    9   33 1   
    22    9   34 1   
    23   10   11 ar  
    24   11   12 ar  
    25   11   16 ar  
    26   12   13 ar  
    27   12   35 1   
    28   13   14 ar  
    29   13   36 1   
    30   14   15 ar  
    31   14   37 1   
    32   15   16 ar  
    33   15   38 1   
    34   16   17 ar  
    35   17   18 1   
    36   18   19 1   
    37   19   20 1   
    38   19   39 1   
    39   19   40 1   
    40   20   21 1   
    41   20   22 1   
    42   20   23 1   
    43   21   41 1   
    44   21   42 1   
    45   21   43 1   
    46   22   44 1   
    47   22   45 1   
    48   22   46 1   
    49   23   47 1   
@<TRIPOS>SUBSTRUCTURE
     1 HB2         1 TEMP              0 ****  ****    0 ROOT
