@<TRIPOS>MOLECULE
HB2
   47    49     1     0     0
SMALL
bcc


@<TRIPOS>ATOM
      1 CAQ         0.1600   -0.0160   -0.1200 c3        1 HB2     -0.093100
      2 CAP         1.6630   -0.0690   -0.0260 c3        1 HB2     -0.081400
      3 CAO         2.1270   -0.0420    1.4150 c3        1 HB2     -0.078400
      4 CAN         3.6410   -0.0910    1.4930 c3        1 HB2     -0.102700
      5 CAL         4.1020   -0.0890    2.9150 cc        1 HB2      0.401800
      6 NAK         4.2900   -1.1930    3.6700 nd        1 HB2     -0.554100
      7 CAH         4.7010   -0.7240    4.9200 ca        1 HB2     -0.099900
      8 CAG         5.0210   -1.4600    6.1280 ca        1 HB2      0.733200
      9 NAR         4.8550   -2.8370    6.1370 nh        1 HB2     -0.943500
     10 NAI         5.4150   -0.8090    7.2370 nb        1 HB2     -0.773000
     11 CAA         5.4810    0.5690    7.2340 ca        1 HB2      0.458600
     12 CAC         5.8840    1.2090    8.4500 ca        1 HB2     -0.183300
     13 CAE         5.9910    2.5770    8.5270 ca        1 HB2     -0.116000
     14 CAF         5.7150    3.3820    7.4040 ca        1 HB2     -0.152000
     15 CAD         5.3240    2.8010    6.2180 ca        1 HB2     -0.110000
     16 CAB         5.1850    1.4020    6.1030 ca        1 HB2     -0.158300
     17 CAJ         4.7740    0.7100    4.9230 ca        1 HB2     -0.026200
     18 NAM         4.3790    1.1070    3.6420 na        1 HB2     -0.133300
     19 CAS         4.2050    2.4310    3.1320 c3        1 HB2      0.043300
     20 CAT         5.4310    3.0750    2.4260 c3        1 HB2      0.133800
     21 CAU         5.2980    4.5920    2.5280 c3        1 HB2     -0.127600
     22 CAV         6.7740    2.6270    2.9770 c3        1 HB2     -0.127600
     23 OAW         5.3030    2.6800    1.0580 oh        1 HB2     -0.608800
     24 H1         -0.2330    0.9200    0.3460 hc        1 HB2      0.034033
     25 H2         -0.2990   -0.8880    0.4070 hc        1 HB2      0.034033
     26 H3         -0.1630   -0.0400   -1.1880 hc        1 HB2      0.034033
     27 H4          2.0390   -1.0030   -0.5220 hc        1 HB2      0.041200
     28 H5          2.1070    0.8010   -0.5790 hc        1 HB2      0.041200
     29 H6          1.7490    0.8890    1.9140 hc        1 HB2      0.048200
     30 H7          1.6920   -0.9160    1.9690 hc        1 HB2      0.048200
     31 H8          4.0120   -1.0290    0.9970 hc        1 HB2      0.078700
     32 H9          4.0890    0.7800    0.9420 hc        1 HB2      0.078700
     33 H10         5.2500   -3.3500    6.8890 hn        1 HB2      0.428800
     34 H11         4.8250   -3.2850    5.2530 hn        1 HB2      0.428800
     35 H12         6.1060    0.5840    9.3290 ha        1 HB2      0.149000
     36 H13         6.2980    3.0560    9.4690 ha        1 HB2      0.132000
     37 H14         5.8160    4.4740    7.4840 ha        1 HB2      0.130000
     38 H15         5.1310    3.4460    5.3490 ha        1 HB2      0.122000
     39 H16         3.8790    3.1030    3.9740 h1        1 HB2      0.078700
     40 H17         3.3690    2.4020    2.3700 h1        1 HB2      0.078700
     41 H18         4.2970    4.9180    2.1580 hc        1 HB2      0.050700
     42 H19         6.0830    5.0850    1.9040 hc        1 HB2      0.050700
     43 H20         5.4240    4.9200    3.5870 hc        1 HB2      0.050700
     44 H21         6.9810    1.5690    2.6830 hc        1 HB2      0.050700
     45 H22         7.5890    3.2710    2.5670 hc        1 HB2      0.050700
     46 H23         6.7840    2.7000    4.0900 hc        1 HB2      0.050700
     47 H24         6.0850    3.0030    0.5950 ho        1 HB2      0.407000
@<TRIPOS>BOND
     1    1    2 1   
     2    1   24 1   
     3    1   25 1   
     4    1   26 1   
     5    2    3 1   
     6    2   27 1   
     7    2   28 1   
     8    3    4 1   
     9    3   29 1   
    10    3   30 1   
    11    4    5 1   
    12    4   31 1   
    13    4   32 1   
    14    5    6 2   
    15    5   18 1   
    16    6    7 1   
    17    7    8 ar  
    18    7   17 ar  
    19    8    9 1   
    20    8   10 ar  
    21    9   33 1   
    22    9   34 1   
    23   10   11 ar  
    24   11   12 ar  
    25   11   16 ar  
    26   12   13 ar  
    27   12   35 1   
    28   13   14 ar  
    29   13   36 1   
    30   14   15 ar  
    31   14   37 1   
    32   15   16 ar  
    33   15   38 1   
    34   16   17 ar  
    35   17   18 1   
    36   18   19 1   
    37   19   20 1   
    38   19   39 1   
    39   19   40 1   
    40   20   21 1   
    41   20   22 1   
    42   20   23 1   
    43   21   41 1   
    44   21   42 1   
    45   21   43 1   
    46   22   44 1   
    47   22   45 1   
    48   22   46 1   
    49   23   47 1   
@<TRIPOS>SUBSTRUCTURE
     1 HB2         1 TEMP              0 ****  ****    0 ROOT
