@<TRIPOS>MOLECULE
HBA
   15    15     1     0     0
SMALL
bcc


@<TRIPOS>ATOM
      1 C1'         0.0460    0.0720    0.0140 c         1 HBA      0.580500
      2 O1'         1.2790    0.0610   -0.0290 o         1 HBA     -0.534100
      3 C1         -0.7270   -0.0000    1.2610 ca        1 HBA     -0.235600
      4 C2         -2.1290    0.0180    1.2140 ca        1 HBA     -0.040500
      5 C3         -2.8780   -0.0490    2.3810 ca        1 HBA     -0.202500
      6 C4         -2.2100   -0.1360    3.6160 ca        1 HBA      0.157100
      7 C5         -0.8080   -0.1550    3.6780 ca        1 HBA     -0.202500
      8 C6         -0.0760   -0.0870    2.4980 ca        1 HBA     -0.040500
      9 O4         -3.0020   -0.2000    4.7350 oh        1 HBA     -0.492100
     10 H1'        -0.5630    0.1380   -0.9160 h4        1 HBA     -0.003800
     11 H2         -2.6440    0.0860    0.2420 ha        1 HBA      0.147500
     12 H3         -3.9770   -0.0360    2.3590 ha        1 HBA      0.148000
     13 H5         -0.2960   -0.2230    4.6480 ha        1 HBA      0.148000
     14 H6          1.0270   -0.1010    2.5230 ha        1 HBA      0.147500
     15 HO4        -2.4250   -0.2560    5.5110 ho        1 HBA      0.425000
@<TRIPOS>BOND
     1    1    2 2   
     2    1    3 1   
     3    1   10 1   
     4    3    4 ar  
     5    3    8 ar  
     6    4    5 ar  
     7    4   11 1   
     8    5    6 ar  
     9    5   12 1   
    10    6    7 ar  
    11    6    9 1   
    12    7    8 ar  
    13    7   13 1   
    14    8   14 1   
    15    9   15 1   
@<TRIPOS>SUBSTRUCTURE
     1 HBA         1 TEMP              0 ****  ****    0 ROOT
