@<TRIPOS>MOLECULE
HBA
   15    12     1     0     0
SMALL
bcc


@<TRIPOS>ATOM
      1 C1'         1.3070    0.0520   -2.2930 c1        1 HBA      0.228000
      2 O1'         2.5240    0.0520   -2.2930 o         1 HBA     -0.295000
      3 C1          0.5510    0.0520   -0.9820 c1        1 HBA     -0.215000
      4 C2          1.2440    0.0520    0.2180 c2        1 HBA     -0.028000
      5 C3          0.5510    0.0520    1.4180 c1        1 HBA     -0.231000
      6 C4         -0.8350    0.0520    1.4190 c1        1 HBA      0.112000
      7 C5         -1.5280    0.0520    0.2180 c1        1 HBA     -0.174000
      8 C6         -0.8350    0.0520   -0.9820 c1        1 HBA     -0.053000
      9 O4         -1.5380    0.0760    2.6370 oh        1 HBA     -0.246000
     10 H1'         0.8190    0.0520   -3.1380 ha        1 HBA      0.089000
     11 H2          2.2200    0.0520    0.2180 ha        1 HBA      0.157000
     12 H3          1.0400    0.0520    2.2640 ha        1 HBA      0.140000
     13 H5         -2.5040    0.0520    0.2190 ha        1 HBA      0.156000
     14 H6         -1.3240    0.0520   -1.8270 ha        1 HBA      0.138000
     15 HO4        -1.6930   -0.7560    2.9050 ho        1 HBA      0.224000
@<TRIPOS>BOND
     1    1    2 1   
     2    1   10 1   
     3    3    4 1   
     4    3    8 1   
     5    4    5 1   
     6    4   11 1   
     7    5   12 1   
     8    6    7 1   
     9    6    9 1   
    10    7   13 1   
    11    8   14 1   
    12    9   15 1   
@<TRIPOS>SUBSTRUCTURE
     1 HBA         1 TEMP              0 ****  ****    0 ROOT
