@<TRIPOS>MOLECULE
HBA
   15    15     1     0     0
SMALL
bcc


@<TRIPOS>ATOM
      1 C1'         0.3930   -0.0660   -2.4590 c         1 HBA      0.580500
      2 O1'        -0.5630   -0.0600   -3.2390 o         1 HBA     -0.534100
      3 C1          0.2550    0.0000   -0.9980 ca        1 HBA     -0.235600
      4 C2          1.4000   -0.0120   -0.1880 ca        1 HBA     -0.040500
      5 C3          1.2900    0.0500    1.1950 ca        1 HBA     -0.202500
      6 C4          0.0100    0.1260    1.7750 ca        1 HBA      0.157100
      7 C5         -1.1440    0.1400    0.9770 ca        1 HBA     -0.202500
      8 C6         -1.0130    0.0770   -0.4070 ca        1 HBA     -0.040500
      9 O4         -0.0360    0.1850    3.1450 oh        1 HBA     -0.492100
     10 H1'         1.4410   -0.1240   -2.8320 h4        1 HBA     -0.003800
     11 H2          2.3980   -0.0720   -0.6510 ha        1 HBA      0.147500
     12 H3          2.1780    0.0410    1.8420 ha        1 HBA      0.148000
     13 H5         -2.1390    0.2000    1.4400 ha        1 HBA      0.148000
     14 H6         -1.9060    0.0860   -1.0530 ha        1 HBA      0.147500
     15 HO4        -0.9650    0.2340    3.4150 ho        1 HBA      0.425000
@<TRIPOS>BOND
     1    1    2 2   
     2    1    3 1   
     3    1   10 1   
     4    3    4 ar  
     5    3    8 ar  
     6    4    5 ar  
     7    4   11 1   
     8    5    6 ar  
     9    5   12 1   
    10    6    7 ar  
    11    6    9 1   
    12    7    8 ar  
    13    7   13 1   
    14    8   14 1   
    15    9   15 1   
@<TRIPOS>SUBSTRUCTURE
     1 HBA         1 TEMP              0 ****  ****    0 ROOT
