@<TRIPOS>MOLECULE
HBB
   83    85     1     0     0
SMALL
bcc


@<TRIPOS>ATOM
      1 C1          0.3130    0.2800    1.2360 c3        1 HBB      0.066700
      2 C2          0.9280    1.4660    2.0090 c3        1 HBB     -0.049100
      3 C3          2.4000    1.3220    2.1530 ca        1 HBB     -0.101300
      4 C7          4.3060    0.0740    2.9830 ca        1 HBB     -0.138500
      5 C8          2.9320    0.2880    2.9340 ca        1 HBB     -0.112500
      6 C10         6.9650   -0.4600    1.6030 c3        1 HBB      0.131400
      7 C11         6.9080   -0.3020    0.0910 c3        1 HBB     -0.113400
      8 C12         6.1250   -1.3970   -0.6080 c3        1 HBB     -0.142400
      9 C13         4.7760   -0.9040   -1.1050 c         1 HBB      0.663100
     10 C16         2.3940   -1.4490   -1.5170 c3        1 HBB      0.046700
     11 C20         1.4240   -1.2840   -0.3150 c         1 HBB      0.641100
     12 N26        -3.2520   -0.5020    0.0370 n3        1 HBB     -0.803500
     13 C27        -4.3060   -0.3060    1.0020 c3        1 HBB      0.219800
     14 C30        -6.8590   -2.4950    2.8060 c3        1 HBB     -0.092100
     15 C31        -5.3250   -0.9100    3.9490 c3        1 HBB     -0.092100
     16 C35        -3.8040    1.1190   -1.9250 ca        1 HBB     -0.372500
     17 C4          3.2640    2.1900    1.4750 ca        1 HBB     -0.112500
     18 C5          4.6420    1.9910    1.5140 ca        1 HBB     -0.138500
     19 C6          5.1540    0.9120    2.2460 ca        1 HBB      0.090100
     20 O9          6.5310    0.7290    2.2770 os        1 HBB     -0.342900
     21 O14         4.6390    0.2280   -1.6140 o         1 HBB     -0.616100
     22 N15         3.7040   -1.7710   -1.0120 n         1 HBB     -0.567900
     23 C17         1.7970   -2.5280   -2.4520 c3        1 HBB     -0.078700
     24 C18         2.7790   -2.9300   -3.5310 c3        1 HBB     -0.094100
     25 O21         1.0260   -2.2770    0.3260 o         1 HBB     -0.616100
     26 N22         1.0120   -0.0030    0.0020 n         1 HBB     -0.548900
     27 C23        -1.1970    0.5810    1.0030 c3        1 HBB      0.108100
     28 O24        -1.7700    1.1050    2.1870 oh        1 HBB     -0.592800
     29 C25        -1.9260   -0.7040    0.5520 c3        1 HBB      0.190800
     30 C28        -4.8920   -1.5990    1.5750 c3        1 HBB     -0.102400
     31 C29        -5.9510   -1.2950    2.6240 c3        1 HBB     -0.064700
     32 S32        -3.5800   -0.5170   -1.5590 sy        1 HBB      1.502200
     33 O33        -2.4530   -0.9880   -2.2750 o         1 HBB     -0.654800
     34 O34        -4.8000   -1.1880   -1.7980 o         1 HBB     -0.654800
     35 C36        -2.7140    1.9320   -2.2600 ca        1 HBB     -0.019000
     36 C37        -2.8970    3.2720   -2.5900 ca        1 HBB     -0.156500
     37 C38        -4.1810    3.8190   -2.5880 ca        1 HBB     -0.067000
     38 C39        -5.2770    3.0200   -2.2610 ca        1 HBB     -0.156500
     39 C40        -5.0860    1.6800   -1.9340 ca        1 HBB     -0.019000
     40 H1          0.3750   -0.6400    1.8970 h1        1 HBB      0.077700
     41 H21         0.6720    2.4240    1.4830 hc        1 HBB      0.064700
     42 H22A        0.4420    1.5050    3.0200 hc        1 HBB      0.064700
     43 H7          4.7270   -0.7450    3.5830 ha        1 HBB      0.146500
     44 H8          2.2560   -0.3730    3.4980 ha        1 HBB      0.135000
     45 H101        8.0270   -0.5650    1.9550 h1        1 HBB      0.053200
     46 H102        6.3650   -1.3380    1.9590 h1        1 HBB      0.053200
     47 H111        6.4670    0.7030   -0.1590 hc        1 HBB      0.073700
     48 H112        7.9570   -0.3030   -0.3070 hc        1 HBB      0.073700
     49 H121        6.6850   -1.7310   -1.5240 hc        1 HBB      0.064700
     50 H122        6.0170   -2.2910    0.0600 hc        1 HBB      0.064700
     51 H16         2.4700   -0.4830   -2.1030 h1        1 HBB      0.098700
     52 H191        0.7450   -1.1140   -3.7310 hc        1 HBB      0.043033
     53 H192        0.0500   -2.7860   -3.7060 hc        1 HBB      0.043033
     54 H193       -0.2120   -1.6830   -2.2970 hc        1 HBB      0.043033
     55 H271       -5.1370    0.2680    0.4920 h1        1 HBB      0.054700
     56 H272       -3.9200    0.3350    1.8460 h1        1 HBB      0.054700
     57 H301       -7.6280   -2.2830    3.5880 hc        1 HBB      0.034867
     58 H302       -7.3810   -2.7380    1.8500 hc        1 HBB      0.034867
     59 H303       -6.2680   -3.3880    3.1240 hc        1 HBB      0.034867
     60 H311       -4.6670   -0.0160    3.8310 hc        1 HBB      0.034867
     61 H312       -6.1200   -0.6670    4.6940 hc        1 HBB      0.034867
     62 H313       -4.7110   -1.7510    4.3510 hc        1 HBB      0.034867
     63 H4          2.8540    3.0260    0.8880 ha        1 HBB      0.135000
     64 H5          5.3260    2.6560    0.9660 ha        1 HBB      0.146500
     65 H15         3.8200   -2.6670   -0.6040 hn        1 HBB      0.321500
     66 H17         1.5420   -3.4310   -1.8280 hc        1 HBB      0.071700
     67 H181        3.6320   -3.5110   -3.1040 hc        1 HBB      0.043033
     68 H182        2.2660   -3.5740   -4.2860 hc        1 HBB      0.043033
     69 H183        3.1850   -2.0300   -4.0520 hc        1 HBB      0.043033
     70 H22         1.4900    0.7610   -0.4170 hn        1 HBB      0.318500
     71 H23        -1.3200    1.4110    0.2510 h1        1 HBB      0.082700
     72 H24        -1.7310    0.4130    2.8590 ho        1 HBB      0.399000
     73 H251       -1.9760   -1.4020    1.4380 h1        1 HBB      0.076700
     74 H252       -1.3030   -1.2140   -0.2420 h1        1 HBB      0.076700
     75 H281       -4.0820   -2.2250    2.0300 hc        1 HBB      0.055700
     76 H282       -5.3510   -2.1950    0.7410 hc        1 HBB      0.055700
     77 H29        -6.5780   -0.4300    2.2630 hc        1 HBB      0.046700
     78 H36        -1.7010    1.4940   -2.2790 ha        1 HBB      0.151500
     79 H37        -2.0310    3.8970   -2.8550 ha        1 HBB      0.140500
     80 H38        -4.3280    4.8790   -2.8460 ha        1 HBB      0.137000
     81 H39        -6.2920    3.4460   -2.2660 ha        1 HBB      0.140500
     82 H40        -5.9550    1.0420   -1.6940 ha        1 HBB      0.151500
     83 C19         0.5260   -1.9940   -3.0790 c3        1 HBB     -0.094100
@<TRIPOS>BOND
     1    1    2 1   
     2    1   26 1   
     3    1   27 1   
     4    1   40 1   
     5    2    3 1   
     6    2   41 1   
     7    2   42 1   
     8    3    5 ar  
     9    3   17 ar  
    10    4    5 ar  
    11    4   19 ar  
    12    4   43 1   
    13    5   44 1   
    14    6    7 1   
    15    6   20 1   
    16    6   45 1   
    17    6   46 1   
    18    7    8 1   
    19    7   47 1   
    20    7   48 1   
    21    8    9 1   
    22    8   49 1   
    23    8   50 1   
    24    9   21 2   
    25    9   22 1   
    26   10   11 1   
    27   10   22 1   
    28   10   23 1   
    29   10   51 1   
    30   11   25 2   
    31   11   26 1   
    32   12   13 1   
    33   12   29 1   
    34   12   32 1   
    35   13   30 1   
    36   13   55 1   
    37   13   56 1   
    38   14   31 1   
    39   14   57 1   
    40   14   58 1   
    41   14   59 1   
    42   15   31 1   
    43   15   60 1   
    44   15   61 1   
    45   15   62 1   
    46   16   32 1   
    47   16   35 ar  
    48   16   39 ar  
    49   17   18 ar  
    50   17   63 1   
    51   18   19 ar  
    52   18   64 1   
    53   19   20 1   
    54   22   65 1   
    55   23   24 1   
    56   23   66 1   
    57   23   83 1   
    58   24   67 1   
    59   24   68 1   
    60   24   69 1   
    61   26   70 1   
    62   27   28 1   
    63   27   29 1   
    64   27   71 1   
    65   28   72 1   
    66   29   73 1   
    67   29   74 1   
    68   30   31 1   
    69   30   75 1   
    70   30   76 1   
    71   31   77 1   
    72   32   33 2   
    73   32   34 2   
    74   35   36 ar  
    75   35   78 1   
    76   36   37 ar  
    77   36   79 1   
    78   37   38 ar  
    79   37   80 1   
    80   38   39 ar  
    81   38   81 1   
    82   39   82 1   
    83   52   83 1   
    84   53   83 1   
    85   54   83 1   
@<TRIPOS>SUBSTRUCTURE
     1 HBB         1 TEMP              0 ****  ****    0 ROOT
