@<TRIPOS>MOLECULE
HBB
   86    83     1     0     0
SMALL
bcc


@<TRIPOS>ATOM
      1 C1         80.8680  -49.9530  149.4380 c2        1 HBB     -0.227000
      2 C2         81.8130  -49.0240  148.8960 c2        1 HBB      0.202000
      3 C3         82.9130  -48.6010  149.6260 c2        1 HBB     -0.277000
      4 C7         84.3160  -48.8580  151.6610 c3        1 HBB     -0.277000
      5 C8         83.0750  -49.0920  150.9480 c1        1 HBB     -0.043000
      6 C10        86.9980  -48.5180  152.6670 c3        1 HBB     -0.033000
      7 C11        87.6770  -49.8250  152.3010 c3        1 HBB     -0.188000
      8 C12        87.6000  -50.8460  153.4170 c3        1 HBB     -0.186000
      9 C13        86.3840  -51.7480  153.2930 c2        1 HBB      0.310000
     10 C16        81.4320  -54.7070  152.4920 c3        1 HBB     -0.277000
     11 C20        82.8420  -54.1540  152.6650 c2        1 HBB      0.315000
     12 N26        79.1350  -52.9660  148.6200 n7        1 HBB     -0.881000
     13 C27      -365.7450  225.4240 -655.1710 c1        1 HBB      0.079000
     14 C30      -365.7770  222.5830 -656.8100 c3        1 HBB     -0.307000
     15 C31      -366.5460  224.4700 -658.2930 c3        1 HBB     -0.307000
     16 C35        79.4970  -55.5430  148.1340 c3        1 HBB     -0.786000
     17 C4         83.8920  -47.7100  149.0630 c2        1 HBB      0.097000
     18 C5         85.0730  -47.4460  149.7110 c2        1 HBB     -0.272000
     19 C6         85.3530  -48.0530  150.9670 c2        1 HBB      0.269000
     20 O9         86.5740  -47.8460  151.4490 os        1 HBB     -0.135000
     21 O14        85.6210  -51.6910  152.2910 o         1 HBB     -0.469000
     22 N15        86.1220  -52.6410  154.2860 nt        1 HBB     -0.403000
     23 C17        80.8780  -55.4940  153.5920 c2        1 HBB      0.345000
     24 C18        79.4270  -55.6200  153.6580 c3        1 HBB     -0.320500
     25 O21        83.3890  -54.1380  153.7950 o         1 HBB     -0.429000
     26 N22        83.4540  -53.6740  151.5560 nt        1 HBB     -0.383000
     27 C23        80.0370  -50.6820  148.6670 c2        1 HBB     -0.038000
     28 O24        79.9660  -52.0950  145.8950 oh        1 HBB     -0.446000
     29 C25        79.0890  -51.6830  149.2630 c3        1 HBB      0.002000
     30 C28      -366.8240  224.6440 -655.7840 c3        1 HBB     -0.311000
     31 C29      -366.3990  223.8890 -656.9670 c2        1 HBB      0.245000
     32 S32        79.7750  -54.2660  149.2780 s6        1 HBB      2.848000
     33 O33        81.1720  -54.1710  149.5130 o         1 HBB     -0.992500
     34 O34        79.1710  -54.6060  150.5210 o         1 HBB     -0.992500
     35 C36        78.4400  -56.5180  148.4730 c2        1 HBB     -0.086000
     36 C37        77.6360  -57.0260  147.5120 c2        1 HBB     -0.155000
     37 C38        77.7660  -56.6000  146.1430 c2        1 HBB      0.043000
     38 C39        78.6630  -55.6180  145.8040 c2        1 HBB     -0.232000
     39 C40        79.4600  -54.9930  146.7740 c1        1 HBB     -0.147000
     40 H1         84.3420  -53.2250  151.6430 hn        1 HBB      0.271500
     41 H21        80.8980  -50.0780  150.5400 ha        1 HBB      0.185000
     42 H22A       81.6760  -48.6770  147.8520 ha        1 HBB      0.151000
     43 H7         84.0590  -48.3800  152.6570 hc        1 HBB      0.220500
     44 H8         84.7340  -49.8940  151.9160 hc        1 HBB      0.220500
     45 H101       86.1340  -48.6570  153.3640 h1        1 HBB      0.131000
     46 H102       87.7250  -47.7730  153.0970 h1        1 HBB      0.131000
     47 H111       87.5980  -50.3380  154.4180 hc        1 HBB      0.130000
     48 H112       88.7560  -49.6170  152.0660 hc        1 HBB      0.127500
     49 H121       87.2130  -50.2470  151.3670 hc        1 HBB      0.127500
     50 H122       88.5160  -51.4990  153.3730 hc        1 HBB      0.130000
     51 H16        81.3880  -55.3650  151.5590 hc        1 HBB      0.203000
     52 H191       80.7310  -53.8520  152.2350 hc        1 HBB      0.203000
     53 H192       81.1640  -56.8500  155.2430 hc        1 HBB      0.185333
     54 H193       82.6020  -56.6520  154.1080 hc        1 HBB      0.185333
     55 H271       78.9100  -52.9120  147.6410 hn        1 HBB      0.298000
     56 H272     -364.7710  225.5000 -655.6800 ha        1 HBB      0.079000
     57 H301     -366.4820  221.7970 -657.2220 hc        1 HBB      0.172833
     58 H302     -365.5610  222.3210 -655.7420 hc        1 HBB      0.172833
     59 H303     -364.8320  222.4890 -657.4140 hc        1 HBB      0.172833
     60 H311     -367.6060  224.2800 -658.6470 hc        1 HBB      0.172833
     61 H312     -365.8540  224.0200 -659.0530 hc        1 HBB      0.172833
     62 H313     -366.4170  225.5870 -658.2900 hc        1 HBB      0.172833
     63 H4         83.6930  -47.2360  148.0820 ha        1 HBB      0.170000
     64 H5         85.8330  -46.7790  149.2670 ha        1 HBB      0.195000
     65 H15        85.3330  -53.2460  154.2140 hn        1 HBB      0.249000
     66 H17        82.1960  -55.3260  155.2230 hc        1 HBB      0.185333
     67 H181       78.9320  -55.4260  152.6620 hc        1 HBB      0.185333
     68 H182       79.0290  -54.8400  154.3760 hc        1 HBB      0.185333
     69 H183       79.1040  -56.6190  154.0570 hc        1 HBB      0.185333
     70 H22        79.2870  -51.8160  150.3680 h1        1 HBB      0.121000
     71 H23        80.0220  -50.6060  147.5600 ha        1 HBB      0.184000
     72 H24        79.6720  -51.8820  145.0050 ho        1 HBB      0.222000
     73 H251       80.2050  -53.0330  145.8440 ho        1 HBB      0.222000
     74 H252       78.0440  -51.2550  149.1560 h1        1 HBB      0.121000
     75 H281     -364.9970  224.4060 -653.4770 ha        1 HBB      0.029500
     76 H282     -367.6320  225.4090 -656.0240 hc        1 HBB      0.213500
     77 H29      -367.2640  223.9710 -654.9840 hc        1 HBB      0.213500
     78 H36        80.4730  -56.1540  148.0800 h1        1 HBB      0.254000
     79 H37        78.3610  -56.8340  149.5270 ha        1 HBB      0.158000
     80 H38        76.8620  -57.7760  147.7500 ha        1 HBB      0.171000
     81 H39        77.1040  -57.0650  145.3910 ha        1 HBB      0.167000
     82 H40        78.7490  -55.2730  144.7590 ha        1 HBB      0.170000
     83 C19        81.7150  -56.1380  154.5790 c3        1 HBB     -0.320500
     84 H261     -364.9450  223.9610 -654.0010 ha        1 HBB      0.029500
     85 H152       86.7250  -52.7340  155.0640 hn        1 HBB      0.249000
     86 H222       83.0020  -53.6950  150.6690 hn        1 HBB      0.271500
@<TRIPOS>BOND
     1    1    2 1   
     2    1   27 1   
     3    1   41 1   
     4    2    3 1   
     5    2   42 1   
     6    3    5 1   
     7    3   17 1   
     8    4    5 1   
     9    4   19 1   
    10    4   43 1   
    11    4   44 1   
    12    6    7 1   
    13    6   20 1   
    14    6   45 1   
    15    6   46 1   
    16    7    8 1   
    17    7   48 1   
    18    7   49 1   
    19    8    9 1   
    20    8   47 1   
    21    8   50 1   
    22    9   21 1   
    23    9   22 1   
    24   10   11 1   
    25   10   23 1   
    26   10   51 1   
    27   10   52 1   
    28   11   25 1   
    29   11   26 1   
    30   12   29 1   
    31   12   32 1   
    32   12   55 1   
    33   13   30 1   
    34   13   56 1   
    35   14   31 1   
    36   14   57 1   
    37   14   58 1   
    38   14   59 1   
    39   15   31 1   
    40   15   60 1   
    41   15   61 1   
    42   15   62 1   
    43   16   32 1   
    44   16   35 1   
    45   16   39 1   
    46   16   78 1   
    47   17   18 1   
    48   17   63 1   
    49   18   19 1   
    50   18   64 1   
    51   19   20 1   
    52   22   65 1   
    53   22   85 1   
    54   23   24 1   
    55   23   83 1   
    56   24   67 1   
    57   24   68 1   
    58   24   69 1   
    59   26   40 1   
    60   26   86 1   
    61   27   29 1   
    62   27   71 1   
    63   28   72 1   
    64   28   73 1   
    65   29   70 1   
    66   29   74 1   
    67   30   31 1   
    68   30   76 1   
    69   30   77 1   
    70   32   33 1   
    71   32   34 1   
    72   35   36 1   
    73   35   79 1   
    74   36   37 1   
    75   36   80 1   
    76   37   38 1   
    77   37   81 1   
    78   38   39 1   
    79   38   82 1   
    80   53   83 1   
    81   54   83 1   
    82   66   83 1   
    83   75   84 1   
@<TRIPOS>SUBSTRUCTURE
     1 HBB         1 TEMP              0 ****  ****    0 ROOT
