@<TRIPOS>MOLECULE
HBB
   86    84     1     0     0
SMALL
bcc


@<TRIPOS>ATOM
      1 C1         -0.5600   -0.5630   -0.5730 c3        1 HBB      0.134500
      2 C2          0.6920   -0.7240    0.3050 c3        1 HBB     -0.056100
      3 C3          0.4260   -0.4370    1.7390 ca        1 HBB     -0.167300
      4 C7          0.1440    1.1920    3.5180 ca        1 HBB     -0.157000
      5 C8          0.2730    0.8890    2.1650 ca        1 HBB     -0.095000
      6 C10         0.5570    1.6160    6.3040 c3        1 HBB      0.126400
      7 C11         1.0850    1.3800    7.7110 c3        1 HBB     -0.093400
      8 C12        -0.0480    1.2710    8.7170 c3        1 HBB     -0.151400
      9 C13         0.4810    0.7870   10.0350 c         1 HBB      0.546100
     10 C16        -3.9720   -2.0640    0.4170 ce        1 HBB     -0.282300
     11 C20        -3.0120   -1.1490   -0.1950 c         1 HBB      0.572300
     12 N26        -2.3040   -1.2030   -3.2200 n3        1 HBB     -0.840200
     13 C27        -2.0060   -2.1230   -4.3180 c3        1 HBB      0.088500
     14 C30        -2.8060    2.6850   -8.4720 c3        1 HBB     -0.129300
     15 C31        -2.2980   -0.8560   -7.7480 c2        1 HBB     -0.193100
     16 C35        -1.5640   -4.7450   -4.8560 ce        1 HBB     -0.676200
     17 C4          0.4270   -1.4660    2.6890 ca        1 HBB     -0.095000
     18 C5          0.3080   -1.1830    4.0460 ca        1 HBB     -0.157000
     19 C6          0.1830    0.1550    4.4590 ca        1 HBB      0.136100
     20 O9          0.0620    0.3560    5.8230 os        1 HBB     -0.344900
     21 O14         1.2530   -0.1280   10.2590 o         1 HBB     -0.379100
     22 N15        -0.0150    1.5100   11.2740 n4        1 HBB     -0.771400
     23 C17        -3.6950   -3.2050    0.9940 c1        1 HBB      0.029200
     24 C18        -3.5540   -4.3460    1.5930 c2        1 HBB     -0.173100
     25 O21        -3.2580   -0.0470   -0.6690 o         1 HBB     -0.434100
     26 N22        -1.5730   -1.6250   -0.2450 n4        1 HBB     -0.674800
     27 C23        -0.1640   -0.5850   -2.0750 c3        1 HBB      0.134100
     28 O24         0.8850    0.3630   -2.1690 oh        1 HBB     -0.579800
     29 C25        -1.3260   -0.1560   -2.9980 c3        1 HBB      0.100800
     30 C28        -2.9180   -2.0000   -5.4960 c2        1 HBB     -0.305300
     31 C29        -2.5770   -1.4240   -6.6170 c1        1 HBB      0.023200
     32 S32        -2.1770   -3.7230   -3.5970 s6        1 HBB      1.692200
     33 O33        -1.2770   -3.8050   -2.5110 o         1 HBB     -0.587200
     34 O34        -3.5030   -4.0640   -3.3630 o         1 HBB     -0.630800
     35 C36        -0.1190   -5.0120   -4.9360 c3        1 HBB     -0.099000
     36 C37         0.3070   -5.9690   -5.9550 c2        1 HBB      0.114800
     37 C38        -0.6020   -6.5840   -6.8030 cf        1 HBB     -0.194000
     38 C39        -1.9600   -6.2950   -6.6960 cf        1 HBB      0.134000
     39 C40        -2.4270   -5.3720   -5.7060 ce        1 HBB     -0.061000
     40 H1         -1.0270    0.4450   -0.3470 hx        1 HBB      0.131700
     41 H21         1.4590    0.0100   -0.0800 hc        1 HBB      0.099700
     42 H22A        1.1300   -1.7490    0.1740 hc        1 HBB      0.099700
     43 H7          0.2750    1.7070    1.4260 ha        1 HBB      0.142000
     44 H8          0.0250    2.2390    3.8360 ha        1 HBB      0.160500
     45 H101       -0.2950    2.3450    6.2960 h1        1 HBB      0.067700
     46 H102        1.3900    1.9940    5.6540 h1        1 HBB      0.067700
     47 H111       -0.7900    0.5000    8.3550 hc        1 HBB      0.111200
     48 H112        1.6970    0.4370    7.7240 hc        1 HBB      0.088700
     49 H121        1.7580    2.2360    7.9810 hc        1 HBB      0.088700
     50 H122       -0.5830    2.2530    8.8070 hc        1 HBB      0.111200
     51 H16         0.3830    1.0810   12.1250 hn        1 HBB      0.475133
     52 H191       -1.0990   -0.1510   13.4170 hc        1 HBB      0.033575
     53 H192       -2.4700    0.9400   12.8970 hc        1 HBB      0.033575
     54 H193       -1.1150    1.6050   13.9280 hc        1 HBB      0.033575
     55 H271       -4.0410    1.1460   -2.6170 ha        1 HBB      0.002500
     56 H272       -0.9430   -1.9670   -4.6660 h2        1 HBB      0.105700
     57 H301       -3.6730    2.1090   -8.8650 hc        1 HBB      0.033575
     58 H302       -2.9530    3.7640   -8.6970 hc        1 HBB      0.033575
     59 H303       -1.8710    2.3340   -8.9590 hc        1 HBB      0.033575
     60 H311       -2.7320    2.5470   -7.3710 hc        1 HBB      0.033575
     61 H312       -2.4670    0.2250   -7.9200 ha        1 HBB      0.176500
     62 H313       -1.8900   -1.4060   -8.6130 ha        1 HBB      0.176500
     63 H4          0.5720   -2.5110    2.3720 ha        1 HBB      0.142000
     64 H5          0.3300   -1.9870    4.7980 ha        1 HBB      0.160500
     65 H15        -1.0390    1.4520   11.3410 hn        1 HBB      0.475133
     66 H17        -5.0190   -1.6910    0.3600 ha        1 HBB      0.220000
     67 H181       -2.3060    0.4390   14.6250 hc        1 HBB      0.033575
     68 H182       -3.3870   -4.4280    2.6820 ha        1 HBB      0.184500
     69 H183       -3.6040   -5.3080    1.0520 ha        1 HBB      0.184500
     70 H22        -1.5040   -2.3930   -0.9310 hn        1 HBB      0.470300
     71 H23         0.2240   -1.6060   -2.3550 h1        1 HBB      0.048700
     72 H24         1.0940    0.4890   -3.1050 ho        1 HBB      0.434000
     73 H251       -0.8800    0.2240   -3.9630 h1        1 HBB      0.085700
     74 H252       -1.8570    0.7200   -2.5140 h1        1 HBB      0.085700
     75 H281       -4.3360    1.5350   -2.1470 ha        1 HBB      0.002500
     76 H282       -3.5230   -5.1960   -5.6370 ha        1 HBB      0.215000
     77 H29        -3.9540   -2.3590   -5.3390 ha        1 HBB      0.173000
     78 H36         0.4560   -4.0410   -5.0980 hc        1 HBB      0.184700
     79 H37         0.2500   -5.3780   -3.9150 hc        1 HBB      0.184700
     80 H38         1.3920   -6.1910   -6.0350 ha        1 HBB      0.204000
     81 H39        -0.2500   -7.3090   -7.5670 ha        1 HBB      0.217000
     82 H40        -2.6970   -6.7800   -7.3710 ha        1 HBB      0.214000
     83 C19        -1.7390    0.7120   13.7040 c3        1 HBB     -0.129300
     84 H261       -3.2140   -0.7860   -3.3570 hn        1 HBB      0.418800
     85 H152        0.2610    2.4960   11.2400 hn        1 HBB      0.475133
     86 H222       -1.3410   -2.0060    0.6830 hn        1 HBB      0.470300
@<TRIPOS>BOND
     1    1    2 1   
     2    1   26 1   
     3    1   27 1   
     4    1   40 1   
     5    2    3 1   
     6    2   41 1   
     7    2   42 1   
     8    3    5 ar  
     9    3   17 ar  
    10    4    5 ar  
    11    4   19 ar  
    12    4   44 1   
    13    5   43 1   
    14    6    7 1   
    15    6   20 1   
    16    6   45 1   
    17    6   46 1   
    18    7    8 1   
    19    7   48 1   
    20    7   49 1   
    21    8    9 1   
    22    8   47 1   
    23    8   50 1   
    24    9   21 2   
    25    9   22 1   
    26   10   11 1   
    27   10   23 2   
    28   10   66 1   
    29   11   25 2   
    30   11   26 1   
    31   12   13 1   
    32   12   29 1   
    33   12   84 1   
    34   13   30 1   
    35   13   32 1   
    36   13   56 1   
    37   14   57 1   
    38   14   58 1   
    39   14   59 1   
    40   14   60 1   
    41   15   31 2   
    42   15   61 1   
    43   15   62 1   
    44   16   32 2   
    45   16   35 1   
    46   16   39 1   
    47   17   18 ar  
    48   17   63 1   
    49   18   19 ar  
    50   18   64 1   
    51   19   20 1   
    52   22   51 1   
    53   22   65 1   
    54   22   85 1   
    55   23   24 2   
    56   24   68 1   
    57   24   69 1   
    58   26   70 1   
    59   26   86 1   
    60   27   28 1   
    61   27   29 1   
    62   27   71 1   
    63   28   72 1   
    64   29   73 1   
    65   29   74 1   
    66   30   31 2   
    67   30   77 1   
    68   32   33 1   
    69   32   34 2   
    70   35   36 1   
    71   35   78 1   
    72   35   79 1   
    73   36   37 2   
    74   36   80 1   
    75   37   38 1   
    76   37   81 1   
    77   38   39 2   
    78   38   82 1   
    79   39   76 1   
    80   52   83 1   
    81   53   83 1   
    82   54   83 1   
    83   55   75 1   
    84   67   83 1   
@<TRIPOS>SUBSTRUCTURE
     1 HBB         1 TEMP              0 ****  ****    0 ROOT
