@<TRIPOS>MOLECULE
HBC
   44    47     1     0     0
SMALL
bcc


@<TRIPOS>ATOM
      1 C1          0.2340    0.1830   -0.0110 ca        1 HBC     -0.229600
      2 C2          1.2750    1.0900   -0.2510 ca        1 HBC     -0.111000
      3 C3          2.0760    1.5240    0.8060 ca        1 HBC     -0.120500
      4 C4          1.8580    1.0380    2.0950 ca        1 HBC     -0.085000
      5 C5          0.8370    0.1140    2.3310 ca        1 HBC     -0.120500
      6 C6          0.0270   -0.3160    1.2820 ca        1 HBC     -0.111000
      7 C7         -2.5790    0.3800   -2.5620 c3        1 HBC     -0.081700
      8 C8         -4.0530    0.8310   -2.5250 c3        1 HBC     -0.104400
      9 C9         -4.8290   -0.4640   -2.2170 c3        1 HBC     -0.096400
     10 C10        -3.7250   -1.5420   -2.1470 c3        1 HBC     -0.064700
     11 C11        -2.7410   -1.0180   -3.2160 c3        1 HBC     -0.082400
     12 C12        -2.9690   -1.3150   -0.8140 c3        1 HBC      0.001600
     13 C13        -2.0900   -0.0330   -1.1250 c3        1 HBC      0.015200
     14 N1         -2.3770    1.0520   -0.1190 n4        1 HBC     -0.830600
     15 C14        -0.5660   -0.2980   -1.1570 c         1 HBC      0.585700
     16 O1         -0.0610   -0.8330   -2.1390 o         1 HBC     -0.441100
     17 C15        -2.4120   -2.8440    1.0600 ca        1 HBC     -0.119500
     18 C16        -2.2360   -2.4980   -0.2910 ca        1 HBC     -0.136300
     19 C17        -1.4440   -3.3210   -1.0980 ca        1 HBC     -0.119500
     20 C18        -0.8310   -4.4560   -0.5670 ca        1 HBC     -0.118500
     21 C19        -1.0070   -4.7880    0.7740 ca        1 HBC     -0.098000
     22 C20        -1.8010   -3.9780    1.5880 ca        1 HBC     -0.118500
     23 H21         1.4740    1.4410   -1.2760 ha        1 HBC      0.153500
     24 H31         2.8950    2.2360    0.6150 ha        1 HBC      0.159500
     25 H41         2.5010    1.3710    2.9260 ha        1 HBC      0.161000
     26 H51         0.6840   -0.2910    3.3440 ha        1 HBC      0.159500
     27 H61        -0.7370   -1.0930    1.4590 ha        1 HBC      0.153500
     28 H71        -1.8850    1.0760   -3.0720 hc        1 HBC      0.097700
     29 H81        -4.2750    1.6490   -1.8030 hc        1 HBC      0.057200
     30 H82        -4.3310    1.2200   -3.5390 hc        1 HBC      0.057200
     31 H91        -5.4100   -0.3890   -1.2680 hc        1 HBC      0.066700
     32 H92        -5.5470   -0.7020   -3.0400 hc        1 HBC      0.066700
     33 H10        -4.0800   -2.5840   -2.2780 hc        1 HBC      0.112700
     34 H111       -1.7900   -1.5870   -3.2980 hc        1 HBC      0.090700
     35 H112       -3.2060   -0.9500   -4.2270 hc        1 HBC      0.090700
     36 H12        -3.7400   -1.0410   -0.0330 hc        1 HBC      0.055700
     37 HN11       -3.3890    1.2030   -0.0580 hn        1 HBC      0.458800
     38 HN12       -2.0150    0.7730    0.8010 hn        1 HBC      0.458800
     39 H15        -3.0570   -2.2320    1.7090 ha        1 HBC      0.134500
     40 H17        -1.2900   -3.0790   -2.1620 ha        1 HBC      0.134500
     41 H18        -0.2090   -5.0930   -1.2170 ha        1 HBC      0.152000
     42 H19        -0.5270   -5.6880    1.1910 ha        1 HBC      0.154000
     43 H20        -1.9550   -4.2420    2.6460 ha        1 HBC      0.152000
     44 H13        -1.9170    1.9170   -0.4130 hn        1 HBC      0.458800
@<TRIPOS>BOND
     1    1    2 ar  
     2    1    6 ar  
     3    1   15 1   
     4    2    3 ar  
     5    2   23 1   
     6    3    4 ar  
     7    3   24 1   
     8    4    5 ar  
     9    4   25 1   
    10    5    6 ar  
    11    5   26 1   
    12    6   27 1   
    13    7    8 1   
    14    7   11 1   
    15    7   13 1   
    16    7   28 1   
    17    8    9 1   
    18    8   29 1   
    19    8   30 1   
    20    9   10 1   
    21    9   31 1   
    22    9   32 1   
    23   10   11 1   
    24   10   12 1   
    25   10   33 1   
    26   11   34 1   
    27   11   35 1   
    28   12   13 1   
    29   12   18 1   
    30   12   36 1   
    31   13   14 1   
    32   13   15 1   
    33   14   37 1   
    34   14   38 1   
    35   14   44 1   
    36   15   16 2   
    37   17   18 ar  
    38   17   22 ar  
    39   17   39 1   
    40   18   19 ar  
    41   19   20 ar  
    42   19   40 1   
    43   20   21 ar  
    44   20   41 1   
    45   21   22 ar  
    46   21   42 1   
    47   22   43 1   
@<TRIPOS>SUBSTRUCTURE
     1 HBC         1 TEMP              0 ****  ****    0 ROOT
