@<TRIPOS>MOLECULE
HBC
   44    47     1     0     0
SMALL
bcc


@<TRIPOS>ATOM
      1 C1          0.2120    0.2140    0.0090 ca        1 HBC     -0.229600
      2 C2          1.2350    1.1430   -0.2190 ca        1 HBC     -0.111000
      3 C3          2.0220    1.5840    0.8450 ca        1 HBC     -0.120500
      4 C4          1.8080    1.0850    2.1290 ca        1 HBC     -0.085000
      5 C5          0.8050    0.1380    2.3520 ca        1 HBC     -0.120500
      6 C6          0.0080   -0.3000    1.2960 ca        1 HBC     -0.111000
      7 C7         -2.5900    0.3790   -2.5560 c3        1 HBC     -0.081700
      8 C8         -4.0720    0.8020   -2.5250 c3        1 HBC     -0.104400
      9 C9         -4.8260   -0.5090   -2.2320 c3        1 HBC     -0.096400
     10 C10        -3.7020   -1.5680   -2.1650 c3        1 HBC     -0.064700
     11 C11        -2.7220   -1.0160   -3.2230 c3        1 HBC     -0.082400
     12 C12        -2.9590   -1.3380   -0.8250 c3        1 HBC      0.001600
     13 C13        -2.1020   -0.0380   -1.1200 c3        1 HBC      0.015200
     14 N1         -2.4150    1.0330   -0.1060 n4        1 HBC     -0.830600
     15 C14        -0.5730   -0.2750   -1.1450 c         1 HBC      0.585700
     16 O1         -0.0530   -0.7940   -2.1270 o         1 HBC     -0.441100
     17 C15        -2.3810   -2.8700    1.0400 ca        1 HBC     -0.119500
     18 C16        -2.2070   -2.5120   -0.3080 ca        1 HBC     -0.136300
     19 C17        -1.3980   -3.3150   -1.1190 ca        1 HBC     -0.119500
     20 C18        -0.7670   -4.4440   -0.5940 ca        1 HBC     -0.118500
     21 C19        -0.9420   -4.7880    0.7460 ca        1 HBC     -0.098000
     22 C20        -1.7520   -3.9970    1.5620 ca        1 HBC     -0.118500
     23 H21         1.4320    1.5060   -1.2410 ha        1 HBC      0.153500
     24 H31         2.8280    2.3150    0.6630 ha        1 HBC      0.159500
     25 H41         2.4400    1.4230    2.9660 ha        1 HBC      0.161000
     26 H51         0.6550   -0.2790    3.3610 ha        1 HBC      0.159500
     27 H61        -0.7410   -1.0940    1.4630 ha        1 HBC      0.153500
     28 H71        -1.9050    1.0920   -3.0560 hc        1 HBC      0.097700
     29 H81        -4.3130    1.6090   -1.7970 hc        1 HBC      0.057200
     30 H82        -4.3510    1.1950   -3.5360 hc        1 HBC      0.057200
     31 H91        -5.5340   -0.7530   -3.0610 hc        1 HBC      0.066700
     32 H92        -5.4140   -0.4540   -1.2860 hc        1 HBC      0.066700
     33 H10        -4.0380   -2.6140   -2.3070 hc        1 HBC      0.112700
     34 H111       -3.1820   -0.9480   -4.2370 hc        1 HBC      0.090700
     35 H112       -1.7600   -1.5670   -3.3050 hc        1 HBC      0.090700
     36 H12        -3.7390   -1.0860   -0.0470 hc        1 HBC      0.055700
     37 HN11       -1.9690    1.9090   -0.3900 hn        1 HBC      0.458800
     38 HN12       -2.0530    0.7520    0.8140 hn        1 HBC      0.458800
     39 H15        -3.0390   -2.2740    1.6910 ha        1 HBC      0.134500
     40 H17        -1.2460   -3.0640   -2.1800 ha        1 HBC      0.134500
     41 H18        -0.1330   -5.0650   -1.2460 ha        1 HBC      0.152000
     42 H19        -0.4480   -5.6820    1.1570 ha        1 HBC      0.154000
     43 H20        -1.9040   -4.2710    2.6180 ha        1 HBC      0.152000
     44 H13        -3.4290    1.1650   -0.0500 hn        1 HBC      0.458800
@<TRIPOS>BOND
     1    1    2 ar  
     2    1    6 ar  
     3    1   15 1   
     4    2    3 ar  
     5    2   23 1   
     6    3    4 ar  
     7    3   24 1   
     8    4    5 ar  
     9    4   25 1   
    10    5    6 ar  
    11    5   26 1   
    12    6   27 1   
    13    7    8 1   
    14    7   11 1   
    15    7   13 1   
    16    7   28 1   
    17    8    9 1   
    18    8   29 1   
    19    8   30 1   
    20    9   10 1   
    21    9   31 1   
    22    9   32 1   
    23   10   11 1   
    24   10   12 1   
    25   10   33 1   
    26   11   34 1   
    27   11   35 1   
    28   12   13 1   
    29   12   18 1   
    30   12   36 1   
    31   13   14 1   
    32   13   15 1   
    33   14   37 1   
    34   14   38 1   
    35   14   44 1   
    36   15   16 2   
    37   17   18 ar  
    38   17   22 ar  
    39   17   39 1   
    40   18   19 ar  
    41   19   20 ar  
    42   19   40 1   
    43   20   21 ar  
    44   20   41 1   
    45   21   22 ar  
    46   21   42 1   
    47   22   43 1   
@<TRIPOS>SUBSTRUCTURE
     1 HBC         1 TEMP              0 ****  ****    0 ROOT
