@<TRIPOS>MOLECULE
HBC
   43    46     1     0     0
SMALL
bcc


@<TRIPOS>ATOM
      1 C1          1.3760   -0.3510    1.4040 ca        1 HBC     -0.172600
      2 C2          2.5120   -0.9900    1.9140 ca        1 HBC     -0.101500
      3 C3          3.0770   -0.5600    3.1140 ca        1 HBC     -0.134500
      4 C4          2.5010    0.4980    3.8170 ca        1 HBC     -0.114000
      5 C5          1.3580    1.1250    3.3210 ca        1 HBC     -0.134500
      6 C6          0.7960    0.7040    2.1160 ca        1 HBC     -0.101500
      7 C7          1.1050   -0.6440   -2.3680 c3        1 HBC     -0.054700
      8 C8          1.1940    0.3390   -3.5530 c3        1 HBC     -0.075400
      9 C9         -0.2720    0.7430   -3.8080 c3        1 HBC     -0.079400
     10 C10        -1.0540   -0.0440   -2.7330 c3        1 HBC     -0.067700
     11 C11        -0.2330   -1.3520   -2.6880 c3        1 HBC     -0.094400
     12 C12        -0.7380    0.6320   -1.3760 c3        1 HBC     -0.006400
     13 C13         0.7390    0.1500   -1.0550 c3        1 HBC      0.099200
     14 N1          1.6180    1.2900   -0.8550 n3        1 HBC     -0.896800
     15 C14         0.7880   -0.8410    0.1280 c         1 HBC      0.553700
     16 O1          0.4330   -2.0180    0.0280 o         1 HBC     -0.516100
     17 C15        -2.1910    1.5020    0.4440 ca        1 HBC     -0.124500
     18 C16        -1.7630    0.4040   -0.3210 ca        1 HBC     -0.089300
     19 C17        -2.3630   -0.8410   -0.0980 ca        1 HBC     -0.124500
     20 C18        -3.3600   -0.9870    0.8670 ca        1 HBC     -0.131000
     21 C19        -3.7740    0.1090    1.6210 ca        1 HBC     -0.127000
     22 C20        -3.1860    1.3550    1.4070 ca        1 HBC     -0.131000
     23 H21         2.9490   -1.8410    1.3690 ha        1 HBC      0.145500
     24 H31         3.9730   -1.0620    3.5080 ha        1 HBC      0.136500
     25 H41         2.9450    0.8340    4.7660 ha        1 HBC      0.135000
     26 H51         0.8940    1.9500    3.8810 ha        1 HBC      0.136500
     27 H61        -0.1190    1.1870    1.7330 ha        1 HBC      0.145500
     28 H71         1.9860   -1.3010   -2.2430 hc        1 HBC      0.068700
     29 H81         1.8360    1.2240   -3.3410 hc        1 HBC      0.051700
     30 H82         1.6180   -0.1900   -4.4420 hc        1 HBC      0.051700
     31 H91        -0.4190    1.8440   -3.7100 hc        1 HBC      0.044700
     32 H92        -0.6010    0.4350   -4.8290 hc        1 HBC      0.044700
     33 H10        -2.1370   -0.1550   -2.9340 hc        1 HBC      0.074700
     34 H111       -0.2070   -1.8690   -3.6750 hc        1 HBC      0.064200
     35 H112       -0.5580   -2.0770   -1.9130 hc        1 HBC      0.064200
     36 H12        -0.7000    1.7470   -1.5570 hc        1 HBC      0.072700
     37 HN11        1.3350    1.8150   -0.0500 hn        1 HBC      0.356800
     38 HN12        2.5620    0.9820   -0.7380 hn        1 HBC      0.356800
     39 H15        -1.7420    2.4930    0.2750 ha        1 HBC      0.139000
     40 H17        -2.0390   -1.7190   -0.6780 ha        1 HBC      0.139000
     41 H18        -3.8170   -1.9740    1.0310 ha        1 HBC      0.132000
     42 H19        -4.5610   -0.0070    2.3800 ha        1 HBC      0.132000
     43 H20        -3.5100    2.2250    1.9960 ha        1 HBC      0.132000
@<TRIPOS>BOND
     1    1    2 ar  
     2    1    6 ar  
     3    1   15 1   
     4    2    3 ar  
     5    2   23 1   
     6    3    4 ar  
     7    3   24 1   
     8    4    5 ar  
     9    4   25 1   
    10    5    6 ar  
    11    5   26 1   
    12    6   27 1   
    13    7    8 1   
    14    7   11 1   
    15    7   13 1   
    16    7   28 1   
    17    8    9 1   
    18    8   29 1   
    19    8   30 1   
    20    9   10 1   
    21    9   31 1   
    22    9   32 1   
    23   10   11 1   
    24   10   12 1   
    25   10   33 1   
    26   11   34 1   
    27   11   35 1   
    28   12   13 1   
    29   12   18 1   
    30   12   36 1   
    31   13   14 1   
    32   13   15 1   
    33   14   37 1   
    34   14   38 1   
    35   15   16 2   
    36   17   18 ar  
    37   17   22 ar  
    38   17   39 1   
    39   18   19 ar  
    40   19   20 ar  
    41   19   40 1   
    42   20   21 ar  
    43   20   41 1   
    44   21   22 ar  
    45   21   42 1   
    46   22   43 1   
@<TRIPOS>SUBSTRUCTURE
     1 HBC         1 TEMP              0 ****  ****    0 ROOT
