@<TRIPOS>MOLECULE
HBC
   44    47     1     0     0
SMALL
bcc


@<TRIPOS>ATOM
      1 C1          0.1730    0.2580    0.0480 ca        1 HBC     -0.229600
      2 C2          1.1700    1.2230   -0.1500 ca        1 HBC     -0.111000
      3 C3          1.9350    1.6630    0.9300 ca        1 HBC     -0.120500
      4 C4          1.7240    1.1290    2.2010 ca        1 HBC     -0.085000
      5 C5          0.7490    0.1470    2.3940 ca        1 HBC     -0.120500
      6 C6         -0.0250   -0.2910    1.3220 ca        1 HBC     -0.111000
      7 C7         -2.6120    0.3930   -2.5380 c3        1 HBC     -0.081700
      8 C8         -4.1060    0.7690   -2.5090 c3        1 HBC     -0.104400
      9 C9         -4.8220   -0.5710   -2.2520 c3        1 HBC     -0.096400
     10 C10        -3.6660   -1.5960   -2.1970 c3        1 HBC     -0.064700
     11 C11        -2.6950   -0.9910   -3.2350 c3        1 HBC     -0.082400
     12 C12        -2.9400   -1.3720   -0.8470 c3        1 HBC      0.001600
     13 C13        -2.1230   -0.0400   -1.1070 c3        1 HBC      0.015200
     14 N1         -2.4760    0.9990   -0.0720 nz        1 HBC     -0.830600
     15 C14        -0.5870   -0.2290   -1.1230 c         1 HBC      0.585700
     16 O1         -0.0430   -0.7090   -2.1130 o         1 HBC     -0.441100
     17 C15        -2.3320   -2.9270    0.9890 ca        1 HBC     -0.119500
     18 C16        -2.1560   -2.5330   -0.3490 ca        1 HBC     -0.136300
     19 C17        -1.3150   -3.2920   -1.1700 ca        1 HBC     -0.119500
     20 C18        -0.6540   -4.4120   -0.6640 ca        1 HBC     -0.118500
     21 C19        -0.8290   -4.7920    0.6650 ca        1 HBC     -0.098000
     22 C20        -1.6720   -4.0460    1.4910 ca        1 HBC     -0.118500
     23 H21         1.3640    1.6140   -1.1620 ha        1 HBC      0.153500
     24 H31         2.7190    2.4210    0.7710 ha        1 HBC      0.159500
     25 H41         2.3400    1.4680    3.0510 ha        1 HBC      0.161000
     26 H51         0.6040   -0.2960    3.3920 ha        1 HBC      0.159500
     27 H61        -0.7500   -1.1110    1.4640 ha        1 HBC      0.153500
     28 H71        -1.9460    1.1380   -3.0160 hc        1 HBC      0.097700
     29 H81        -4.3780    1.5520   -1.7660 hc        1 HBC      0.057200
     30 H82        -4.3900    1.1760   -3.5140 hc        1 HBC      0.057200
     31 H91        -5.4180   -0.5540   -1.3100 hc        1 HBC      0.066700
     32 H92        -5.5160   -0.8190   -3.0920 hc        1 HBC      0.066700
     33 H10        -3.9680   -2.6480   -2.3660 hc        1 HBC      0.112700
     34 H111       -3.1490   -0.9140   -4.2510 hc        1 HBC      0.090700
     35 H112       -1.7160   -1.5100   -3.3210 hc        1 HBC      0.090700
     36 H12        -3.7350   -1.1610   -0.0700 hc        1 HBC      0.055700
     37 HN11       -3.4950    1.0980   -0.0220 hn        1 HBC      0.458800
     38 HN12       -2.1130    0.7090    0.8440 hn        1 HBC      0.458800
     39 H15        -3.0140   -2.3670    1.6460 ha        1 HBC      0.134500
     40 H17        -1.1620   -3.0120   -2.2230 ha        1 HBC      0.134500
     41 H18         0.0060   -4.9980   -1.3240 ha        1 HBC      0.152000
     42 H19        -0.3110   -5.6790    1.0620 ha        1 HBC      0.154000
     43 H20        -1.8250   -4.3480    2.5390 ha        1 HBC      0.152000
     44 H13        -2.0560    1.8940   -0.3340 hn        1 HBC      0.458800
@<TRIPOS>BOND
     1    1    2 ar  
     2    1    6 ar  
     3    1   15 1   
     4    2    3 ar  
     5    2   23 1   
     6    3    4 ar  
     7    3   24 1   
     8    4    5 ar  
     9    4   25 1   
    10    5    6 ar  
    11    5   26 1   
    12    6   27 1   
    13    7    8 1   
    14    7   11 1   
    15    7   13 1   
    16    7   28 1   
    17    8    9 1   
    18    8   29 1   
    19    8   30 1   
    20    9   10 1   
    21    9   31 1   
    22    9   32 1   
    23   10   11 1   
    24   10   12 1   
    25   10   33 1   
    26   11   34 1   
    27   11   35 1   
    28   12   13 1   
    29   12   18 1   
    30   12   36 1   
    31   13   14 1   
    32   13   15 1   
    33   14   37 1   
    34   14   38 1   
    35   14   44 1   
    36   15   16 2   
    37   17   18 ar  
    38   17   22 ar  
    39   17   39 1   
    40   18   19 ar  
    41   19   20 ar  
    42   19   40 1   
    43   20   21 ar  
    44   20   41 1   
    45   21   22 ar  
    46   21   42 1   
    47   22   43 1   
@<TRIPOS>SUBSTRUCTURE
     1 HBC         1 TEMP              0 ****  ****    0 ROOT
