@<TRIPOS>MOLECULE
HBC
   43    40     1     0     0
SMALL
bcc


@<TRIPOS>ATOM
      1 C1          0.1910   -0.1120    2.7740 cg        1 HBC     -0.123200
      2 C2         -0.4180   -0.0920    4.0470 c1        1 HBC     -0.067875
      3 C3          0.3170   -0.3540    5.1580 c1        1 HBC     -0.067875
      4 C4          1.6900   -0.6460    5.0390 c1        1 HBC     -0.067875
      5 C5          2.2910   -0.6670    3.7840 c1        1 HBC     -0.067875
      6 C6          1.5410   -0.4000    2.6580 c1        1 HBC     -0.045500
      7 C7          1.0140    1.1320   -0.0140 c3        1 HBC     -0.057700
      8 C8          0.6060    2.4830    0.1840 c3        1 HBC     -0.091400
      9 C9         -0.3660    2.8230   -0.8420 c3        1 HBC     -0.081400
     10 C10        -0.5640    1.6780   -1.6660 c3        1 HBC     -0.069700
     11 C11         0.9930    1.2590   -1.6620 c3        1 HBC     -0.080400
     12 C12        -0.9770    0.5230   -1.0070 c3        1 HBC     -0.050600
     13 C13         0.0370    0.1950    0.0330 c3        1 HBC      0.105200
     14 N1          0.6210   -1.1590   -0.2250 n3        1 HBC     -0.902800
     15 C14        -0.6580    0.2150    1.4930 c         1 HBC      0.495300
     16 O1         -1.9030    0.4480    1.6010 o         1 HBC     -0.523100
     17 C15        -2.2680   -1.4970   -2.0800 c1        1 HBC     -0.067875
     18 C16        -1.1010   -0.7050   -2.0630 c1        1 HBC     -0.035100
     19 C17        -0.1210   -0.8900   -3.0350 c1        1 HBC     -0.052500
     20 C18        -0.2960   -1.8740   -4.0400 c1        1 HBC     -0.067875
     21 C19        -1.4280   -2.6410   -4.0560 c1        1 HBC     -0.067875
     22 C20        -2.4380   -2.4470   -3.0500 c1        1 HBC     -0.067875
     23 H21        -1.3080    0.0960    4.1240 ha        1 HBC      0.077625
     24 H31        -0.0760   -0.3410    5.9770 ha        1 HBC      0.077625
     25 H41         2.2100   -0.8320    5.8260 ha        1 HBC      0.077625
     26 H51         3.3100   -0.8840    3.6930 ha        1 HBC      0.077625
     27 H61         1.9850   -0.4150    1.7260 ha        1 HBC      0.082500
     28 H71         1.8280    0.8940    0.3280 hc        1 HBC      0.066700
     29 H81         0.1940    2.5860    1.0890 hc        1 HBC      0.051200
     30 H82         1.2980    3.0090    0.1150 hc        1 HBC      0.051200
     31 H91        -0.0020    3.6160   -1.4200 hc        1 HBC      0.049700
     32 H92        -1.1750    3.0680   -0.4420 hc        1 HBC      0.049700
     33 H10        -0.9640    1.8470   -2.6340 hc        1 HBC      0.074700
     34 H111        1.5930    1.9990   -1.9960 hc        1 HBC      0.058700
     35 H112        1.1480    0.4300   -2.0920 hc        1 HBC      0.058700
     36 H12        -1.8130    0.6720   -0.5980 hc        1 HBC      0.085700
     37 HN11        0.1990   -1.8030    0.3580 hn        1 HBC      0.362800
     38 HN12        1.4630   -1.1420   -0.0650 hn        1 HBC      0.362800
     39 H15        -2.9420   -1.3720   -1.4080 ha        1 HBC      0.077625
     40 H17         0.6370   -0.3760   -3.0250 ha        1 HBC      0.080500
     41 H18         0.3990   -2.0050   -4.7310 ha        1 HBC      0.077625
     42 H19        -1.5560   -3.3680   -4.7960 ha        1 HBC      0.077625
     43 H20        -3.1910   -2.9530   -3.0600 ha        1 HBC      0.077625
@<TRIPOS>BOND
     1    1    6 3   
     2    1   15 1   
     3    2    3 3   
     4    2   23 1   
     5    3   24 1   
     6    4    5 3   
     7    4   25 1   
     8    5   26 1   
     9    6   27 1   
    10    7    8 1   
    11    7   11 1   
    12    7   13 1   
    13    7   28 1   
    14    8    9 1   
    15    8   29 1   
    16    8   30 1   
    17    9   10 1   
    18    9   31 1   
    19    9   32 1   
    20   10   11 1   
    21   10   12 1   
    22   10   33 1   
    23   11   34 1   
    24   11   35 1   
    25   12   13 1   
    26   12   18 1   
    27   12   36 1   
    28   13   14 1   
    29   13   15 1   
    30   14   37 1   
    31   14   38 1   
    32   15   16 2   
    33   17   22 3   
    34   17   39 1   
    35   18   19 3   
    36   19   40 1   
    37   20   21 3   
    38   20   41 1   
    39   21   42 1   
    40   22   43 1   
@<TRIPOS>SUBSTRUCTURE
     1 HBC         1 TEMP              0 ****  ****    0 ROOT
