@<TRIPOS>MOLECULE
HBD
   18    18     1     0     0
SMALL
bcc


@<TRIPOS>ATOM
      1 C1         -0.0170   -0.0310    0.0230 ca        1 HBD     -0.264600
      2 C2          1.3950   -0.0780    0.0590 ca        1 HBD     -0.014500
      3 C3          2.0670   -0.1270    1.2700 ca        1 HBD     -0.193500
      4 C4          1.3330   -0.1290    2.4700 ca        1 HBD      0.230100
      5 C5         -0.0840   -0.0820    2.4460 ca        1 HBD     -0.193500
      6 C6         -0.7420   -0.0340    1.2340 ca        1 HBD     -0.014500
      7 C1'        -0.6240    0.0180   -1.2890 c         1 HBD      0.582700
      8 O1'        -0.1030    0.0250   -2.3970 o         1 HBD     -0.431100
      9 N1'        -2.1470    0.0690   -1.3510 n4        1 HBD     -0.763400
     10 O4          1.9060   -0.1750    3.6990 oh        1 HBD     -0.451100
     11 H2          1.9630   -0.0760   -0.8890 ha        1 HBD      0.151000
     12 H3          3.1680   -0.1640    1.2910 ha        1 HBD      0.180000
     13 H5         -0.6350   -0.0850    3.4010 ha        1 HBD      0.180000
     14 H6         -1.8420    0.0020    1.2490 ha        1 HBD      0.151000
     15 HN'1       -2.4500    0.1000   -2.3330 hn        1 HBD      0.465467
     16 HN'2       -2.4870    0.9030   -0.8670 hn        1 HBD      0.465467
     17 HO4         2.8750   -0.2040    3.6050 ho        1 HBD      0.455000
     18 H1'3       -2.5420   -0.7620   -0.9030 hn        1 HBD      0.465467
@<TRIPOS>BOND
     1    1    2 ar  
     2    1    6 ar  
     3    1    7 1   
     4    2    3 ar  
     5    2   11 1   
     6    3    4 ar  
     7    3   12 1   
     8    4    5 ar  
     9    4   10 1   
    10    5    6 ar  
    11    5   13 1   
    12    6   14 1   
    13    7    8 2   
    14    7    9 1   
    15    9   15 1   
    16    9   16 1   
    17    9   18 1   
    18   10   17 1   
@<TRIPOS>SUBSTRUCTURE
     1 HBD         1 TEMP              0 ****  ****    0 ROOT
