@<TRIPOS>MOLECULE
HBD
   18    18     1     0     0
SMALL
bcc


@<TRIPOS>ATOM
      1 C1         -0.0190   -0.0380    0.0240 ca        1 HBD     -0.264600
      2 C2          1.3910   -0.1070    0.0530 ca        1 HBD     -0.014500
      3 C3          2.0680   -0.1480    1.2620 ca        1 HBD     -0.193500
      4 C4          1.3400   -0.1200    2.4650 ca        1 HBD      0.230100
      5 C5         -0.0760   -0.0510    2.4470 ca        1 HBD     -0.193500
      6 C6         -0.7380   -0.0110    1.2370 ca        1 HBD     -0.014500
      7 C1'        -0.6310   -0.0000   -1.2870 c         1 HBD      0.582700
      8 O1'        -0.1170   -0.0170   -2.3970 o         1 HBD     -0.431100
      9 N1'        -2.1550    0.0730   -1.3420 nz        1 HBD     -0.763400
     10 O4          1.9190   -0.1570    3.6920 oh        1 HBD     -0.451100
     11 H2          1.9550   -0.1290   -0.8970 ha        1 HBD      0.151000
     12 H3          3.1690   -0.2020    1.2780 ha        1 HBD      0.180000
     13 H5         -0.6220   -0.0310    3.4050 ha        1 HBD      0.180000
     14 H6         -1.8380    0.0430    1.2570 ha        1 HBD      0.151000
     15 HN'1       -2.4620    0.0950   -2.3230 hn        1 HBD      0.465467
     16 HN'2       -2.4800    0.9200   -0.8690 hn        1 HBD      0.465467
     17 HO4         2.8860   -0.2030    3.5940 ho        1 HBD      0.455000
     18 H1'3       -2.5600   -0.7440   -0.8800 hn        1 HBD      0.465467
@<TRIPOS>BOND
     1    1    2 ar  
     2    1    6 ar  
     3    1    7 1   
     4    2    3 ar  
     5    2   11 1   
     6    3    4 ar  
     7    3   12 1   
     8    4    5 ar  
     9    4   10 1   
    10    5    6 ar  
    11    5   13 1   
    12    6   14 1   
    13    7    8 2   
    14    7    9 1   
    15    9   15 1   
    16    9   16 1   
    17    9   18 1   
    18   10   17 1   
@<TRIPOS>SUBSTRUCTURE
     1 HBD         1 TEMP              0 ****  ****    0 ROOT
