@<TRIPOS>MOLECULE
HBD
   18    18     1     0     0
SMALL
bcc


@<TRIPOS>ATOM
      1 C1         -0.0170   -0.0410    0.0230 ca        1 HBD     -0.264600
      2 C2          1.3930   -0.1130    0.0590 ca        1 HBD     -0.014500
      3 C3          2.0660   -0.1500    1.2700 ca        1 HBD     -0.193500
      4 C4          1.3330   -0.1150    2.4700 ca        1 HBD      0.230100
      5 C5         -0.0830   -0.0430    2.4470 ca        1 HBD     -0.193500
      6 C6         -0.7410   -0.0060    1.2340 ca        1 HBD     -0.014500
      7 C1'        -0.6240   -0.0060   -1.2900 c         1 HBD      0.582700
      8 O1'        -0.1050   -0.0290   -2.3980 o         1 HBD     -0.431100
      9 N1'        -2.1470    0.0690   -1.3510 n4        1 HBD     -0.763400
     10 O4          1.9070   -0.1470    3.6990 oh        1 HBD     -0.451100
     11 H2          1.9610   -0.1390   -0.8890 ha        1 HBD      0.151000
     12 H3          3.1660   -0.2060    1.2910 ha        1 HBD      0.180000
     13 H5         -0.6320   -0.0170    3.4020 ha        1 HBD      0.180000
     14 H6         -1.8400    0.0500    1.2490 ha        1 HBD      0.151000
     15 HN'1       -2.4500    0.0860   -2.3330 hn        1 HBD      0.465467
     16 HN'2       -2.4730    0.9180   -0.8830 hn        1 HBD      0.465467
     17 HO4         2.8740   -0.1960    3.6050 ho        1 HBD      0.455000
     18 H1'3       -2.5550   -0.7460   -0.8870 hn        1 HBD      0.465467
@<TRIPOS>BOND
     1    1    2 ar  
     2    1    6 ar  
     3    1    7 1   
     4    2    3 ar  
     5    2   11 1   
     6    3    4 ar  
     7    3   12 1   
     8    4    5 ar  
     9    4   10 1   
    10    5    6 ar  
    11    5   13 1   
    12    6   14 1   
    13    7    8 2   
    14    7    9 1   
    15    9   15 1   
    16    9   16 1   
    17    9   18 1   
    18   10   17 1   
@<TRIPOS>SUBSTRUCTURE
     1 HBD         1 TEMP              0 ****  ****    0 ROOT
