@<TRIPOS>MOLECULE
HBD
   17    14     1     0     0
SMALL
bcc


@<TRIPOS>ATOM
      1 C1         -0.1720    0.0340   -0.7010 cg        1 HBD     -0.128200
      2 C2          1.2140    0.0340   -0.7010 c1        1 HBD     -0.047500
      3 C3          1.9070    0.0340    0.4990 c1        1 HBD     -0.047500
      4 C4          1.2140    0.0340    1.7000 c1        1 HBD      0.130600
      5 C5         -0.1720    0.0340    1.7000 c1        1 HBD     -0.168500
      6 C6         -0.8650    0.0340    0.4990 c1        1 HBD     -0.005500
      7 C1'        -0.9280    0.0650   -2.0110 c         1 HBD      0.623300
      8 O1'        -0.3210    0.0900   -3.0630 o         1 HBD     -0.612100
      9 N1'        -2.3470    0.0690   -2.0110 n         1 HBD     -0.675000
     10 O4          1.9170    0.0620    2.9180 oh        1 HBD     -0.475600
     11 H2          1.7020    0.0340   -1.5460 ha        1 HBD      0.101500
     12 H3          2.8830    0.0340    0.4990 ha        1 HBD      0.101500
     13 H5         -0.6600    0.0340    2.5450 ha        1 HBD      0.080500
     14 H6         -1.8410    0.0340    0.5000 ha        1 HBD      0.077500
     15 HN'1       -2.8010    0.6920   -2.4980 hn        1 HBD      0.311000
     16 HN'2       -2.8050   -0.5470   -1.5190 hn        1 HBD      0.311000
     17 HO4         2.0740   -0.7690    3.1890 ho        1 HBD      0.422000
@<TRIPOS>BOND
     1    1    6 3   
     2    1    7 1   
     3    2    3 3   
     4    2   11 1   
     5    3   12 1   
     6    4    5 3   
     7    4   10 1   
     8    5   13 1   
     9    6   14 1   
    10    7    8 2   
    11    7    9 1   
    12    9   15 1   
    13    9   16 1   
    14   10   17 1   
@<TRIPOS>SUBSTRUCTURE
     1 HBD         1 TEMP              0 ****  ****    0 ROOT
