@<TRIPOS>MOLECULE
HBD
   17    17     1     0     0
SMALL
bcc


@<TRIPOS>ATOM
      1 C1         -0.0060    0.1360    0.6630 ca        1 HBD     -0.179600
      2 C2         -1.2240   -0.0560   -0.0070 ca        1 HBD     -0.053500
      3 C3         -1.2690   -0.0950   -1.3940 ca        1 HBD     -0.196000
      4 C4         -0.0760    0.0740   -2.1200 ca        1 HBD      0.147100
      5 C5          1.1440    0.2840   -1.4600 ca        1 HBD     -0.196000
      6 C6          1.1710    0.3140   -0.0680 ca        1 HBD     -0.053500
      7 C1'        -0.0310    0.1740    2.1510 c         1 HBD      0.674700
      8 O1'        -1.0160    0.6110    2.7840 o         1 HBD     -0.612100
      9 N1'         1.0640   -0.2960    2.8370 n         1 HBD     -0.675000
     10 O4         -0.1800    0.0240   -3.4890 oh        1 HBD     -0.492100
     11 H2         -2.1490   -0.1670    0.5840 ha        1 HBD      0.148000
     12 H3         -2.2150   -0.2490   -1.9320 ha        1 HBD      0.147500
     13 H5          2.0680    0.4280   -2.0370 ha        1 HBD      0.147500
     14 H6          2.1290    0.4970    0.4410 ha        1 HBD      0.148000
     15 HN'1        1.0430   -0.3120    3.8260 hn        1 HBD      0.311000
     16 HN'2        1.8120   -0.7330    2.3670 hn        1 HBD      0.311000
     17 HO4         0.7010    0.1700   -3.8630 ho        1 HBD      0.422000
@<TRIPOS>BOND
     1    1    2 ar  
     2    1    6 ar  
     3    1    7 1   
     4    2    3 ar  
     5    2   11 1   
     6    3    4 ar  
     7    3   12 1   
     8    4    5 ar  
     9    4   10 1   
    10    5    6 ar  
    11    5   13 1   
    12    6   14 1   
    13    7    8 2   
    14    7    9 1   
    15    9   15 1   
    16    9   16 1   
    17   10   17 1   
@<TRIPOS>SUBSTRUCTURE
     1 HBD         1 TEMP              0 ****  ****    0 ROOT
