@<TRIPOS>MOLECULE
HBH
   81    78     1     0     0
SMALL
bcc


@<TRIPOS>ATOM
      1 C1          0.4180    1.0820   -2.3340 c3        1 HBH      0.003000
      2 C2          1.9510    1.0460   -2.3680 c3        1 HBH     -0.144000
      3 C3          2.5330    1.2030   -0.9280 c2        1 HBH     -0.086000
      4 C7          2.8820    0.3890    1.4240 c1        1 HBH     -0.142000
      5 C8          2.8100    0.1390   -0.0450 c2        1 HBH     -0.108000
      6 C10         2.9450    3.3170    3.5830 c3        1 HBH     -0.028000
      7 C11         1.5150    3.4790    4.2280 c3        1 HBH     -0.191000
      8 C12         0.5980    4.3180    3.2690 c3        1 HBH     -0.180000
      9 C13         0.6690    3.7170    1.8270 c2        1 HBH      0.315000
     10 C16        -0.6580    3.7560   -0.1730 c3        1 HBH      0.028000
     11 C20         0.3960    2.8590   -0.7830 c2        1 HBH      0.285000
     12 N26        -1.2010   -2.0340   -1.0690 n3        1 HBH     -0.825000
     13 C27        -1.1100   -2.2960    0.3820 c3        1 HBH     -0.031000
     14 C30        -1.2740   -4.8760    2.8440 c3        1 HBH     -0.209000
     15 C31         1.0810   -4.6810    2.0110 c3        1 HBH     -0.209000
     16 C35        -2.3480   -4.2270   -2.5950 c1        1 HBH     -0.819000
     17 C4          3.2050    2.5620   -0.3360 c1        1 HBH     -0.124000
     18 C5          3.6150    2.6150    1.0060 c1        1 HBH     -0.145000
     19 C6          3.2110    1.6340    1.8890 c1        1 HBH      0.042000
     20 O9          3.2180    1.9000    3.3410 os        1 HBH     -0.224000
     21 O14         1.5980    3.9960    1.0930 o         1 HBH     -0.402000
     22 N15        -0.6920    3.5440    1.2700 n         1 HBH     -0.366000
     23 C17        -0.3300    5.1870   -0.4620 c3        1 HBH     -0.193000
     24 C18        -1.6240    6.0100   -0.5010 c2        1 HBH      0.301000
     25 O19        -2.6840    5.4840   -0.2420 o         1 HBH     -0.382000
     26 N19        -1.5750    7.4260   -0.8280 n         1 HBH     -0.422000
     27 O21         1.0330    2.1050   -0.0770 o         1 HBH     -0.400000
     28 N22        -0.0300    2.4350   -2.0880 n         1 HBH     -0.351000
     29 C23        -0.0810    0.1850   -1.2510 c3        1 HBH      0.023000
     30 O24         0.7590    0.2780   -0.1440 oh        1 HBH     -0.345000
     31 C25        -0.1060   -1.2800   -1.7620 c3        1 HBH     -0.009000
     32 C28        -0.8240   -3.7950    0.6200 c3        1 HBH     -0.176000
     33 C29        -0.2970   -3.9950    2.0590 c3        1 HBH     -0.104000
     34 S32        -2.6020   -2.5640   -1.9680 s4        1 HBH      2.055800
     35 O33        -2.9150   -1.6480   -3.0340 o         1 HBH     -0.539900
     36 O34        -3.8000   -2.4840   -1.1680 o         1 HBH     -0.539900
     37 C36        -2.8050   -4.2640   -3.9100 c2        1 HBH     -0.019000
     38 C37        -3.0610   -5.4850   -4.5230 c1        1 HBH     -0.157000
     39 C38        -2.8600   -6.6650   -3.8250 c1        1 HBH     -0.112000
     40 C39        -2.4030   -6.6270   -2.5120 c1        1 HBH     -0.112000
     41 C40        -2.1480   -5.4060   -1.8990 c1        1 HBH     -0.016000
     42 H1          0.0660    0.7740   -3.1990 h1        1 HBH      0.099000
     43 H21         2.2800    1.7810   -2.9320 hc        1 HBH      0.101000
     44 H22A        2.2430    0.2020   -2.7400 hc        1 HBH      0.101000
     45 H7          2.7460   -0.3480    2.0530 ha        1 HBH      0.147000
     46 H8          3.0060   -0.7540   -0.4000 ha        1 HBH      0.152000
     47 H101        3.6200    3.6790    4.1920 h1        1 HBH      0.105500
     48 H102        2.9770    3.8020    2.7380 h1        1 HBH      0.105500
     49 H111        1.5980    3.9460    5.0990 hc        1 HBH      0.101500
     50 H112        1.1160    2.5920    4.3690 hc        1 HBH      0.101500
     51 H121       -0.3320    4.2870    3.5930 hc        1 HBH      0.112000
     52 H122        0.9050    5.2440    3.2520 hc        1 HBH      0.112000
     53 H16        -1.5340    3.5380   -0.5560 h1        1 HBH      0.148000
     54 H271       -1.9540   -2.0530    0.8100 h1        1 HBH      0.112500
     55 H272       -0.3790   -1.7570    0.7660 h1        1 HBH      0.112500
     56 H301       -2.1880   -4.5430    2.7190 hc        1 HBH      0.074500
     57 H302       -1.0440   -4.8490    3.7990 hc        1 HBH      0.074500
     58 H303       -1.2140   -5.7970    2.5190 hc        1 HBH      0.074500
     59 H311        1.4260   -4.7910    2.9290 hc        1 HBH      0.074500
     60 H312        1.7070   -4.1260    1.4900 hc        1 HBH      0.074500
     61 H313        0.9930   -5.5620    1.5870 hc        1 HBH      0.074500
     62 H4          3.3900    3.3200   -0.9360 ha        1 HBH      0.131000
     63 H5          4.2460    3.3020    1.2950 ha        1 HBH      0.147000
     64 H15        -1.4260    3.8110    1.7580 hn        1 HBH      0.242000
     65 H171        0.1240    5.2510   -1.3300 hc        1 HBH      0.128500
     66 H172        0.2520    5.5330    0.2340 hc        1 HBH      0.128500
     67 H191       -0.7920    7.8000   -1.1410 hn        1 HBH      0.233500
     68 H192       -2.3340    7.9450   -0.7450 hn        1 HBH      0.233500
     69 H22        -0.8390    2.7170   -2.4200 hn        1 HBH      0.233000
     70 H23        -0.9870    0.4570   -0.9960 h1        1 HBH      0.115000
     71 H24         0.2950    0.1050    0.5960 ho        1 HBH      0.234000
     72 H251       -0.2650   -1.2870   -2.7250 h1        1 HBH      0.100500
     73 H252        0.7590   -1.7090   -1.5720 h1        1 HBH      0.100500
     74 H281       -0.1500   -4.1060   -0.0200 hc        1 HBH      0.083000
     75 H282       -1.6480   -4.3080    0.5010 hc        1 HBH      0.083000
     76 H29        -0.2160   -3.1280    2.4990 hc        1 HBH      0.088000
     77 H36        -2.9470   -3.4310   -4.4030 ha        1 HBH      0.149000
     78 H37        -3.3820   -5.5110   -5.4450 ha        1 HBH      0.140000
     79 H38        -3.0400   -7.5260   -4.2560 ha        1 HBH      0.139000
     80 H39        -2.2630   -7.4570   -2.0210 ha        1 HBH      0.139000
     81 H40        -1.8290   -5.3790   -0.9830 ha        1 HBH      0.154000
@<TRIPOS>BOND
     1    1    2 1   
     2    1   28 1   
     3    1   29 1   
     4    1   42 1   
     5    2    3 1   
     6    2   43 1   
     7    2   44 1   
     8    3    5 1   
     9    3   17 1   
    10    4    5 1   
    11    4   45 1   
    12    5   46 1   
    13    6    7 1   
    14    6   20 1   
    15    6   47 1   
    16    6   48 1   
    17    7    8 1   
    18    7   49 1   
    19    7   50 1   
    20    8    9 1   
    21    8   51 1   
    22    8   52 1   
    23    9   21 1   
    24    9   22 1   
    25   10   11 1   
    26   10   22 1   
    27   10   23 1   
    28   10   53 1   
    29   11   27 1   
    30   11   28 1   
    31   12   13 1   
    32   12   31 1   
    33   12   34 1   
    34   13   32 1   
    35   13   54 1   
    36   13   55 1   
    37   14   33 1   
    38   14   56 1   
    39   14   57 1   
    40   14   58 1   
    41   15   33 1   
    42   15   59 1   
    43   15   60 1   
    44   15   61 1   
    45   16   37 1   
    46   16   41 1   
    47   17   62 1   
    48   18   19 1   
    49   18   63 1   
    50   19   20 1   
    51   22   64 1   
    52   23   24 1   
    53   23   65 1   
    54   23   66 1   
    55   24   25 1   
    56   24   26 1   
    57   26   67 1   
    58   26   68 1   
    59   28   69 1   
    60   29   30 1   
    61   29   31 1   
    62   29   70 1   
    63   30   71 1   
    64   31   72 1   
    65   31   73 1   
    66   32   33 1   
    67   32   74 1   
    68   32   75 1   
    69   33   76 1   
    70   34   35 1   
    71   34   36 1   
    72   37   38 1   
    73   37   77 1   
    74   38   78 1   
    75   39   40 1   
    76   39   79 1   
    77   40   80 1   
    78   41   81 1   
@<TRIPOS>SUBSTRUCTURE
     1 HBH         1 TEMP              0 ****  ****    0 ROOT
