@<TRIPOS>MOLECULE
HBH
   85    86     1     0     0
SMALL
bcc


@<TRIPOS>ATOM
      1 C1         -0.4280   -1.3670    0.7360 c3        1 HBH      0.105500
      2 C2          1.0660   -1.4160    1.0770 c3        1 HBH     -0.063100
      3 C3          1.3910   -0.8360    2.4030 ca        1 HBH     -0.225300
      4 C7          1.6350    1.0900    3.8620 ca        1 HBH     -0.220000
      5 C8          1.3050    0.5400    2.6190 ca        1 HBH     -0.103500
      6 C10         2.2430    1.9850    6.5620 c3        1 HBH      0.103400
      7 C11         0.8980    2.1220    7.2520 c3        1 HBH     -0.127400
      8 C12        -0.2990    2.2360    6.3210 c3        1 HBH     -0.137400
      9 C13        -0.8460    0.8870    5.9600 c         1 HBH      0.603100
     10 C16        -2.0810   -0.4720    4.1040 c3        1 HBH      0.085500
     11 C20        -2.0260   -0.6470    2.5550 c         1 HBH      0.491100
     12 N26        -2.3240   -2.6910   -2.3770 n7        1 HBH     -0.882200
     13 C27        -2.1510   -1.6970   -3.4380 c3        1 HBH      0.115800
     14 C30        -4.3440    0.8570   -5.2550 c3        1 HBH     -0.098600
     15 C31        -2.0160    1.2600   -4.4860 c3        1 HBH     -0.098600
     16 C35        -0.9910   -5.0030   -4.7480 ca        1 HBH     -0.665500
     17 C4          1.9290   -1.6620    3.4100 ca        1 HBH     -0.103500
     18 C5          2.2950   -1.1350    4.6350 ca        1 HBH     -0.220000
     19 C6          2.1250    0.2520    4.8770 ca        1 HBH      0.169100
     20 O9          2.4560    0.6320    6.1450 os        1 HBH     -0.289900
     21 O14        -0.9710   -0.1470    6.5770 o         1 HBH     -0.402100
     22 N15        -1.4160    0.8090    4.4800 ny        1 HBH     -0.742800
     23 C17        -3.5870   -0.5760    4.4620 c3        1 HBH     -0.188400
     24 C18        -3.9620   -0.1470    5.8580 c         1 HBH      0.556100
     25 O19        -3.4060    0.7270    6.5080 o         1 HBH     -0.400100
     26 N19        -5.1600   -0.7770    6.4960 nz        1 HBH     -0.743400
     27 O21        -2.6130    0.1360    1.8210 o         1 HBH     -0.355100
     28 N22        -1.2710   -1.7770    1.9530 ny        1 HBH     -0.658800
     29 C23        -0.6770   -2.2720   -0.5200 c3        1 HBH      0.139100
     30 O24         0.2060   -1.7390   -1.4810 oh        1 HBH     -0.569800
     31 C25        -2.1300   -2.1500   -1.0350 c3        1 HBH      0.139800
     32 C28        -3.3070   -0.7230   -3.6410 c3        1 HBH     -0.103400
     33 C29        -3.0470    0.2030   -4.8230 c3        1 HBH     -0.062700
     34 S32        -1.0240   -4.9160   -3.2270 s4        1 HBH      1.709300
     35 O33         0.0190   -4.3550   -2.5510 o         1 HBH     -0.454400
     36 O34        -2.0240   -5.5080   -2.5310 o         1 HBH     -0.454400
     37 C36         0.0930   -4.4780   -5.5210 ca        1 HBH      0.038500
     38 C37         0.1470   -4.6280   -6.8910 ca        1 HBH     -0.144500
     39 C38        -0.8770   -5.3080   -7.5710 ca        1 HBH      0.083000
     40 C39        -1.9630   -5.8280   -6.8480 ca        1 HBH     -0.144500
     41 C40        -2.0210   -5.6800   -5.4780 ca        1 HBH      0.038500
     42 H1         -0.7270   -0.3100    0.4630 hx        1 HBH      0.131700
     43 H21         1.5920   -0.8350    0.2600 hc        1 HBH      0.122700
     44 H22A        1.4380   -2.4750    1.0070 hc        1 HBH      0.122700
     45 H7          1.6510    2.1860    3.9720 ha        1 HBH      0.188500
     46 H8          1.0360    1.2140    1.7870 ha        1 HBH      0.164500
     47 H101        2.3880    2.7200    5.7330 h1        1 HBH      0.115200
     48 H102        3.0670    2.1290    7.3270 h1        1 HBH      0.115200
     49 H111        0.7580    1.2730    7.9750 hc        1 HBH      0.123200
     50 H112        0.9310    3.0730    7.8620 hc        1 HBH      0.123200
     51 H121       -1.1390    2.7680    6.8630 hc        1 HBH      0.126700
     52 H122       -0.0260    2.8430    5.4160 hc        1 HBH      0.126700
     53 H16        -1.5180   -1.3020    4.6380 hx        1 HBH      0.161700
     54 H271       -1.2020   -1.1190   -3.2370 h1        1 HBH      0.072700
     55 H272       -2.0060   -2.2820   -4.3930 h1        1 HBH      0.072700
     56 H301       -4.1580    1.5400   -6.1210 hc        1 HBH      0.047367
     57 H302       -5.0900    0.0870   -5.5690 hc        1 HBH      0.047367
     58 H303       -4.7800    1.4580   -4.4220 hc        1 HBH      0.047367
     59 H311       -1.0400    0.7950   -4.2070 hc        1 HBH      0.047367
     60 H312       -2.3660    1.8970   -3.6390 hc        1 HBH      0.047367
     61 H313       -1.8480    1.9220   -5.3720 hc        1 HBH      0.047367
     62 H4          2.1110   -2.7320    3.2090 ha        1 HBH      0.164500
     63 H5          2.7630   -1.7610    5.4180 ha        1 HBH      0.188500
     64 H15        -2.0630    1.5950    4.3540 hn        1 HBH      0.481300
     65 H171       -4.1910    0.0790    3.7580 hc        1 HBH      0.145700
     66 H172       -3.8920   -1.6450    4.2770 hc        1 HBH      0.145700
     67 H191       -5.3770   -0.2870    7.3890 hn        1 HBH      0.506800
     68 H192       -5.9880   -0.7120    5.8840 hn        1 HBH      0.506800
     69 H22        -0.6310   -2.1900    2.6510 hn        1 HBH      0.481300
     70 H23        -0.4340   -3.3430   -0.2780 h1        1 HBH      0.076700
     71 H24         0.8080   -2.4470   -1.7670 ho        1 HBH      0.465000
     72 H251       -2.4270   -1.0610   -0.9920 h1        1 HBH      0.046200
     73 H252       -2.7900   -2.7250   -0.3240 h1        1 HBH      0.046200
     74 H281       -3.4620   -0.1070   -2.7170 hc        1 HBH      0.047200
     75 H282       -4.2550   -1.2950   -3.8280 hc        1 HBH      0.047200
     76 H29        -2.6590   -0.4140   -5.6830 hc        1 HBH      0.053700
     77 H36         0.9120   -3.9500   -4.9960 ha        1 HBH      0.174000
     78 H37         1.0040   -4.2200   -7.4620 ha        1 HBH      0.204500
     79 H38        -0.8260   -5.4370   -8.6710 ha        1 HBH      0.206000
     80 H39        -2.7710   -6.3650   -7.3830 ha        1 HBH      0.204500
     81 H40        -2.8770   -6.1060   -4.9180 ha        1 HBH      0.174000
     82 H261       -3.2640   -3.0600   -2.4230 hn        1 HBH      0.390800
     83 H152       -0.5840    0.9660    3.8680 hn        1 HBH      0.481300
     84 H193       -4.9830   -1.7690    6.7140 hn        1 HBH      0.506800
     85 H222       -1.9460   -2.4950    1.6450 hn        1 HBH      0.481300
@<TRIPOS>BOND
     1    1    2 1   
     2    1   28 1   
     3    1   29 1   
     4    1   42 1   
     5    2    3 1   
     6    2   43 1   
     7    2   44 1   
     8    3    5 ar  
     9    3   17 ar  
    10    4    5 ar  
    11    4   19 ar  
    12    4   45 1   
    13    5   46 1   
    14    6    7 1   
    15    6   20 1   
    16    6   47 1   
    17    6   48 1   
    18    7    8 1   
    19    7   49 1   
    20    7   50 1   
    21    8    9 1   
    22    8   51 1   
    23    8   52 1   
    24    9   21 2   
    25    9   22 1   
    26   10   11 1   
    27   10   22 1   
    28   10   23 1   
    29   10   53 1   
    30   11   27 2   
    31   11   28 1   
    32   12   13 1   
    33   12   31 1   
    34   12   82 1   
    35   13   32 1   
    36   13   54 1   
    37   13   55 1   
    38   14   33 1   
    39   14   56 1   
    40   14   57 1   
    41   14   58 1   
    42   15   33 1   
    43   15   59 1   
    44   15   60 1   
    45   15   61 1   
    46   16   34 1   
    47   16   37 ar  
    48   16   41 ar  
    49   17   18 ar  
    50   17   62 1   
    51   18   19 ar  
    52   18   63 1   
    53   19   20 1   
    54   22   64 1   
    55   22   83 1   
    56   23   24 1   
    57   23   65 1   
    58   23   66 1   
    59   24   25 2   
    60   24   26 1   
    61   26   67 1   
    62   26   68 1   
    63   26   84 1   
    64   28   69 1   
    65   28   85 1   
    66   29   30 1   
    67   29   31 1   
    68   29   70 1   
    69   30   71 1   
    70   31   72 1   
    71   31   73 1   
    72   32   33 1   
    73   32   74 1   
    74   32   75 1   
    75   33   76 1   
    76   34   35 1   
    77   34   36 1   
    78   37   38 ar  
    79   37   77 1   
    80   38   39 ar  
    81   38   78 1   
    82   39   40 ar  
    83   39   79 1   
    84   40   41 ar  
    85   40   80 1   
    86   41   81 1   
@<TRIPOS>SUBSTRUCTURE
     1 HBH         1 TEMP              0 ****  ****    0 ROOT
