@<TRIPOS>MOLECULE
HBH
   81    83     1     0     0
SMALL
bcc


@<TRIPOS>ATOM
      1 C1          0.3880    0.0350    2.6510 c3        1 HBH      0.077700
      2 C2          1.0110    1.2740    3.3420 c3        1 HBH     -0.049100
      3 C3          2.1850    1.8260    2.6160 ca        1 HBH     -0.092300
      4 C7          4.5560    1.7320    2.1200 ca        1 HBH     -0.144500
      5 C8          3.4730    1.3570    2.9090 ca        1 HBH     -0.110000
      6 C10         5.9000    1.8390   -0.5720 c3        1 HBH      0.131400
      7 C11         4.9120    1.3730   -1.6320 c3        1 HBH     -0.115400
      8 C12         4.6660   -0.1220   -1.6200 c3        1 HBH     -0.142400
      9 C13         3.2990   -0.4860   -1.0660 c         1 HBH      0.667100
     10 C16         1.8860   -2.2330   -0.0480 c3        1 HBH      0.036700
     11 C20         1.4180   -1.8090    1.3680 c         1 HBH      0.655100
     12 N26        -2.7000   -0.6910    0.6140 n3        1 HBH     -0.806500
     13 C27        -3.9110    0.0420    0.9000 c3        1 HBH      0.214800
     14 C30        -7.5730   -0.8350    1.5360 c3        1 HBH     -0.092600
     15 C31        -6.2310    0.7040    2.9510 c3        1 HBH     -0.092600
     16 C35        -2.1400    0.1130   -1.7970 ca        1 HBH     -0.392500
     17 C4          2.0060    2.7560    1.5860 ca        1 HBH     -0.110000
     18 C5          3.0780    3.1400    0.7850 ca        1 HBH     -0.144500
     19 C6          4.3420    2.5870    1.0310 ca        1 HBH      0.091100
     20 O9          5.3900    2.9420    0.1880 os        1 HBH     -0.342900
     21 O14         2.3050    0.2620   -1.2020 o         1 HBH     -0.648100
     22 N15         3.1730   -1.6920   -0.4060 n         1 HBH     -0.556900
     23 C17         1.8390   -3.7630   -0.1320 c3        1 HBH     -0.156400
     24 C18         1.8780   -4.1900   -1.5880 c         1 HBH      0.652100
     25 O19         2.9380   -4.6010   -2.1100 o         1 HBH     -0.639100
     26 N19         0.7170   -4.1130   -2.3070 n         1 HBH     -0.663000
     27 O21         1.2110   -2.6470    2.2670 o         1 HBH     -0.618100
     28 N22         1.1640   -0.4670    1.5450 n         1 HBH     -0.562900
     29 C23        -1.0690    0.3720    2.2040 c3        1 HBH      0.093100
     30 O24        -1.7860    0.9810    3.2630 oh        1 HBH     -0.593800
     31 C25        -1.8150   -0.8980    1.7270 c3        1 HBH      0.193800
     32 C28        -5.0960   -0.8300    1.3210 c3        1 HBH     -0.104400
     33 C29        -6.3250    0.0220    1.6020 c3        1 HBH     -0.063700
     34 S32        -2.4120   -1.2710   -0.8800 sy        1 HBH      1.513200
     35 O33        -1.2250   -2.0580   -0.8830 o         1 HBH     -0.671800
     36 O34        -3.5560   -1.9260   -1.3850 o         1 HBH     -0.671800
     37 C36        -0.8580    0.6650   -1.9090 ca        1 HBH     -0.017500
     38 C37        -0.6310    1.7920   -2.6980 ca        1 HBH     -0.155000
     39 C38        -1.6890    2.3820   -3.3880 ca        1 HBH     -0.065000
     40 C39        -2.9720    1.8390   -3.2920 ca        1 HBH     -0.155000
     41 C40        -3.1920    0.7140   -2.5040 ca        1 HBH     -0.017500
     42 H1          0.3180   -0.7890    3.4260 h1        1 HBH      0.082700
     43 H21         0.2220    2.0670    3.4500 hc        1 HBH      0.065200
     44 H22A        1.3190    0.9690    4.3780 hc        1 HBH      0.065200
     45 H7          5.5640    1.3510    2.3330 ha        1 HBH      0.144000
     46 H8          3.6240    0.6650    3.7510 ha        1 HBH      0.137000
     47 H101        6.8230    2.2740   -1.0440 h1        1 HBH      0.053700
     48 H102        6.1920    1.0080    0.1220 h1        1 HBH      0.053700
     49 H111        3.9380    1.9230   -1.4950 hc        1 HBH      0.072700
     50 H112        5.3070    1.6630   -2.6410 hc        1 HBH      0.072700
     51 H121        4.6820   -0.5140   -2.6740 hc        1 HBH      0.071200
     52 H122        5.4810   -0.6500   -1.0580 hc        1 HBH      0.071200
     53 H16         1.0990   -1.8150   -0.7610 h1        1 HBH      0.113700
     54 H271       -4.1980    0.6180   -0.0300 h1        1 HBH      0.057700
     55 H272       -3.6970    0.7950    1.7150 h1        1 HBH      0.057700
     56 H301       -8.4770   -0.2180    1.7540 hc        1 HBH      0.036033
     57 H302       -7.6860   -1.2850    0.5200 hc        1 HBH      0.036033
     58 H303       -7.5190   -1.6620    2.2850 hc        1 HBH      0.036033
     59 H311       -6.1670   -0.0530    3.7700 hc        1 HBH      0.036033
     60 H312       -5.3280    1.3580    3.0030 hc        1 HBH      0.036033
     61 H313       -7.1360    1.3350    3.1270 hc        1 HBH      0.036033
     62 H4          1.0040    3.1670    1.3890 ha        1 HBH      0.137000
     63 H5          2.9430    3.8490   -0.0430 ha        1 HBH      0.144000
     64 H15         3.9460   -2.3170   -0.3740 hn        1 HBH      0.328500
     65 H171        2.7030   -4.2300    0.4080 hc        1 HBH      0.094700
     66 H172        0.8970   -4.1170    0.3670 hc        1 HBH      0.094700
     67 H191       -0.0920   -3.6920   -1.9140 hn        1 HBH      0.325500
     68 H192        0.7170   -4.3570   -3.2650 hn        1 HBH      0.325500
     69 H22         1.4060    0.1790    0.8250 hn        1 HBH      0.340500
     70 H23        -1.0450    1.1690    1.4070 h1        1 HBH      0.086700
     71 H24        -1.7640    0.3780    4.0160 ho        1 HBH      0.402000
     72 H251       -2.4170   -1.2880    2.6010 h1        1 HBH      0.070200
     73 H252       -1.0770   -1.7060    1.4490 h1        1 HBH      0.070200
     74 H281       -4.8320   -1.4210    2.2360 hc        1 HBH      0.057700
     75 H282       -5.3270   -1.5630    0.5010 hc        1 HBH      0.057700
     76 H29        -6.4010    0.8170    0.8060 hc        1 HBH      0.043700
     77 H36        -0.0050    0.1960   -1.3810 ha        1 HBH      0.160000
     78 H37         0.3870    2.2040   -2.7740 ha        1 HBH      0.147000
     79 H38        -1.5130    3.2720   -4.0120 ha        1 HBH      0.138000
     80 H39        -3.8080    2.2970   -3.8420 ha        1 HBH      0.147000
     81 H40        -4.2020    0.2720   -2.4450 ha        1 HBH      0.160000
@<TRIPOS>BOND
     1    1    2 1   
     2    1   28 1   
     3    1   29 1   
     4    1   42 1   
     5    2    3 1   
     6    2   43 1   
     7    2   44 1   
     8    3    5 ar  
     9    3   17 ar  
    10    4    5 ar  
    11    4   19 ar  
    12    4   45 1   
    13    5   46 1   
    14    6    7 1   
    15    6   20 1   
    16    6   47 1   
    17    6   48 1   
    18    7    8 1   
    19    7   49 1   
    20    7   50 1   
    21    8    9 1   
    22    8   51 1   
    23    8   52 1   
    24    9   21 2   
    25    9   22 1   
    26   10   11 1   
    27   10   22 1   
    28   10   23 1   
    29   10   53 1   
    30   11   27 2   
    31   11   28 1   
    32   12   13 1   
    33   12   31 1   
    34   12   34 1   
    35   13   32 1   
    36   13   54 1   
    37   13   55 1   
    38   14   33 1   
    39   14   56 1   
    40   14   57 1   
    41   14   58 1   
    42   15   33 1   
    43   15   59 1   
    44   15   60 1   
    45   15   61 1   
    46   16   34 1   
    47   16   37 ar  
    48   16   41 ar  
    49   17   18 ar  
    50   17   62 1   
    51   18   19 ar  
    52   18   63 1   
    53   19   20 1   
    54   22   64 1   
    55   23   24 1   
    56   23   65 1   
    57   23   66 1   
    58   24   25 2   
    59   24   26 1   
    60   26   67 1   
    61   26   68 1   
    62   28   69 1   
    63   29   30 1   
    64   29   31 1   
    65   29   70 1   
    66   30   71 1   
    67   31   72 1   
    68   31   73 1   
    69   32   33 1   
    70   32   74 1   
    71   32   75 1   
    72   33   76 1   
    73   34   35 2   
    74   34   36 2   
    75   37   38 ar  
    76   37   77 1   
    77   38   39 ar  
    78   38   78 1   
    79   39   40 ar  
    80   39   79 1   
    81   40   41 ar  
    82   40   80 1   
    83   41   81 1   
@<TRIPOS>SUBSTRUCTURE
     1 HBH         1 TEMP              0 ****  ****    0 ROOT
