@<TRIPOS>MOLECULE
HBH
   85    86     1     0     0
SMALL
bcc


@<TRIPOS>ATOM
      1 C1        -64.0360  201.7970  269.3430 c3        1 HBH      0.134500
      2 C2        -63.2610  201.3800  268.0940 c3        1 HBH     -0.069100
      3 C3        -61.8120  201.6860  268.1800 ca        1 HBH     -0.201300
      4 C7        -59.9960  203.2890  268.3640 ca        1 HBH     -0.222500
      5 C8        -61.3620  203.0050  268.2580 ca        1 HBH     -0.106000
      6 C10       -57.1260  203.6300  268.6810 c3        1 HBH      0.105400
      7 C11       -56.8980  203.8650  270.1640 c3        1 HBH     -0.125400
      8 C12       -58.1170  204.3420  270.9370 c3        1 HBH     -0.138400
      9 C13       -58.9270  203.1920  271.4570 c         1 HBH      0.599100
     10 C16       -61.3350  202.3830  272.0320 c3        1 HBH      0.077500
     11 C20       -62.7640  202.4670  271.4150 c         1 HBH      0.489100
     12 N26       -67.6970  201.2620  270.3340 n3        1 HBH     -0.835200
     13 C27       -68.7780  202.1200  270.7710 c3        1 HBH      0.156800
     14 C30       -68.6480  201.9490  274.6310 c3        1 HBH     -0.095100
     15 C31       -70.3160  200.8330  273.1700 c3        1 HBH     -0.095100
     16 C35       313.3060-1031.1470-1371.2440 ca        1 HBH     -0.647500
     17 C4        -60.8730  200.6410  268.0790 ca        1 HBH     -0.106000
     18 C5        -59.5160  200.9010  268.1490 ca        1 HBH     -0.222500
     19 C6        -59.0710  202.2350  268.3220 ca        1 HBH      0.159100
     20 O9        -57.7150  202.3460  268.4620 os        1 HBH     -0.295900
     21 O14       -58.6170  202.1160  271.9210 o         1 HBH     -0.406100
     22 N15       -60.4810  203.4490  271.4280 n4        1 HBH     -0.737800
     23 C17       -61.5660  202.4880  273.5600 c3        1 HBH     -0.189400
     24 C18       -60.3310  202.7010  274.3940 c         1 HBH      0.556100
     25 O19       -59.3440  203.3410  274.0620 o         1 HBH     -0.400100
     26 N19       -60.3220  202.1540  275.7890 n4        1 HBH     -0.744400
     27 O21       -63.4520  203.4620  271.6010 o         1 HBH     -0.352100
     28 N22       -63.2900  201.3420  270.6150 n4        1 HBH     -0.662800
     29 C23       -65.4720  201.1870  269.2980 c3        1 HBH      0.134100
     30 O24       -65.8970  201.4820  267.9860 oh        1 HBH     -0.586800
     31 C25       -66.3810  201.8400  270.3650 c3        1 HBH      0.144800
     32 C28       -68.7660  202.5700  272.2290 c3        1 HBH     -0.115400
     33 C29       -68.9280  201.4380  273.2310 c3        1 HBH     -0.063700
     34 S32       313.4200-1029.7790-1370.5500 s4        1 HBH      1.662300
     35 O33       313.3770-1029.7330-1369.2010 o         1 HBH     -0.390400
     36 O34       313.5600-1028.6760-1371.3160 o         1 HBH     -0.390400
     37 C36       313.1560-1032.3520-1370.4960 ca        1 HBH      0.043000
     38 C37       313.0530-1033.5810-1371.1210 ca        1 HBH     -0.151000
     39 C38       313.0950-1033.6640-1372.5200 ca        1 HBH      0.054000
     40 C39       313.2410-1032.4990-1373.2850 ca        1 HBH     -0.151000
     41 C40       313.3440-1031.2690-1372.6640 ca        1 HBH      0.043000
     42 H1        -64.1270  202.9220  269.3940 hx        1 HBH      0.122700
     43 H21       -63.4340  200.2890  267.8770 hc        1 HBH      0.137700
     44 H22A      -63.7390  201.9400  267.2300 hc        1 HBH      0.137700
     45 H7        -59.6660  204.3390  268.3180 ha        1 HBH      0.182500
     46 H8        -62.0820  203.8370  268.1710 ha        1 HBH      0.167000
     47 H101      -57.6950  204.4570  268.1900 h1        1 HBH      0.109700
     48 H102      -56.1210  203.5240  268.1670 h1        1 HBH      0.109700
     49 H111      -56.1120  204.6700  270.2590 hc        1 HBH      0.118700
     50 H112      -56.4750  202.9330  270.6300 hc        1 HBH      0.118700
     51 H121      -57.7740  204.9100  271.8550 hc        1 HBH      0.123200
     52 H122      -58.7250  205.0410  270.3010 hc        1 HBH      0.123200
     53 H16       -60.8330  201.3910  271.8000 hx        1 HBH      0.159700
     54 H271      -68.7810  203.0370  270.1140 h1        1 HBH      0.082200
     55 H272      -69.7320  201.5510  270.5650 h1        1 HBH      0.082200
     56 H301      -68.7660  201.1250  275.3750 hc        1 HBH      0.044033
     57 H302      -67.6080  202.3500  274.7030 hc        1 HBH      0.044033
     58 H303      -69.3610  202.7670  274.8970 hc        1 HBH      0.044033
     59 H311      -70.4240  200.0390  273.9490 hc        1 HBH      0.044033
     60 H312      -70.5050  200.3710  272.1710 hc        1 HBH      0.044033
     61 H313      -71.0930  201.6130  273.3540 hc        1 HBH      0.044033
     62 H4        -61.2170  199.6070  267.8960 ha        1 HBH      0.167000
     63 H5        -58.7670  200.0970  268.0310 ha        1 HBH      0.182500
     64 H15       -60.6630  204.3480  271.8870 hn        1 HBH      0.483300
     65 H171      -62.1060  201.5480  273.8700 hc        1 HBH      0.148200
     66 H172      -62.2550  203.3630  273.7820 hc        1 HBH      0.148200
     67 H191      -60.2840  201.1230  275.7760 hn        1 HBH      0.504133
     68 H192      -59.4810  202.4990  276.2940 hn        1 HBH      0.504133
     69 H22       -63.9640  200.8120  271.1950 hn        1 HBH      0.483800
     70 H23       -65.4180  200.0680  269.4280 h1        1 HBH      0.062700
     71 H24       -66.8630  201.3710  267.9440 ho        1 HBH      0.483000
     72 H251      -66.4570  202.9420  270.1360 h1        1 HBH      0.023200
     73 H252      -65.8700  201.7380  271.3700 h1        1 HBH      0.023200
     74 H281      -67.8110  203.1200  272.4420 hc        1 HBH      0.048200
     75 H282      -69.6090  203.3000  272.3660 hc        1 HBH      0.048200
     76 H29       -68.1780  200.6300  272.9970 hc        1 HBH      0.014700
     77 H36       313.1220-1032.2940-1369.3900 ha        1 HBH      0.180000
     78 H37       312.9380-1034.5000-1370.5180 ha        1 HBH      0.190000
     79 H38       313.0130-1034.6480-1373.0190 ha        1 HBH      0.186000
     80 H39       313.2740-1032.5650-1374.3880 ha        1 HBH      0.190000
     81 H40       313.4590-1030.3520-1373.2760 ha        1 HBH      0.180000
     82 H261      -67.7210  200.3730  270.7980 hn        1 HBH      0.383800
     83 H152      -60.7150  203.5450  270.4120 hn        1 HBH      0.483300
     84 H193      -61.1600  202.4510  276.3110 hn        1 HBH      0.504133
     85 H222      -62.5260  200.7130  270.3240 hn        1 HBH      0.483800
@<TRIPOS>BOND
     1    1    2 1   
     2    1   28 1   
     3    1   29 1   
     4    1   42 1   
     5    2    3 1   
     6    2   43 1   
     7    2   44 1   
     8    3    5 ar  
     9    3   17 ar  
    10    4    5 ar  
    11    4   19 ar  
    12    4   45 1   
    13    5   46 1   
    14    6    7 1   
    15    6   20 1   
    16    6   47 1   
    17    6   48 1   
    18    7    8 1   
    19    7   49 1   
    20    7   50 1   
    21    8    9 1   
    22    8   51 1   
    23    8   52 1   
    24    9   21 2   
    25    9   22 1   
    26   10   11 1   
    27   10   22 1   
    28   10   23 1   
    29   10   53 1   
    30   11   27 2   
    31   11   28 1   
    32   12   13 1   
    33   12   31 1   
    34   12   82 1   
    35   13   32 1   
    36   13   54 1   
    37   13   55 1   
    38   14   33 1   
    39   14   56 1   
    40   14   57 1   
    41   14   58 1   
    42   15   33 1   
    43   15   59 1   
    44   15   60 1   
    45   15   61 1   
    46   16   34 1   
    47   16   37 ar  
    48   16   41 ar  
    49   17   18 ar  
    50   17   62 1   
    51   18   19 ar  
    52   18   63 1   
    53   19   20 1   
    54   22   64 1   
    55   22   83 1   
    56   23   24 1   
    57   23   65 1   
    58   23   66 1   
    59   24   25 2   
    60   24   26 1   
    61   26   67 1   
    62   26   68 1   
    63   26   84 1   
    64   28   69 1   
    65   28   85 1   
    66   29   30 1   
    67   29   31 1   
    68   29   70 1   
    69   30   71 1   
    70   31   72 1   
    71   31   73 1   
    72   32   33 1   
    73   32   74 1   
    74   32   75 1   
    75   33   76 1   
    76   34   35 1   
    77   34   36 1   
    78   37   38 ar  
    79   37   77 1   
    80   38   39 ar  
    81   38   78 1   
    82   39   40 ar  
    83   39   79 1   
    84   40   41 ar  
    85   40   80 1   
    86   41   81 1   
@<TRIPOS>SUBSTRUCTURE
     1 HBH         1 TEMP              0 ****  ****    0 ROOT
