@<TRIPOS>MOLECULE
HBH
   85    86     1     0     0
SMALL
bcc


@<TRIPOS>ATOM
      1 C1         -0.6300   -0.3410    0.3430 c3        1 HBH      0.100500
      2 C2          0.8570    0.0220    0.4370 c3        1 HBH     -0.064100
      3 C3          1.3120    0.2480    1.8310 ca        1 HBH     -0.229300
      4 C7          1.3520    1.6210    3.8320 ca        1 HBH     -0.215500
      5 C8          0.9090    1.3900    2.5280 ca        1 HBH     -0.104500
      6 C10         2.2500    1.7950    6.5870 c3        1 HBH      0.103400
      7 C11         1.0880    1.2440    7.3940 c3        1 HBH     -0.127400
      8 C12        -0.2490    1.2140    6.6700 c3        1 HBH     -0.136400
      9 C13        -0.4440   -0.0730    5.9250 c         1 HBH      0.603100
     10 C16        -1.6900   -1.1850    3.9200 c3        1 HBH      0.085500
     11 C20        -1.9480   -0.9340    2.4020 c         1 HBH      0.493100
     12 N26        -2.9620   -1.6260   -2.4330 n3        1 HBH     -0.919200
     13 C27        -2.3610   -1.4030   -3.7570 c3        1 HBH      0.118800
     14 C30        -2.9530    0.7350   -6.8430 c3        1 HBH     -0.097600
     15 C31        -0.8870    0.8560   -5.4690 c3        1 HBH     -0.097600
     16 C35        -2.5620   -4.6250   -2.9320 ca        1 HBH     -0.640500
     17 C4          2.2690   -0.6110    2.4030 ca        1 HBH     -0.104500
     18 C5          2.7490   -0.3820    3.6810 ca        1 HBH     -0.215500
     19 C6          2.2660    0.7290    4.4180 ca        1 HBH      0.169100
     20 O9          2.7570    0.8030    5.6880 os        1 HBH     -0.286900
     21 O14        -0.1160   -1.2160    6.1470 o         1 HBH     -0.399100
     22 N15        -1.2950    0.0870    4.5890 n4        1 HBH     -0.744800
     23 C17        -3.0010   -1.8340    4.4410 c3        1 HBH     -0.188400
     24 C18        -3.1480   -1.9180    5.9380 c         1 HBH      0.558100
     25 O19        -2.6680   -1.1380    6.7490 o         1 HBH     -0.404100
     26 N19        -4.0160   -2.9970    6.5040 n4        1 HBH     -0.743400
     27 O21        -2.9560   -0.3450    2.0330 o         1 HBH     -0.364100
     28 N22        -0.9870   -1.4170    1.3790 n4        1 HBH     -0.666800
     29 C23        -0.9550   -0.7980   -1.1170 c3        1 HBH      0.137100
     30 O24        -0.3800    0.1560   -1.9790 oh        1 HBH     -0.549800
     31 C25        -2.4770   -0.7230   -1.3860 c3        1 HBH      0.122800
     32 C28        -2.9470   -0.2380   -4.5530 c3        1 HBH     -0.102400
     33 C29        -2.1110    0.0280   -5.8010 c3        1 HBH     -0.060700
     34 S32        -2.9500   -3.8420   -1.6760 s4        1 HBH      1.689300
     35 O33        -2.0010   -3.5390   -0.7090 o         1 HBH     -0.504400
     36 O34        -4.2470   -3.7520   -1.2730 o         1 HBH     -0.504400
     37 C36        -1.2140   -4.9740   -3.2510 ca        1 HBH      0.030500
     38 C37        -0.9020   -5.7450   -4.3500 ca        1 HBH     -0.138000
     39 C38        -1.9210   -6.2090   -5.2030 ca        1 HBH      0.083000
     40 C39        -3.2570   -5.8790   -4.9290 ca        1 HBH     -0.138000
     41 C40        -3.5710   -5.1080   -3.8270 ca        1 HBH      0.030500
     42 H1         -1.2580    0.5710    0.5720 hx        1 HBH      0.124700
     43 H21         1.4780   -0.7720   -0.0580 hc        1 HBH      0.119700
     44 H22A        0.9930    0.9720   -0.1650 hc        1 HBH      0.119700
     45 H7          1.0950    2.5740    4.3210 ha        1 HBH      0.190000
     46 H8          0.2870    2.1530    2.0270 ha        1 HBH      0.164000
     47 H101        2.0090    2.7580    6.0720 h1        1 HBH      0.116200
     48 H102        3.1340    1.9610    7.2770 h1        1 HBH      0.116200
     49 H111        1.3510    0.2220    7.7810 hc        1 HBH      0.123700
     50 H112        0.9600    1.9150    8.2940 hc        1 HBH      0.123700
     51 H121       -1.0850    1.2500    7.4340 hc        1 HBH      0.126200
     52 H122       -0.3460    2.1120    6.0010 hc        1 HBH      0.126200
     53 H16        -0.8340   -1.9180    4.0740 hx        1 HBH      0.161700
     54 H271       -2.5160   -2.3570   -4.3410 h1        1 HBH      0.073700
     55 H272       -1.2520   -1.2410   -3.6350 h1        1 HBH      0.073700
     56 H301       -3.8100    0.0940   -7.1610 hc        1 HBH      0.050200
     57 H302       -2.3310    0.9640   -7.7430 hc        1 HBH      0.050200
     58 H303       -3.3560    1.6960   -6.4410 hc        1 HBH      0.050200
     59 H311       -0.3170    0.4090   -4.6170 hc        1 HBH      0.050200
     60 H312       -1.1800    1.8970   -5.1890 hc        1 HBH      0.050200
     61 H313       -0.2120    0.9130   -6.3590 hc        1 HBH      0.050200
     62 H4          2.6840   -1.4470    1.8150 ha        1 HBH      0.164000
     63 H5          3.5350   -1.0190    4.1260 ha        1 HBH      0.190000
     64 H15        -2.1280    0.6410    4.8170 hn        1 HBH      0.479800
     65 H171       -3.8930   -1.2390    4.0670 hc        1 HBH      0.147700
     66 H172       -3.0600   -2.8590    3.9760 hc        1 HBH      0.147700
     67 H191       -3.5840   -3.9250    6.3720 hn        1 HBH      0.507133
     68 H192       -4.9490   -2.9970    6.0640 hn        1 HBH      0.507133
     69 H22        -0.1100   -1.7270    1.8280 hn        1 HBH      0.495800
     70 H23        -0.5340   -1.8270   -1.2900 h1        1 HBH      0.072700
     71 H24         0.5130   -0.1310   -2.2270 ho        1 HBH      0.448000
     72 H251       -2.7110    0.3530   -1.6560 h1        1 HBH      0.082700
     73 H252       -3.0330   -0.9810   -0.4410 h1        1 HBH      0.082700
     74 H281       -4.0010   -0.4810   -4.8510 hc        1 HBH      0.064200
     75 H282       -2.9740    0.6910   -3.9250 hc        1 HBH      0.064200
     76 H29        -1.7760   -0.9600   -6.2280 hc        1 HBH      0.046700
     77 H36        -0.4060   -4.6230   -2.5830 ha        1 HBH      0.167000
     78 H37         0.1500   -6.0090   -4.5680 ha        1 HBH      0.207000
     79 H38        -1.6690   -6.8320   -6.0850 ha        1 HBH      0.211000
     80 H39        -4.0620   -6.2440   -5.5980 ha        1 HBH      0.207000
     81 H40        -4.6330   -4.8660   -3.6180 ha        1 HBH      0.167000
     82 H261       -3.9620   -1.4570   -2.5170 hn        1 HBH      0.421800
     83 H152       -0.6880    0.6500    3.9550 hn        1 HBH      0.479800
     84 H193       -4.1390   -2.8450    7.5270 hn        1 HBH      0.507133
     85 H222       -1.4060   -2.2240    0.8710 hn        1 HBH      0.495800
@<TRIPOS>BOND
     1    1    2 1   
     2    1   28 1   
     3    1   29 1   
     4    1   42 1   
     5    2    3 1   
     6    2   43 1   
     7    2   44 1   
     8    3    5 ar  
     9    3   17 ar  
    10    4    5 ar  
    11    4   19 ar  
    12    4   45 1   
    13    5   46 1   
    14    6    7 1   
    15    6   20 1   
    16    6   47 1   
    17    6   48 1   
    18    7    8 1   
    19    7   49 1   
    20    7   50 1   
    21    8    9 1   
    22    8   51 1   
    23    8   52 1   
    24    9   21 2   
    25    9   22 1   
    26   10   11 1   
    27   10   22 1   
    28   10   23 1   
    29   10   53 1   
    30   11   27 2   
    31   11   28 1   
    32   12   13 1   
    33   12   31 1   
    34   12   82 1   
    35   13   32 1   
    36   13   54 1   
    37   13   55 1   
    38   14   33 1   
    39   14   56 1   
    40   14   57 1   
    41   14   58 1   
    42   15   33 1   
    43   15   59 1   
    44   15   60 1   
    45   15   61 1   
    46   16   34 1   
    47   16   37 ar  
    48   16   41 ar  
    49   17   18 ar  
    50   17   62 1   
    51   18   19 ar  
    52   18   63 1   
    53   19   20 1   
    54   22   64 1   
    55   22   83 1   
    56   23   24 1   
    57   23   65 1   
    58   23   66 1   
    59   24   25 2   
    60   24   26 1   
    61   26   67 1   
    62   26   68 1   
    63   26   84 1   
    64   28   69 1   
    65   28   85 1   
    66   29   30 1   
    67   29   31 1   
    68   29   70 1   
    69   30   71 1   
    70   31   72 1   
    71   31   73 1   
    72   32   33 1   
    73   32   74 1   
    74   32   75 1   
    75   33   76 1   
    76   34   35 1   
    77   34   36 1   
    78   37   38 ar  
    79   37   77 1   
    80   38   39 ar  
    81   38   78 1   
    82   39   40 ar  
    83   39   79 1   
    84   40   41 ar  
    85   40   80 1   
    86   41   81 1   
@<TRIPOS>SUBSTRUCTURE
     1 HBH         1 TEMP              0 ****  ****    0 ROOT
