@<TRIPOS>MOLECULE
HBI
   30    31     1     0     0
SMALL
bcc


@<TRIPOS>ATOM
      1 N1          0.1030   -0.5110   -0.0470 nc        1 HBI     -0.742300
      2 N2          2.1190   -0.4110   -1.2840 nv        1 HBI     -0.905800
      3 C2          1.4050   -0.1430   -0.1040 cd        1 HBI      0.722800
      4 N3          2.0900    0.4430    0.9650 ns        1 HBI     -0.511400
      5 C4          1.4640    0.6370    2.2290 c         1 HBI      0.751700
      6 O4          2.1730    1.1400    3.1150 o         1 HBI     -0.610500
      7 C4A         0.0690    0.2240    2.3180 cd        1 HBI     -0.192600
      8 C8A        -0.5590   -0.3450    1.1690 cc        1 HBI      0.455600
      9 N8         -1.8750   -0.7360    1.2480 nu        1 HBI     -0.752000
     10 C7         -2.6210   -0.6140    2.4770 c3        1 HBI      0.163500
     11 C6         -1.8370    0.0230    3.6080 c2        1 HBI      0.332300
     12 N5         -0.5960    0.4030    3.5300 nf        1 HBI     -0.482300
     13 C9         -2.6270    0.2350    4.8850 c3        1 HBI      0.082800
     14 O9         -3.7970   -0.5690    4.7800 oh        1 HBI     -0.606800
     15 C10        -1.8070   -0.1180    6.1480 c3        1 HBI      0.130100
     16 O10        -1.0750    1.0230    6.5670 oh        1 HBI     -0.606800
     17 C11        -2.6960   -0.5020    7.3190 c3        1 HBI     -0.102100
     18 HN21        1.5760   -0.7090   -2.0640 hn        1 HBI      0.430800
     19 HN22        2.8810    0.1900   -1.4970 hn        1 HBI      0.430800
     20 H3          3.0580    0.6710    0.8920 hn        1 HBI      0.334500
     21 H8         -2.3260   -1.1520    0.4680 hn        1 HBI      0.455800
     22 H71        -2.9610   -1.6410    2.8070 h1        1 HBI      0.061200
     23 H72        -3.5460    0.0050    2.2830 h1        1 HBI      0.061200
     24 H9         -2.9220    1.3240    4.9420 h1        1 HBI      0.064700
     25 HO9        -4.3730   -0.3070    5.5090 ho        1 HBI      0.413000
     26 H10        -1.1060   -0.9680    5.9160 h1        1 HBI      0.052700
     27 HO1        -0.3650    1.1650    5.9280 ho        1 HBI      0.430000
     28 H111       -3.2210   -1.4600    7.0970 hc        1 HBI      0.046700
     29 H112       -2.0690   -0.6300    8.2340 hc        1 HBI      0.046700
     30 H113       -3.4470    0.2980    7.5200 hc        1 HBI      0.046700
@<TRIPOS>BOND
     1    1    3 2   
     2    1    8 1   
     3    2    3 1   
     4    2   18 1   
     5    2   19 1   
     6    3    4 1   
     7    4    5 1   
     8    4   20 1   
     9    5    6 2   
    10    5    7 1   
    11    7    8 2   
    12    7   12 1   
    13    8    9 1   
    14    9   10 1   
    15    9   21 1   
    16   10   11 1   
    17   10   22 1   
    18   10   23 1   
    19   11   12 2   
    20   11   13 1   
    21   13   14 1   
    22   13   15 1   
    23   13   24 1   
    24   14   25 1   
    25   15   16 1   
    26   15   17 1   
    27   15   26 1   
    28   16   27 1   
    29   17   28 1   
    30   17   29 1   
    31   17   30 1   
@<TRIPOS>SUBSTRUCTURE
     1 HBI         1 TEMP              0 ****  ****    0 ROOT
