@<TRIPOS>MOLECULE
HBI
   30    31     1     0     0
SMALL
bcc


@<TRIPOS>ATOM
      1 N1         -0.9010    0.5980   -2.8520 nc        1 HBI     -0.742300
      2 N2         -0.0030    0.4070   -5.0350 nh        1 HBI     -0.905800
      3 C2          0.0100    0.0340   -3.6790 cd        1 HBI      0.722800
      4 N3          0.9960   -0.8590   -3.2500 n         1 HBI     -0.511400
      5 C4          1.1510   -1.1860   -1.8720 c         1 HBI      0.751700
      6 O4          2.0760   -1.9660   -1.6000 o         1 HBI     -0.608500
      7 C4A         0.1970   -0.5650   -0.9610 cd        1 HBI     -0.190600
      8 C8A        -0.7990    0.3080   -1.4920 cc        1 HBI      0.456600
      9 N8         -1.7100    0.8880   -0.6400 nh        1 HBI     -0.749000
     10 C7         -1.6820    0.6240    0.7770 c3        1 HBI      0.153500
     11 C6         -0.5550   -0.2970    1.2060 c2        1 HBI      0.299300
     12 N5          0.3100   -0.8390    0.4010 nf        1 HBI     -0.464300
     13 C9         -0.4990   -0.5020    2.7050 c3        1 HBI      0.098800
     14 O9         -0.1050   -1.8030    3.0820 oh        1 HBI     -0.584800
     15 C10         0.4130    0.5750    3.3410 c3        1 HBI      0.104100
     16 O10        -0.2730    1.8170    3.3730 oh        1 HBI     -0.598800
     17 C11         0.8680    0.1590    4.7260 c3        1 HBI     -0.124100
     18 HN21       -0.7900    0.9410   -5.3310 hn        1 HBI      0.430300
     19 HN22        0.3310   -0.2620   -5.6890 hn        1 HBI      0.430300
     20 H3          1.6670   -1.2300   -3.8870 hn        1 HBI      0.334500
     21 H8         -2.3790    1.5380   -0.9810 hn        1 HBI      0.455800
     22 H71        -2.6680    0.1590    1.0750 h1        1 HBI      0.056200
     23 H72        -1.5720    1.6020    1.3380 h1        1 HBI      0.056200
     24 H9         -1.5420   -0.4040    3.1260 h1        1 HBI      0.072700
     25 HO9         0.7470   -1.9940    2.6680 ho        1 HBI      0.424000
     26 H10         1.3010    0.7690    2.6750 h1        1 HBI      0.090700
     27 HO1        -0.9350    1.7630    4.0730 ho        1 HBI      0.397000
     28 H111        1.4430    0.9890    5.2010 hc        1 HBI      0.049033
     29 H112       -0.0110   -0.0900    5.3670 hc        1 HBI      0.049033
     30 H113        1.5180   -0.7460    4.6560 hc        1 HBI      0.049033
@<TRIPOS>BOND
     1    1    3 2   
     2    1    8 1   
     3    2    3 1   
     4    2   18 1   
     5    2   19 1   
     6    3    4 1   
     7    4    5 1   
     8    4   20 1   
     9    5    6 2   
    10    5    7 1   
    11    7    8 2   
    12    7   12 1   
    13    8    9 1   
    14    9   10 1   
    15    9   21 1   
    16   10   11 1   
    17   10   22 1   
    18   10   23 1   
    19   11   12 2   
    20   11   13 1   
    21   13   14 1   
    22   13   15 1   
    23   13   24 1   
    24   14   25 1   
    25   15   16 1   
    26   15   17 1   
    27   15   26 1   
    28   16   27 1   
    29   17   28 1   
    30   17   29 1   
    31   17   30 1   
@<TRIPOS>SUBSTRUCTURE
     1 HBI         1 TEMP              0 ****  ****    0 ROOT
