@<TRIPOS>MOLECULE
HBI
   31    32     1     0     0
SMALL
bcc


@<TRIPOS>ATOM
      1 N1          0.0840   -0.4490   -0.0690 nc        1 HBI     -0.622300
      2 N2          2.0490   -0.2440   -1.4160 n4        1 HBI     -0.808600
      3 C2          1.3610   -0.0930   -0.0840 cd        1 HBI      0.559800
      4 N3          2.1040    0.3910    0.9740 n         1 HBI     -0.496400
      5 C4          1.4720    0.5530    2.2620 c         1 HBI      0.743700
      6 O4          2.2050    0.9830    3.1520 o         1 HBI     -0.517500
      7 C4A         0.0590    0.1790    2.3170 cd        1 HBI     -0.081600
      8 C8A        -0.5980   -0.3190    1.1620 cc        1 HBI      0.398600
      9 N8         -1.9180   -0.6800    1.2220 nh        1 HBI     -0.736000
     10 C7         -2.6530   -0.5870    2.4670 c3        1 HBI      0.139500
     11 C6         -1.8490    0.0020    3.6140 c2        1 HBI      0.422300
     12 N5         -0.5960    0.3450    3.5430 nf        1 HBI     -0.517300
     13 C9         -2.6440    0.2060    4.8920 c3        1 HBI      0.070800
     14 O9         -3.7800   -0.6400    4.7820 oh        1 HBI     -0.611800
     15 C10        -1.8190   -0.0930    6.1680 c3        1 HBI      0.132100
     16 O10        -1.1010    1.0740    6.5290 oh        1 HBI     -0.590800
     17 C11        -2.7130   -0.4270    7.3490 c3        1 HBI     -0.108100
     18 HN21        2.8340   -0.8990   -1.3240 hn        1 HBI      0.483800
     19 HN22        2.3900    0.6720   -1.7310 hn        1 HBI      0.483800
     20 H3          3.0680    0.6400    0.8960 hn        1 HBI      0.352500
     21 H8         -2.3980   -1.0220    0.4210 hn        1 HBI      0.471800
     22 H71        -3.0000   -1.6220    2.7680 h1        1 HBI      0.092200
     23 H72        -3.5710    0.0510    2.3020 h1        1 HBI      0.092200
     24 H9         -2.9720    1.2880    4.9230 h1        1 HBI      0.084700
     25 HO9        -4.3610   -0.4280    5.5260 ho        1 HBI      0.433000
     26 H10        -1.1180   -0.9510    5.9710 h1        1 HBI      0.052700
     27 HO1        -0.3090    1.1170    5.9790 ho        1 HBI      0.422000
     28 H111       -3.2190   -1.4070    7.1800 hc        1 HBI      0.056367
     29 H112       -3.4790    0.3710    7.5020 hc        1 HBI      0.056367
     30 H113       -2.0910   -0.4920    8.2750 hc        1 HBI      0.056367
     31 H23         1.3810   -0.6130   -2.1120 hn        1 HBI      0.483800
@<TRIPOS>BOND
     1    1    3 2   
     2    1    8 1   
     3    2    3 1   
     4    2   18 1   
     5    2   19 1   
     6    2   31 1   
     7    3    4 1   
     8    4    5 1   
     9    4   20 1   
    10    5    6 2   
    11    5    7 1   
    12    7    8 2   
    13    7   12 1   
    14    8    9 1   
    15    9   10 1   
    16    9   21 1   
    17   10   11 1   
    18   10   22 1   
    19   10   23 1   
    20   11   12 2   
    21   11   13 1   
    22   13   14 1   
    23   13   15 1   
    24   13   24 1   
    25   14   25 1   
    26   15   16 1   
    27   15   17 1   
    28   15   26 1   
    29   16   27 1   
    30   17   28 1   
    31   17   29 1   
    32   17   30 1   
@<TRIPOS>SUBSTRUCTURE
     1 HBI         1 TEMP              0 ****  ****    0 ROOT
