@<TRIPOS>MOLECULE
HBK
   24    25     1     0     0
SMALL
bcc


@<TRIPOS>ATOM
      1 O1A         0.5290    1.0750   -0.0670 oh        1 HBK     -0.575800
      2 C1B         3.4490    0.7870   -0.6720 ca        1 HBK      0.108100
      3 O1B         2.3110    0.0690   -1.0080 os        1 HBK     -0.330900
      4 C2B         1.3430   -0.0580    0.0230 c3        1 HBK      0.273900
      5 C3B         1.9090   -0.2270    1.4410 c         1 HBK      0.599500
      6 N3B         3.3210   -0.0500    1.6290 n         1 HBK     -0.166500
      7 O3B         1.1950   -0.6180    2.3690 o         1 HBK     -0.544500
      8 C4B         3.9670    0.7750    0.6480 ca        1 HBK     -0.076400
      9 C5B         5.1430    1.4940    0.9150 ca        1 HBK     -0.066000
     10 C6B         5.7990    2.1770   -0.1050 ca        1 HBK     -0.209000
     11 C7B         5.2820    2.1570   -1.4070 ca        1 HBK      0.141100
     12 O7B         5.8570    2.7960   -2.4860 os        1 HBK     -0.320900
     13 C8B         4.0930    1.4680   -1.7030 ca        1 HBK     -0.153000
     14 C9B         7.0710    3.4950   -2.2320 c3        1 HBK      0.111700
     15 OHB         3.6690    0.2640    2.8810 oh        1 HBK     -0.419100
     16 HO1A        1.0700    1.8620    0.0850 ho        1 HBK      0.419000
     17 H2B         0.7040   -0.9420   -0.2660 h2        1 HBK      0.146700
     18 H5B         5.5500    1.5140    1.9380 ha        1 HBK      0.158000
     19 H6B         6.7230    2.7260    0.1270 ha        1 HBK      0.147000
     20 H8B         3.6860    1.4590   -2.7240 ha        1 HBK      0.175000
     21 H9B         6.9040    4.3200   -1.4970 h1        1 HBK      0.048033
     22 H9BA        7.8600    2.7940   -1.8650 h1        1 HBK      0.048033
     23 H9BB        7.3450    3.9090   -3.2360 h1        1 HBK      0.048033
     24 HOHB        3.7680   -0.5960    3.3370 ho        1 HBK      0.437000
@<TRIPOS>BOND
     1    1    4 1   
     2    1   16 1   
     3    2    3 1   
     4    2    8 ar  
     5    2   13 ar  
     6    3    4 1   
     7    4    5 1   
     8    4   17 1   
     9    5    6 1   
    10    5    7 2   
    11    6    8 1   
    12    6   15 1   
    13    8    9 ar  
    14    9   10 ar  
    15    9   18 1   
    16   10   11 ar  
    17   10   19 1   
    18   11   12 1   
    19   11   13 ar  
    20   12   14 1   
    21   13   20 1   
    22   14   21 1   
    23   14   22 1   
    24   14   23 1   
    25   15   24 1   
@<TRIPOS>SUBSTRUCTURE
     1 HBK         1 TEMP              0 ****  ****    0 ROOT
