@<TRIPOS>MOLECULE
HBK
   24    25     1     0     0
SMALL
bcc


@<TRIPOS>ATOM
      1 O1A         0.4400    0.9360   -0.0680 oh        1 HBK     -0.580800
      2 C1B         3.4130    0.9070   -0.6520 ca        1 HBK      0.121100
      3 O1B         2.3190    0.1440   -1.0270 os        1 HBK     -0.336900
      4 C2B         1.3500   -0.1200   -0.0230 c3        1 HBK      0.279900
      5 C3B         1.9580   -0.3190    1.3720 c         1 HBK      0.596500
      6 N3B         2.9370    0.6530    1.7650 n         1 HBK     -0.170500
      7 O3B         1.5260   -1.1680    2.1570 o         1 HBK     -0.543500
      8 C4B         3.7930    1.1060    0.6990 ca        1 HBK     -0.087400
      9 C5B         4.9690    1.8250    0.9660 ca        1 HBK     -0.054000
     10 C6B         5.7330    2.3490   -0.0720 ca        1 HBK     -0.216000
     11 C7B         5.3300    2.1580   -1.3990 ca        1 HBK      0.149100
     12 O7B         6.0080    2.6400   -2.4990 os        1 HBK     -0.319900
     13 C8B         4.1640    1.4360   -1.7030 ca        1 HBK     -0.160000
     14 C9B         7.2040    3.3670   -2.2350 c3        1 HBK      0.111700
     15 OHB         3.6400    0.3140    2.8540 oh        1 HBK     -0.418100
     16 HO1A        0.9100    1.7640    0.1060 ho        1 HBK      0.424000
     17 H2B         0.7980   -1.0450   -0.3600 h2        1 HBK      0.147700
     18 H5B         5.2950    1.9670    2.0100 ha        1 HBK      0.157000
     19 H6B         6.6500    2.9070    0.1660 ha        1 HBK      0.147000
     20 H8B         3.8540    1.2780   -2.7460 ha        1 HBK      0.175000
     21 H9B         6.9840    4.2820   -1.6330 h1        1 HBK      0.048367
     22 H9BA        7.5680    3.6440   -3.2570 h1        1 HBK      0.048367
     23 H9BB        7.9500    2.7210   -1.7110 h1        1 HBK      0.048367
     24 HOHB        3.0620    0.5460    3.6090 ho        1 HBK      0.434000
@<TRIPOS>BOND
     1    1    4 1   
     2    1   16 1   
     3    2    3 1   
     4    2    8 ar  
     5    2   13 ar  
     6    3    4 1   
     7    4    5 1   
     8    4   17 1   
     9    5    6 1   
    10    5    7 2   
    11    6    8 1   
    12    6   15 1   
    13    8    9 ar  
    14    9   10 ar  
    15    9   18 1   
    16   10   11 ar  
    17   10   19 1   
    18   11   12 1   
    19   11   13 ar  
    20   12   14 1   
    21   13   20 1   
    22   14   21 1   
    23   14   22 1   
    24   14   23 1   
    25   15   24 1   
@<TRIPOS>SUBSTRUCTURE
     1 HBK         1 TEMP              0 ****  ****    0 ROOT
