@<TRIPOS>MOLECULE
HBK
   24    25     1     0     0
SMALL
bcc


@<TRIPOS>ATOM
      1 O1A         0.6480    1.1990    0.1030 oh        1 HBK     -0.593800
      2 C1B         3.4660    0.8280   -0.6450 ca        1 HBK      0.133100
      3 O1B         2.3100    0.1400   -0.9800 os        1 HBK     -0.350900
      4 C2B         1.3620   -0.0090    0.0690 c3        1 HBK      0.268900
      5 C3B         1.9380   -0.2170    1.4760 c         1 HBK      0.650500
      6 N3B         3.3550   -0.0630    1.6390 n         1 HBK     -0.162500
      7 O3B         1.2330   -0.6390    2.3960 o         1 HBK     -0.548500
      8 C4B         3.9990    0.7770    0.6680 ca        1 HBK     -0.065400
      9 C5B         5.1870    1.4740    0.9370 ca        1 HBK     -0.065000
     10 C6B         5.8430    2.1700   -0.0750 ca        1 HBK     -0.210000
     11 C7B         5.3110    2.1870   -1.3700 ca        1 HBK      0.142100
     12 O7B         5.8840    2.8390   -2.4430 os        1 HBK     -0.322900
     13 C8B         4.1080    1.5230   -1.6680 ca        1 HBK     -0.159000
     14 C9B         7.0960    3.5380   -2.1800 c3        1 HBK      0.112700
     15 OHB         3.7260    0.2220    2.8930 oh        1 HBK     -0.417100
     16 HO1A        0.2980    1.3510   -0.7860 ho        1 HBK      0.432000
     17 H2B         0.7290   -0.8900   -0.2380 h2        1 HBK      0.106700
     18 H5B         5.6050    1.4690    1.9570 ha        1 HBK      0.157000
     19 H6B         6.7750    2.7020    0.1590 ha        1 HBK      0.145000
     20 H8B         3.6890    1.5460   -2.6830 ha        1 HBK      0.169000
     21 H9B         7.8900    2.8320   -1.8340 h1        1 HBK      0.047367
     22 H9BA        6.9310    4.3450   -1.4260 h1        1 HBK      0.047367
     23 H9BB        7.3630    3.9750   -3.1750 h1        1 HBK      0.047367
     24 HOHB        3.7940   -0.6470    3.3370 ho        1 HBK      0.435000
@<TRIPOS>BOND
     1    1    4 1   
     2    1   16 1   
     3    2    3 1   
     4    2    8 ar  
     5    2   13 ar  
     6    3    4 1   
     7    4    5 1   
     8    4   17 1   
     9    5    6 1   
    10    5    7 2   
    11    6    8 1   
    12    6   15 1   
    13    8    9 ar  
    14    9   10 ar  
    15    9   18 1   
    16   10   11 ar  
    17   10   19 1   
    18   11   12 1   
    19   11   13 ar  
    20   12   14 1   
    21   13   20 1   
    22   14   21 1   
    23   14   22 1   
    24   14   23 1   
    25   15   24 1   
@<TRIPOS>SUBSTRUCTURE
     1 HBK         1 TEMP              0 ****  ****    0 ROOT
