@<TRIPOS>MOLECULE
HBK
   24    25     1     0     0
SMALL
bcc


@<TRIPOS>ATOM
      1 O1A         2.4150    1.6570   -0.9300 oh        1 HBK     -0.594800
      2 C1B        -0.1160    0.6730    0.3710 ca        1 HBK      0.139100
      3 O1B         0.8710    1.5860    0.7020 os        1 HBK     -0.355900
      4 C2B         2.2120    1.2310    0.3900 c3        1 HBK      0.275900
      5 C3B         2.5150   -0.2680    0.4600 c         1 HBK      0.646500
      6 N3B         1.5120   -1.1420   -0.0630 n         1 HBK     -0.154500
      7 O3B         3.6170   -0.6820    0.8340 o         1 HBK     -0.554500
      8 C4B         0.1550   -0.6860    0.0780 ca        1 HBK     -0.070400
      9 C5B        -0.9280   -1.5480   -0.1630 ca        1 HBK     -0.057000
     10 C6B        -2.2350   -1.0740   -0.1300 ca        1 HBK     -0.216000
     11 C7B        -2.4800    0.2770    0.1450 ca        1 HBK      0.147100
     12 O7B        -3.7340    0.8510    0.1950 os        1 HBK     -0.321900
     13 C8B        -1.4220    1.1660    0.3980 ca        1 HBK     -0.166000
     14 C9B        -4.8330   -0.0160   -0.0640 c3        1 HBK      0.112700
     15 OHB         1.6530   -2.4200    0.3130 oh        1 HBK     -0.420100
     16 HO1A        2.1320    2.5810   -0.9840 ho        1 HBK      0.432000
     17 H2B         2.8430    1.7980    1.1350 h2        1 HBK      0.107700
     18 H5B        -0.7380   -2.6140   -0.3710 ha        1 HBK      0.156000
     19 H6B        -3.0630   -1.7710   -0.3210 ha        1 HBK      0.146000
     20 H8B        -1.6180    2.2230    0.6230 ha        1 HBK      0.170000
     21 H9B        -4.7640   -0.4440   -1.0930 h1        1 HBK      0.048033
     22 H9BA       -4.8800   -0.8320    0.6990 h1        1 HBK      0.048033
     23 H9BB       -5.7210    0.6600    0.0250 h1        1 HBK      0.048033
     24 HOHB        2.3100   -2.7940   -0.3080 ho        1 HBK      0.435000
@<TRIPOS>BOND
     1    1    4 1   
     2    1   16 1   
     3    2    3 1   
     4    2    8 ar  
     5    2   13 ar  
     6    3    4 1   
     7    4    5 1   
     8    4   17 1   
     9    5    6 1   
    10    5    7 2   
    11    6    8 1   
    12    6   15 1   
    13    8    9 ar  
    14    9   10 ar  
    15    9   18 1   
    16   10   11 ar  
    17   10   19 1   
    18   11   12 1   
    19   11   13 ar  
    20   12   14 1   
    21   13   20 1   
    22   14   21 1   
    23   14   22 1   
    24   14   23 1   
    25   15   24 1   
@<TRIPOS>SUBSTRUCTURE
     1 HBK         1 TEMP              0 ****  ****    0 ROOT
