@<TRIPOS>MOLECULE
HBL
   31    32     1     0     0
SMALL
bcc


@<TRIPOS>ATOM
      1 N1          0.1090   -0.4450   -0.0550 nc        1 HBL     -0.622300
      2 C2          1.3810   -0.0700   -0.0680 cd        1 HBL      0.559800
      3 N2          2.0760   -0.2180   -1.3970 n4        1 HBL     -0.808600
      4 N3          2.1140    0.4300    0.9910 n         1 HBL     -0.496400
      5 C4          1.4750    0.5890    2.2760 c         1 HBL      0.743700
      6 O4          2.1980    1.0350    3.1650 o         1 HBL     -0.517500
      7 C4A         0.0670    0.1950    2.3280 cd        1 HBL     -0.081600
      8 C8A        -0.5780   -0.3190    1.1730 cc        1 HBL      0.398600
      9 N5         -0.5940    0.3570    3.5510 nf        1 HBL     -0.517300
     10 N8         -1.8930   -0.6990    1.2310 nh        1 HBL     -0.736000
     11 C6         -1.8420   -0.0030    3.6200 c2        1 HBL      0.422300
     12 C7         -2.6330   -0.6110    2.4730 c3        1 HBL      0.139500
     13 C8         -2.6440    0.1950    4.8940 c3        1 HBL      0.070800
     14 O9         -3.7680   -0.6680    4.7850 oh        1 HBL     -0.611800
     15 C9         -1.8190   -0.0850    6.1730 c3        1 HBL      0.132100
     16 C10        -2.7130   -0.4260    7.3540 c3        1 HBL     -0.108100
     17 O10        -1.1190    1.0940    6.5310 oh        1 HBL     -0.590800
     18 HN21        1.4160   -0.6010   -2.0920 hn        1 HBL      0.483800
     19 HN22        2.8700   -0.8610   -1.2980 hn        1 HBL      0.483800
     20 HN3         3.0740    0.6930    0.9140 hn        1 HBL      0.352500
     21 HN8        -2.3650   -1.0520    0.4300 hn        1 HBL      0.471800
     22 HC71       -3.5600    0.0130    2.3010 h1        1 HBL      0.092200
     23 HC72       -2.9660   -1.6490    2.7780 h1        1 HBL      0.092200
     24 HC8        -2.9890    1.2720    4.9180 h1        1 HBL      0.084700
     25 HO9        -4.3540   -0.4610    5.5250 ho        1 HBL      0.433000
     26 HC9        -1.1050   -0.9330    5.9840 h1        1 HBL      0.052700
     27 H101       -3.2030   -1.4140    7.1880 hc        1 HBL      0.056367
     28 H102       -3.4900    0.3620    7.5000 hc        1 HBL      0.056367
     29 H103       -2.0930   -0.4760    8.2820 hc        1 HBL      0.056367
     30 H10O       -0.3270    1.1470    5.9830 ho        1 HBL      0.422000
     31 H23         2.4050    0.7010   -1.7150 hn        1 HBL      0.483800
@<TRIPOS>BOND
     1    1    2 2   
     2    1    8 1   
     3    2    3 1   
     4    2    4 1   
     5    3   18 1   
     6    3   19 1   
     7    3   31 1   
     8    4    5 1   
     9    4   20 1   
    10    5    6 2   
    11    5    7 1   
    12    7    8 2   
    13    7    9 1   
    14    8   10 1   
    15    9   11 2   
    16   10   12 1   
    17   10   21 1   
    18   11   12 1   
    19   11   13 1   
    20   12   22 1   
    21   12   23 1   
    22   13   14 1   
    23   13   15 1   
    24   13   24 1   
    25   14   25 1   
    26   15   16 1   
    27   15   17 1   
    28   15   26 1   
    29   16   27 1   
    30   16   28 1   
    31   16   29 1   
    32   17   30 1   
@<TRIPOS>SUBSTRUCTURE
     1 HBL         1 TEMP              0 ****  ****    0 ROOT
