@<TRIPOS>MOLECULE
HBL
   30    31     1     0     0
SMALL
bcc


@<TRIPOS>ATOM
      1 N1          0.1090   -0.5400   -0.0410 nc        1 HBL     -0.742300
      2 C2          1.4030   -0.1470   -0.1050 cd        1 HBL      0.722800
      3 N2          2.1230   -0.4200   -1.2810 nv        1 HBL     -0.905800
      4 N3          2.0780    0.4670    0.9540 ns        1 HBL     -0.511400
      5 C4          1.4490    0.6690    2.2160 c         1 HBL      0.751700
      6 O4          2.1480    1.1990    3.0940 o         1 HBL     -0.610500
      7 C4A         0.0620    0.2300    2.3120 cd        1 HBL     -0.192600
      8 C8A        -0.5550   -0.3690    1.1720 cc        1 HBL      0.455600
      9 N5         -0.6060    0.4140    3.5210 nf        1 HBL     -0.482300
     10 N8         -1.8630   -0.7840    1.2580 nu        1 HBL     -0.752000
     11 C6         -1.8390    0.0110    3.6070 c2        1 HBL      0.332300
     12 C7         -2.6110   -0.6580    2.4860 c3        1 HBL      0.163500
     13 C8         -2.6320    0.2270    4.8800 c3        1 HBL      0.082800
     14 O9         -3.7870   -0.6010    4.7890 oh        1 HBL     -0.606800
     15 C9         -1.8050   -0.0900    6.1490 c3        1 HBL      0.130100
     16 C10        -2.6860   -0.4720    7.3260 c3        1 HBL     -0.102100
     17 O10        -1.0960    1.0720    6.5490 oh        1 HBL     -0.606800
     18 HN21        2.8720    0.1930   -1.5040 hn        1 HBL      0.430800
     19 HN22        1.5850   -0.7400   -2.0560 hn        1 HBL      0.430800
     20 HN3         3.0410    0.7130    0.8780 hn        1 HBL      0.334500
     21 HN8        -2.3070   -1.2210    0.4850 hn        1 HBL      0.455800
     22 HC71       -2.9300   -1.6870    2.8320 h1        1 HBL      0.061200
     23 HC72       -3.5480   -0.0600    2.2830 h1        1 HBL      0.061200
     24 HC8        -2.9490    1.3110    4.9210 h1        1 HBL      0.064700
     25 HO9        -4.3680   -0.3390    5.5140 ho        1 HBL      0.413000
     26 HC9        -1.0880   -0.9290    5.9290 h1        1 HBL      0.052700
     27 H101       -3.1920   -1.4450    7.1190 hc        1 HBL      0.046700
     28 H102       -3.4530    0.3160    7.5150 hc        1 HBL      0.046700
     29 H103       -2.0560   -0.5740    8.2420 hc        1 HBL      0.046700
     30 H10O       -0.3890    1.2180    5.9070 ho        1 HBL      0.430000
@<TRIPOS>BOND
     1    1    2 2   
     2    1    8 1   
     3    2    3 1   
     4    2    4 1   
     5    3   18 1   
     6    3   19 1   
     7    4    5 1   
     8    4   20 1   
     9    5    6 2   
    10    5    7 1   
    11    7    8 2   
    12    7    9 1   
    13    8   10 1   
    14    9   11 2   
    15   10   12 1   
    16   10   21 1   
    17   11   12 1   
    18   11   13 1   
    19   12   22 1   
    20   12   23 1   
    21   13   14 1   
    22   13   15 1   
    23   13   24 1   
    24   14   25 1   
    25   15   16 1   
    26   15   17 1   
    27   15   26 1   
    28   16   27 1   
    29   16   28 1   
    30   16   29 1   
    31   17   30 1   
@<TRIPOS>SUBSTRUCTURE
     1 HBL         1 TEMP              0 ****  ****    0 ROOT
