@<TRIPOS>MOLECULE
HBL
   30    27     1     0     0
SMALL
bcc


@<TRIPOS>ATOM
      1 N1          1.2920   -0.2900   -3.2220 n1        1 HBL     -0.314000
      2 C2          2.6540   -0.2320   -3.2290 c1        1 HBL      0.274000
      3 N2          3.3690   -0.1420   -4.4850 n3        1 HBL     -0.343000
      4 N3          3.3500   -0.1600   -2.0350 n2        1 HBL     -0.351000
      5 C4          2.6830   -0.1470   -0.8610 c1        1 HBL      0.390000
      6 O4          3.2720    0.0430    0.1490 o         1 HBL     -0.335000
      7 C4A         1.2950   -0.2060   -0.8500 c1        1 HBL     -0.311000
      8 C8A         0.6090   -0.2770   -2.0270 c1        1 HBL      0.233000
      9 N5          0.5650   -0.1180    0.4140 n2        1 HBL     -0.042000
     10 N8         -0.8390   -0.1920   -2.0270 n3        1 HBL     -0.305000
     11 C6         -0.8380   -0.3510    0.4390 c1        1 HBL     -0.131000
     12 C7         -1.5870   -0.5710   -0.8490 c2        1 HBL     -0.007000
     13 C8         -1.6020   -0.4460    1.8150 c3        1 HBL      0.095000
     14 O9         -1.0700   -1.5040    2.5750 oh        1 HBL     -0.314000
     15 C9         -1.4460    0.8080    2.5550 c3        1 HBL     -0.004000
     16 C10        -2.1700    0.6990    3.9160 c3        1 HBL     -0.248000
     17 O10        -2.0040    1.8690    1.8130 oh        1 HBL     -0.336000
     18 HN21        4.2750    0.0360   -4.4880 hn        1 HBL      0.224500
     19 HN22        2.9130   -0.3050   -5.3060 hn        1 HBL      0.224500
     20 HN3         4.2770   -0.1200   -2.0420 hn        1 HBL      0.247000
     21 HN8        -1.0990    0.6520   -2.2960 hn        1 HBL      0.250000
     22 HC71       -2.4900   -0.2500   -0.8720 h4        1 HBL      0.098500
     23 HC72       -1.7580   -1.5740   -0.8960 h4        1 HBL      0.098500
     24 HC8        -2.5510   -0.6100    1.6470 h1        1 HBL      0.127000
     25 HO9        -1.6840   -2.1990    2.6120 ho        1 HBL      0.221000
     26 HC9        -0.4480    0.9890    2.7100 h1        1 HBL      0.091000
     27 H101       -3.1230    0.4190    3.7690 hc        1 HBL      0.088000
     28 H102       -1.7300    0.0570    4.4560 hc        1 HBL      0.088000
     29 H103       -2.1550    1.5380    4.3490 hc        1 HBL      0.088000
     30 H10O       -1.9620    2.5830    2.2680 ho        1 HBL      0.204000
@<TRIPOS>BOND
     1    1    8 1   
     2    2    3 1   
     3    2    4 1   
     4    3   18 1   
     5    3   19 1   
     6    4   20 1   
     7    5    6 1   
     8    5    7 1   
     9    7    9 1   
    10    8   10 1   
    11    9   11 1   
    12   10   12 1   
    13   10   21 1   
    14   11   13 1   
    15   12   22 1   
    16   12   23 1   
    17   13   14 1   
    18   13   15 1   
    19   13   24 1   
    20   14   25 1   
    21   15   16 1   
    22   15   17 1   
    23   15   26 1   
    24   16   27 1   
    25   16   28 1   
    26   16   29 1   
    27   17   30 1   
@<TRIPOS>SUBSTRUCTURE
     1 HBL         1 TEMP              0 ****  ****    0 ROOT
