@<TRIPOS>MOLECULE
HBL
   30    31     1     0     0
SMALL
bcc


@<TRIPOS>ATOM
      1 N1         -0.8740    0.5880   -2.8600 nc        1 HBL     -0.742300
      2 C2          0.0200   -0.0160   -3.6790 cd        1 HBL      0.722800
      3 N2          0.0220    0.3420   -5.0380 nh        1 HBL     -0.905800
      4 N3          0.9730   -0.9370   -3.2370 n         1 HBL     -0.511400
      5 C4          1.1130   -1.2540   -1.8560 c         1 HBL      0.751700
      6 O4          2.0110   -2.0620   -1.5730 o         1 HBL     -0.608500
      7 C4A         0.1800   -0.5910   -0.9540 cd        1 HBL     -0.190600
      8 C8A        -0.7850    0.3110   -1.4970 cc        1 HBL      0.456600
      9 N5          0.2800   -0.8530    0.4120 nf        1 HBL     -0.464300
     10 N8         -1.6770    0.9310   -0.6530 nh        1 HBL     -0.749000
     11 C6         -0.5670   -0.2730    1.2080 c2        1 HBL      0.299300
     12 C7         -1.6600    0.6820    0.7670 c3        1 HBL      0.153500
     13 C8         -0.5220   -0.4630    2.7100 c3        1 HBL      0.098800
     14 O9         -0.1740   -1.7730    3.1020 oh        1 HBL     -0.584800
     15 C9          0.4260    0.5890    3.3360 c3        1 HBL      0.104100
     16 C10         0.8640    0.1720    4.7260 c3        1 HBL     -0.124100
     17 O10        -0.2170    1.8550    3.3530 oh        1 HBL     -0.598800
     18 HN21       -0.7460    0.9000   -5.3430 hn        1 HBL      0.430300
     19 HN22        0.3340   -0.3450   -5.6850 hn        1 HBL      0.430300
     20 HN3         1.6320   -1.3380   -3.8680 hn        1 HBL      0.334500
     21 HN8        -2.3220    1.6000   -1.0030 hn        1 HBL      0.455800
     22 HC71       -2.6630    0.2540    1.0670 h1        1 HBL      0.056200
     23 HC72       -1.5180    1.6620    1.3170 h1        1 HBL      0.056200
     24 HC8        -1.5620   -0.3240    3.1270 h1        1 HBL      0.072700
     25 HO9         0.6720   -1.9980    2.6920 ho        1 HBL      0.424000
     26 HC9         1.3220    0.7450    2.6710 h1        1 HBL      0.090700
     27 H101        1.4660    0.9870    5.1940 hc        1 HBL      0.049033
     28 H102       -0.0250   -0.0380    5.3690 hc        1 HBL      0.049033
     29 H103        1.4820   -0.7550    4.6680 hc        1 HBL      0.049033
     30 H10O       -0.8810    1.8310    4.0520 ho        1 HBL      0.397000
@<TRIPOS>BOND
     1    1    2 2   
     2    1    8 1   
     3    2    3 1   
     4    2    4 1   
     5    3   18 1   
     6    3   19 1   
     7    4    5 1   
     8    4   20 1   
     9    5    6 2   
    10    5    7 1   
    11    7    8 2   
    12    7    9 1   
    13    8   10 1   
    14    9   11 2   
    15   10   12 1   
    16   10   21 1   
    17   11   12 1   
    18   11   13 1   
    19   12   22 1   
    20   12   23 1   
    21   13   14 1   
    22   13   15 1   
    23   13   24 1   
    24   14   25 1   
    25   15   16 1   
    26   15   17 1   
    27   15   26 1   
    28   16   27 1   
    29   16   28 1   
    30   16   29 1   
    31   17   30 1   
@<TRIPOS>SUBSTRUCTURE
     1 HBL         1 TEMP              0 ****  ****    0 ROOT
