@<TRIPOS>MOLECULE
HBM
   54    57     1     0     0
SMALL
bcc


@<TRIPOS>ATOM
      1 C2          0.3090   -3.5760    3.4300 ca        1 HBM     -0.037000
      2 C4          2.6250   -3.8210    2.7070 ca        1 HBM      0.225100
      3 C6          0.7780   -3.6300    1.0910 ca        1 HBM      0.017800
      4 C10         2.2510   -3.7310   -2.2540 ca        1 HBM     -0.106900
      5 C11         3.3150   -2.9430   -2.7170 ca        1 HBM     -0.073000
      6 C1         -0.1770   -3.5430    2.1240 ca        1 HBM     -0.192600
      7 C3          1.6700   -3.7120    3.7250 ca        1 HBM     -0.211000
      8 C5          2.1950   -3.7770    1.3670 ca        1 HBM     -0.033600
      9 N7          0.6620   -3.6090   -0.2930 na        1 HBM     -0.242300
     10 C8          1.9700   -3.7410   -0.8160 cc        1 HBM      0.460400
     11 N9          2.9080   -3.8430    0.1580 nd        1 HBM     -0.560100
     12 C12         3.6310   -2.8980   -4.0720 ca        1 HBM     -0.130000
     13 C13         2.8790   -3.6510   -4.9800 ca        1 HBM      0.036400
     14 C14         1.8210   -4.4490   -4.5380 ca        1 HBM     -0.127000
     15 C15         1.5110   -4.4900   -3.1750 ca        1 HBM      0.039400
     16 CL16        3.2540   -3.6000   -6.6340 cl        1 HBM     -0.075400
     17 CL17        0.2320   -5.4930   -2.6800 cl        1 HBM     -0.070400
     18 C18        -1.6090   -3.4110    1.7600 c         1 HBM      0.687700
     19 N19        -2.5660   -3.7280    2.7040 n         1 HBM     -0.556900
     20 C20        -3.9690   -3.5310    2.4740 c3        1 HBM      0.091000
     21 C21        -4.6070   -2.4210    3.3190 c3        1 HBM     -0.063100
     22 C22        -4.5140   -2.6950    4.7770 ca        1 HBM     -0.110300
     23 C23        -5.3170   -3.6780    5.3660 ca        1 HBM     -0.100000
     24 C24        -5.2480   -3.9360    6.7290 ca        1 HBM     -0.175500
     25 C25        -4.3580   -3.2070    7.5510 ca        1 HBM      0.163600
     26 C26        -3.5410   -2.2220    6.9530 ca        1 HBM     -0.175500
     27 C27        -3.6320   -1.9740    5.5870 ca        1 HBM     -0.100000
     28 N28        -4.2980   -3.4740    8.9280 nh        1 HBM     -0.780500
     29 S29        -3.7510   -2.5060   10.1210 s6        1 HBM      1.469900
     30 C30        -4.9130   -1.2690   10.1840 c3        1 HBM     -0.372300
     31 O31        -3.8180   -3.2450   11.3190 o         1 HBM     -0.648300
     32 O32        -2.5150   -1.9190    9.8000 o         1 HBM     -0.648300
     33 O33        -1.9550   -3.0720    0.6030 o         1 HBM     -0.648100
     34 O34         3.9330   -3.9600    3.0780 oh        1 HBM     -0.486100
     35 H2         -0.3780   -3.4820    4.2860 ha        1 HBM      0.134000
     36 H11         3.9080   -2.3550   -1.9980 ha        1 HBM      0.162000
     37 H3          2.0070   -3.7340    4.7720 ha        1 HBM      0.158000
     38 HN7        -0.1880   -3.4940   -0.7930 hn        1 HBM      0.343700
     39 H12         4.4680   -2.2750   -4.4220 ha        1 HBM      0.157000
     40 H14         1.2370   -5.0470   -5.2560 ha        1 HBM      0.166000
     41 HN19       -2.2900   -3.9080    3.6390 hn        1 HBM      0.313500
     42 H201       -4.4970   -4.5020    2.7080 h1        1 HBM      0.065200
     43 H202       -4.1330   -3.2890    1.3850 h1        1 HBM      0.065200
     44 H211       -4.1270   -1.4360    3.0780 hc        1 HBM      0.061200
     45 H212       -5.6870   -2.3500    3.0190 hc        1 HBM      0.061200
     46 H23        -6.0160   -4.2550    4.7410 ha        1 HBM      0.139000
     47 H24        -5.8910   -4.7180    7.1620 ha        1 HBM      0.151500
     48 H26        -2.8120   -1.6500    7.5530 ha        1 HBM      0.151500
     49 H27        -2.9920   -1.1950    5.1420 ha        1 HBM      0.139000
     50 HN28       -4.6750   -4.3660    9.1670 hn        1 HBM      0.458800
     51 H301       -5.9130   -1.6200   10.5390 h1        1 HBM      0.119700
     52 H302       -4.5920   -0.4690   10.8990 h1        1 HBM      0.119700
     53 H303       -5.0830   -0.7560    9.2050 h1        1 HBM      0.119700
     54 HO34        4.4760   -4.0340    2.2780 ho        1 HBM      0.446000
@<TRIPOS>BOND
     1    1    6 ar  
     2    1    7 ar  
     3    1   35 1   
     4    2    7 ar  
     5    2    8 ar  
     6    2   34 1   
     7    3    6 ar  
     8    3    8 ar  
     9    3    9 1   
    10    4    5 ar  
    11    4   10 1   
    12    4   15 ar  
    13    5   12 ar  
    14    5   36 1   
    15    6   18 1   
    16    7   37 1   
    17    8   11 1   
    18    9   10 1   
    19    9   38 1   
    20   10   11 2   
    21   12   13 ar  
    22   12   39 1   
    23   13   14 ar  
    24   13   16 1   
    25   14   15 ar  
    26   14   40 1   
    27   15   17 1   
    28   18   19 1   
    29   18   33 2   
    30   19   20 1   
    31   19   41 1   
    32   20   21 1   
    33   20   42 1   
    34   20   43 1   
    35   21   22 1   
    36   21   44 1   
    37   21   45 1   
    38   22   23 ar  
    39   22   27 ar  
    40   23   24 ar  
    41   23   46 1   
    42   24   25 ar  
    43   24   47 1   
    44   25   26 ar  
    45   25   28 1   
    46   26   27 ar  
    47   26   48 1   
    48   27   49 1   
    49   28   29 1   
    50   28   50 1   
    51   29   30 1   
    52   29   31 2   
    53   29   32 2   
    54   30   51 1   
    55   30   52 1   
    56   30   53 1   
    57   34   54 1   
@<TRIPOS>SUBSTRUCTURE
     1 HBM         1 TEMP              0 ****  ****    0 ROOT
