@<TRIPOS>MOLECULE
HBM
   55    58     1     0     0
SMALL
bcc


@<TRIPOS>ATOM
      1 C2          0.9500   -0.6110    0.7710 ca        1 HBM     -0.022000
      2 C4         -0.0690    0.5700    2.6480 ca        1 HBM      0.298100
      3 C6          2.3760    0.5620    2.3150 ca        1 HBM      0.056800
      4 C10         3.8280    2.5480    5.0190 ca        1 HBM     -0.145900
      5 C11         3.4570    3.8460    5.4010 ca        1 HBM     -0.062000
      6 C1          2.2600   -0.2430    1.1550 ca        1 HBM     -0.275600
      7 C3         -0.1710   -0.2280    1.4780 ca        1 HBM     -0.198000
      8 C5          1.2050    0.9740    3.0720 ca        1 HBM     -0.049600
      9 N7          3.4620    1.1110    2.9680 na        1 HBM     -0.251300
     10 C8          2.9510    1.8200    4.0990 cc        1 HBM      0.505400
     11 N9          1.6060    1.7550    4.1740 nd        1 HBM     -0.533100
     12 C12         4.2470    4.5790    6.2810 ca        1 HBM     -0.126000
     13 C13         5.4210    4.0130    6.7930 ca        1 HBM      0.050400
     14 C14         5.8000    2.7160    6.4300 ca        1 HBM     -0.122000
     15 C15         5.0020    1.9860    5.5450 ca        1 HBM      0.045400
     16 CL16        6.3890    4.8980    7.8610 cl        1 HBM     -0.042400
     17 CL17        5.4860    0.4040    5.1520 cl        1 HBM     -0.077400
     18 C18         3.4660   -0.6210    0.4700 c         1 HBM      0.584700
     19 N19         3.3550   -1.5780   -0.7020 n4        1 HBM     -0.670800
     20 C20         3.0740   -0.8540   -1.9770 c3        1 HBM      0.109800
     21 C21         3.0590   -1.7910   -3.1840 c3        1 HBM     -0.049100
     22 C22         4.2810   -2.6320   -3.2440 ca        1 HBM     -0.192300
     23 C23         5.4250   -2.1890   -3.9170 ca        1 HBM     -0.092500
     24 C24         6.5700   -2.9720   -3.9650 ca        1 HBM     -0.178500
     25 C25         6.6070   -4.2410   -3.3340 ca        1 HBM      0.218600
     26 C26         5.4360   -4.6920   -2.6750 ca        1 HBM     -0.178500
     27 C27         4.3000   -3.8950   -2.6420 ca        1 HBM     -0.092500
     28 N28         7.7720   -5.0050   -3.3720 nh        1 HBM     -0.764500
     29 S29         8.0990   -6.4680   -2.6750 s6        1 HBM      1.468900
     30 C30         7.6140   -7.5640   -3.8640 c3        1 HBM     -0.383300
     31 O31         9.4910   -6.5400   -2.5210 o         1 HBM     -0.636300
     32 O32         7.2970   -6.6550   -1.5370 o         1 HBM     -0.636300
     33 O33         4.6260   -0.2850    0.7160 o         1 HBM     -0.492100
     34 O34        -1.2230    0.8880    3.2740 oh        1 HBM     -0.450100
     35 H2          0.7880   -1.2230   -0.1310 ha        1 HBM      0.125000
     36 H11         2.5280    4.2890    5.0050 ha        1 HBM      0.163000
     37 H3         -1.1780   -0.5350    1.1490 ha        1 HBM      0.181000
     38 HN7         4.4180    0.9920    2.7300 hn        1 HBM      0.340700
     39 H12         3.9460    5.5980    6.5740 ha        1 HBM      0.169000
     40 H14         6.7200    2.2690    6.8450 ha        1 HBM      0.177000
     41 HN19        4.2510   -2.0830   -0.8100 hn        1 HBM      0.460800
     42 H201        2.0790   -0.3350   -1.8740 hx        1 HBM      0.105700
     43 H202        3.8820   -0.0770   -2.1040 hx        1 HBM      0.105700
     44 H211        2.9820   -1.1420   -4.1010 hc        1 HBM      0.086200
     45 H212        2.1410   -2.4380   -3.1570 hc        1 HBM      0.086200
     46 H23         5.4200   -1.2100   -4.4230 ha        1 HBM      0.136000
     47 H24         7.4550   -2.5940   -4.5030 ha        1 HBM      0.166000
     48 H26         5.4120   -5.6720   -2.1660 ha        1 HBM      0.166000
     49 H27         3.3940   -4.2860   -2.1530 ha        1 HBM      0.136000
     50 HN28        8.5180   -4.5500   -3.8580 hn        1 HBM      0.459800
     51 H301        7.7760   -8.6190   -3.5140 h1        1 HBM      0.128700
     52 H302        8.1850   -7.4770   -4.8220 h1        1 HBM      0.128700
     53 H303        6.5310   -7.5000   -4.1350 h1        1 HBM      0.128700
     54 HO34       -1.0340    1.4250    4.0660 ho        1 HBM      0.472000
     55 H192        2.6200   -2.2680   -0.5250 hn        1 HBM      0.460800
@<TRIPOS>BOND
     1    1    6 ar  
     2    1    7 ar  
     3    1   35 1   
     4    2    7 ar  
     5    2    8 ar  
     6    2   34 1   
     7    3    6 ar  
     8    3    8 ar  
     9    3    9 1   
    10    4    5 ar  
    11    4   10 1   
    12    4   15 ar  
    13    5   12 ar  
    14    5   36 1   
    15    6   18 1   
    16    7   37 1   
    17    8   11 1   
    18    9   10 1   
    19    9   38 1   
    20   10   11 2   
    21   12   13 ar  
    22   12   39 1   
    23   13   14 ar  
    24   13   16 1   
    25   14   15 ar  
    26   14   40 1   
    27   15   17 1   
    28   18   19 1   
    29   18   33 2   
    30   19   20 1   
    31   19   41 1   
    32   19   55 1   
    33   20   21 1   
    34   20   42 1   
    35   20   43 1   
    36   21   22 1   
    37   21   44 1   
    38   21   45 1   
    39   22   23 ar  
    40   22   27 ar  
    41   23   24 ar  
    42   23   46 1   
    43   24   25 ar  
    44   24   47 1   
    45   25   26 ar  
    46   25   28 1   
    47   26   27 ar  
    48   26   48 1   
    49   27   49 1   
    50   28   29 1   
    51   28   50 1   
    52   29   30 1   
    53   29   31 2   
    54   29   32 2   
    55   30   51 1   
    56   30   52 1   
    57   30   53 1   
    58   34   54 1   
@<TRIPOS>SUBSTRUCTURE
     1 HBM         1 TEMP              0 ****  ****    0 ROOT
