@<TRIPOS>MOLECULE
HBM
   56    58     1     0     0
SMALL
bcc


@<TRIPOS>ATOM
      1 C2          0.7310   -0.2350    0.5600 ca        1 HBM     -0.026000
      2 C4         -0.3920    1.3620    2.0260 ca        1 HBM      0.314100
      3 C6          1.9840    0.7760    2.3550 ca        1 HBM      0.062800
      4 C10         3.1660    2.7090    5.2250 ca        1 HBM     -0.153900
      5 C11         3.0190    4.0880    5.4330 ca        1 HBM     -0.059000
      6 C1          1.9620   -0.1230    1.2570 ca        1 HBM     -0.284600
      7 C3         -0.3970    0.4660    0.9170 ca        1 HBM     -0.190000
      8 C5          0.7980    1.5240    2.7460 ca        1 HBM     -0.054600
      9 N7          2.9750    1.1490    3.2370 na        1 HBM     -0.250300
     10 C8          2.3910    2.0860    4.1500 cc        1 HBM      0.513400
     11 N9          1.0960    2.3260    3.8660 nd        1 HBM     -0.525100
     12 C12         3.7190    4.7290    6.4520 ca        1 HBM     -0.123000
     13 C13         4.5730    3.9900    7.2790 ca        1 HBM      0.054400
     14 C14         4.7210    2.6100    7.0910 ca        1 HBM     -0.121000
     15 C15         4.0180    1.9740    6.0660 ca        1 HBM      0.047400
     16 CL16        5.4270    4.7600    8.5170 cl        1 HBM     -0.030400
     17 CL17        4.2090    0.2920    5.8920 cl        1 HBM     -0.085400
     18 C18         3.1600   -0.8370    0.9500 c         1 HBM      0.587700
     19 N19         3.0990   -1.9050   -0.1490 n4        1 HBM     -0.677800
     20 C20         3.3660   -1.3120   -1.4880 c3        1 HBM      0.109800
     21 C21         3.4880   -2.3430   -2.6040 c3        1 HBM     -0.072100
     22 C22         4.7520   -3.1280   -2.5650 ca        1 HBM     -0.099300
     23 C23         5.9890   -2.4920   -2.7360 ca        1 HBM     -0.102500
     24 C24         7.1710   -3.2260   -2.7660 ca        1 HBM     -0.114500
     25 C25         7.1320   -4.6290   -2.6400 ca        1 HBM     -0.002400
     26 C26         5.8910   -5.2710   -2.4660 ca        1 HBM     -0.114500
     27 C27         4.7180   -4.5210   -2.4350 ca        1 HBM     -0.102500
     28 N28         8.3420   -5.4080   -2.6870 nh        1 HBM     -0.889200
     29 S29         8.4640   -6.9650   -4.3480 s4        1 HBM      1.623500
     30 C30         8.6670   -5.9270   -5.5580 c3        1 HBM     -0.548800
     31 O31         9.5860   -7.5260   -3.8390 o         1 HBM     -0.409400
     32 O32         7.2170   -7.4600   -4.1660 o         1 HBM     -0.409400
     33 O33         4.2810   -0.7540    1.4530 o         1 HBM     -0.504100
     34 O34        -1.5500    1.9950    2.2990 oh        1 HBM     -0.439100
     35 H2          0.6500   -0.9010   -0.3140 ha        1 HBM      0.119000
     36 H11         2.3400    4.6720    4.7900 ha        1 HBM      0.164000
     37 H3         -1.3390    0.3540    0.3540 ha        1 HBM      0.186000
     38 HN7         3.9010    0.7960    3.2740 hn        1 HBM      0.339700
     39 H12         3.5950    5.8140    6.6060 ha        1 HBM      0.173000
     40 H14         5.3840    2.0280    7.7540 ha        1 HBM      0.178000
     41 HN19        2.1820   -2.3600   -0.1410 hn        1 HBM      0.452300
     42 H201        2.5190   -0.6030   -1.7230 hx        1 HBM      0.114700
     43 H202        4.3210   -0.7140   -1.4070 hx        1 HBM      0.114700
     44 H211        2.5990   -3.0320   -2.6030 hc        1 HBM      0.098200
     45 H212        3.4500   -1.7700   -3.5760 hc        1 HBM      0.098200
     46 H23         6.0350   -1.3960   -2.8580 ha        1 HBM      0.162500
     47 H24         8.1280   -2.6920   -2.8860 ha        1 HBM      0.168500
     48 H26         5.8270   -6.3700   -2.3680 ha        1 HBM      0.168500
     49 H27         3.7540   -5.0470   -2.3240 ha        1 HBM      0.162500
     50 HN28        9.1470   -4.7980   -2.7380 hn        1 HBM      0.425300
     51 H301        7.9200   -5.0810   -5.6190 h1        1 HBM      0.199033
     52 H302        8.5840   -6.3940   -6.5920 h1        1 HBM      0.199033
     53 H303        9.6760   -5.4170   -5.6020 h1        1 HBM      0.199033
     54 HO34       -1.4430    2.5730    3.0790 ho        1 HBM      0.480000
     55 H192        3.8170   -2.6110    0.0520 hn        1 HBM      0.452300
     56 H282        8.4190   -5.9540   -1.8360 hn        1 HBM      0.425300
@<TRIPOS>BOND
     1    1    6 ar  
     2    1    7 ar  
     3    1   35 1   
     4    2    7 ar  
     5    2    8 ar  
     6    2   34 1   
     7    3    6 ar  
     8    3    8 ar  
     9    3    9 1   
    10    4    5 ar  
    11    4   10 1   
    12    4   15 ar  
    13    5   12 ar  
    14    5   36 1   
    15    6   18 1   
    16    7   37 1   
    17    8   11 1   
    18    9   10 1   
    19    9   38 1   
    20   10   11 2   
    21   12   13 ar  
    22   12   39 1   
    23   13   14 ar  
    24   13   16 1   
    25   14   15 ar  
    26   14   40 1   
    27   15   17 1   
    28   18   19 1   
    29   18   33 2   
    30   19   20 1   
    31   19   41 1   
    32   19   55 1   
    33   20   21 1   
    34   20   42 1   
    35   20   43 1   
    36   21   22 1   
    37   21   44 1   
    38   21   45 1   
    39   22   23 ar  
    40   22   27 ar  
    41   23   24 ar  
    42   23   46 1   
    43   24   25 ar  
    44   24   47 1   
    45   25   26 ar  
    46   25   28 1   
    47   26   27 ar  
    48   26   48 1   
    49   27   49 1   
    50   28   50 1   
    51   28   56 1   
    52   29   30 1   
    53   29   31 1   
    54   29   32 1   
    55   30   51 1   
    56   30   52 1   
    57   30   53 1   
    58   34   54 1   
@<TRIPOS>SUBSTRUCTURE
     1 HBM         1 TEMP              0 ****  ****    0 ROOT
