@<TRIPOS>MOLECULE
HBM
   55    58     1     0     0
SMALL
bcc


@<TRIPOS>ATOM
      1 C2          0.9190   -0.7850    0.7170 ca        1 HBM     -0.022000
      2 C4         -0.1880    0.2350    2.6380 ca        1 HBM      0.298100
      3 C6          2.2630    0.3330    2.3710 ca        1 HBM      0.056800
      4 C10         3.5730    2.1880    5.2360 ca        1 HBM     -0.145900
      5 C11         3.1460    3.4440    5.6910 ca        1 HBM     -0.062000
      6 C1          2.2050   -0.3980    1.1600 ca        1 HBM     -0.275600
      7 C3         -0.2330   -0.4880    1.4160 ca        1 HBM     -0.198000
      8 C5          1.0580    0.6540    3.1220 ca        1 HBM     -0.049600
      9 N7          3.3110    0.8750    3.0880 na        1 HBM     -0.251300
     10 C8          2.7470    1.4910    4.2480 cc        1 HBM      0.505400
     11 N9          1.4040    1.3750    4.2820 nd        1 HBM     -0.533100
     12 C12         3.8880    4.1440    6.6370 ca        1 HBM     -0.126000
     13 C13         5.0680    3.5870    7.1440 ca        1 HBM      0.050400
     14 C14         5.5030    2.3300    6.7090 ca        1 HBM     -0.122000
     15 C15         4.7540    1.6330    5.7580 ca        1 HBM      0.045400
     16 Cl16        5.9770    4.4330    8.2920 cl        1 HBM     -0.042400
     17 Cl17        5.3040    0.0970    5.2770 cl        1 HBM     -0.077400
     18 C18         3.4410   -0.6890    0.4850 c         1 HBM      0.584700
     19 N19         3.3930   -1.5710   -0.7480 ny        1 HBM     -0.670800
     20 C20         3.1180   -0.7770   -1.9820 c3        1 HBM      0.109800
     21 C21         3.1700   -1.6330   -3.2470 c3        1 HBM     -0.049100
     22 C22         4.4250   -2.4220   -3.3260 ca        1 HBM     -0.192300
     23 C23         5.5670   -1.8940   -3.9370 ca        1 HBM     -0.092500
     24 C24         6.7430   -2.6290   -4.0030 ca        1 HBM     -0.178500
     25 C25         6.8130   -3.9340   -3.4540 ca        1 HBM      0.218600
     26 C26         5.6440   -4.4700   -2.8580 ca        1 HBM     -0.178500
     27 C27         4.4770   -3.7210   -2.8060 ca        1 HBM     -0.092500
     28 N28         8.0070   -4.6500   -3.5080 nu        1 HBM     -0.764500
     29 S29         8.3730   -6.1430   -2.8980 s6        1 HBM      1.468900
     30 C30         7.9600   -7.1760   -4.1690 c3        1 HBM     -0.383300
     31 O31         9.7620   -6.1730   -2.7110 o         1 HBM     -0.636300
     32 O32         7.5500   -6.4330   -1.7970 o         1 HBM     -0.636300
     33 O33         4.5810   -0.3290    0.7830 o         1 HBM     -0.492100
     34 O34        -1.3690    0.4720    3.2510 oh        1 HBM     -0.450100
     35 H2          0.8020   -1.3420   -0.2270 ha        1 HBM      0.125000
     36 H11         2.2130    3.8800    5.2990 ha        1 HBM      0.163000
     37 H3         -1.2190   -0.8080    1.0410 ha        1 HBM      0.181000
     38 HN7         4.2760    0.8060    2.8690 hn        1 HBM      0.340700
     39 H12         3.5430    5.1310    6.9870 ha        1 HBM      0.169000
     40 H14         6.4270    1.8890    7.1190 ha        1 HBM      0.177000
     41 HN19        4.3100   -2.0360   -0.8650 hn        1 HBM      0.460800
     42 H201        2.1020   -0.3010   -1.8740 hx        1 HBM      0.105700
     43 H202        3.9000    0.0360   -2.0360 hx        1 HBM      0.105700
     44 H211        2.2770   -2.3130   -3.2860 hc        1 HBM      0.086200
     45 H212        3.0900   -0.9290   -4.1210 hc        1 HBM      0.086200
     46 H23         5.5370   -0.8850   -4.3780 ha        1 HBM      0.136000
     47 H24         7.6250   -2.1840   -4.4900 ha        1 HBM      0.166000
     48 H26         5.6450   -5.4820   -2.4140 ha        1 HBM      0.166000
     49 H27         3.5740   -4.1760   -2.3690 ha        1 HBM      0.136000
     50 HN28        8.7470   -4.1370   -3.9430 hn        1 HBM      0.459800
     51 H301        6.8830   -7.1340   -4.4650 h1        1 HBM      0.128700
     52 H302        8.5520   -7.0050   -5.1030 h1        1 HBM      0.128700
     53 H303        8.1540   -8.2440   -3.8830 h1        1 HBM      0.128700
     54 HO34       -1.2190    0.9620    4.0810 ho        1 HBM      0.472000
     55 H192        2.6800   -2.2970   -0.6360 hn        1 HBM      0.460800
@<TRIPOS>BOND
     1    1    6 ar  
     2    1    7 ar  
     3    1   35 1   
     4    2    7 ar  
     5    2    8 ar  
     6    2   34 1   
     7    3    6 ar  
     8    3    8 ar  
     9    3    9 1   
    10    4    5 ar  
    11    4   10 1   
    12    4   15 ar  
    13    5   12 ar  
    14    5   36 1   
    15    6   18 1   
    16    7   37 1   
    17    8   11 1   
    18    9   10 1   
    19    9   38 1   
    20   10   11 2   
    21   12   13 ar  
    22   12   39 1   
    23   13   14 ar  
    24   13   16 1   
    25   14   15 ar  
    26   14   40 1   
    27   15   17 1   
    28   18   19 1   
    29   18   33 2   
    30   19   20 1   
    31   19   41 1   
    32   19   55 1   
    33   20   21 1   
    34   20   42 1   
    35   20   43 1   
    36   21   22 1   
    37   21   44 1   
    38   21   45 1   
    39   22   23 ar  
    40   22   27 ar  
    41   23   24 ar  
    42   23   46 1   
    43   24   25 ar  
    44   24   47 1   
    45   25   26 ar  
    46   25   28 1   
    47   26   27 ar  
    48   26   48 1   
    49   27   49 1   
    50   28   29 1   
    51   28   50 1   
    52   29   30 1   
    53   29   31 2   
    54   29   32 2   
    55   30   51 1   
    56   30   52 1   
    57   30   53 1   
    58   34   54 1   
@<TRIPOS>SUBSTRUCTURE
     1 HBM         1 TEMP              0 ****  ****    0 ROOT
