@<TRIPOS>MOLECULE
HBN
   37    39     1     0     0
SMALL
bcc


@<TRIPOS>ATOM
      1 C1          1.4820    0.1810   -4.5160 ca        1 HBN     -0.120000
      2 C2          1.3250   -0.0560   -5.8590 ca        1 HBN     -0.122000
      3 C3          0.0690   -0.4580   -6.3750 ca        1 HBN     -0.132000
      4 C4         -1.0070   -0.6140   -5.5360 ca        1 HBN     -0.111000
      5 C4A        -0.8710   -0.3750   -4.1420 ca        1 HBN     -0.058000
      6 C8A         0.3840    0.0270   -3.6230 ca        1 HBN     -0.013000
      7 C8          0.5340    0.2700   -2.2320 ca        1 HBN     -0.149000
      8 C7         -0.5420    0.1170   -1.3680 ca        1 HBN      0.056600
      9 C6         -1.8130   -0.2920   -1.9040 ca        1 HBN     -0.165000
     10 C5         -1.9620   -0.5270   -3.2440 ca        1 HBN     -0.091000
     11 N1         -0.4690    0.3440    0.0180 n         1 HBN     -0.461100
     12 N           1.4040    1.7490    2.9020 n3        1 HBN     -0.900800
     13 CA          0.4240    0.8830    2.2850 c3        1 HBN      0.099500
     14 C           0.6400    0.7180    0.7530 c         1 HBN      0.617100
     15 O           1.7600    0.9330    0.2540 o         1 HBN     -0.598100
     16 CB          0.4120   -0.5270    2.9040 c3        1 HBN      0.001900
     17 CG         -0.1730   -0.5390    4.2560 cc        1 HBN     -0.227900
     18 ND1         0.1760    0.3220    5.3010 na        1 HBN     -0.294900
     19 CD2        -1.1530   -1.4110    4.7850 cd        1 HBN      0.293200
     20 CE1        -0.5990   -0.0470    6.4020 cc        1 HBN      0.382400
     21 NE2        -1.4060   -1.0950    6.1140 nd        1 HBN     -0.668000
     22 H1          2.4540    0.4940   -4.1060 ha        1 HBN      0.138000
     23 HC2         2.1720    0.0620   -6.5510 ha        1 HBN      0.133000
     24 H3         -0.0310   -0.6420   -7.4550 ha        1 HBN      0.133000
     25 H4         -1.9870   -0.9260   -5.9250 ha        1 HBN      0.132000
     26 H8          1.5270    0.5810   -1.8670 ha        1 HBN      0.173000
     27 H6         -2.6750   -0.4170   -1.2300 ha        1 HBN      0.130000
     28 H5         -2.9380   -0.8400   -3.6480 ha        1 HBN      0.135000
     29 HN1        -1.3150    0.1870    0.5210 hn        1 HBN      0.319500
     30 H2          1.3570    2.6660    2.4980 hn        1 HBN      0.366300
     31 HA         -0.5880    1.3600    2.4580 h1        1 HBN      0.080700
     32 HB2        -0.2020   -1.2090    2.2560 hc        1 HBN      0.068200
     33 HB3         1.4570   -0.9420    2.9310 hc        1 HBN      0.068200
     34 HD1         0.8160    1.0710    5.2440 hn        1 HBN      0.318700
     35 HD2        -1.6660   -2.2300    4.2830 h4        1 HBN      0.039100
     36 HE1        -0.5360    0.4640    7.3680 h5        1 HBN      0.061100
     37 H           2.3290    1.3870    2.7620 hn        1 HBN      0.366300
@<TRIPOS>BOND
     1    1    2 ar  
     2    1    6 ar  
     3    1   22 1   
     4    2    3 ar  
     5    2   23 1   
     6    3    4 ar  
     7    3   24 1   
     8    4    5 ar  
     9    4   25 1   
    10    5    6 ar  
    11    5   10 ar  
    12    6    7 ar  
    13    7    8 ar  
    14    7   26 1   
    15    8    9 ar  
    16    8   11 1   
    17    9   10 ar  
    18    9   27 1   
    19   10   28 1   
    20   11   14 1   
    21   11   29 1   
    22   12   13 1   
    23   12   30 1   
    24   12   37 1   
    25   13   14 1   
    26   13   16 1   
    27   13   31 1   
    28   14   15 2   
    29   16   17 1   
    30   16   32 1   
    31   16   33 1   
    32   17   18 1   
    33   17   19 2   
    34   18   20 1   
    35   18   34 1   
    36   19   21 1   
    37   19   35 1   
    38   20   21 2   
    39   20   36 1   
@<TRIPOS>SUBSTRUCTURE
     1 HBN         1 TEMP              0 ****  ****    0 ROOT
