@<TRIPOS>MOLECULE
HBN
   37    32     1     0     0
SMALL
bcc


@<TRIPOS>ATOM
      1 C1          4.0870   -1.8240   -1.8470 c1        1 HBN     -0.120000
      2 C2          5.4700   -1.7360   -1.9410 c1        1 HBN     -0.127000
      3 C3          6.1970   -1.1000   -0.9390 c1        1 HBN     -0.127000
      4 C4          5.5390   -0.5520    0.1550 c1        1 HBN     -0.111000
      5 C4A         4.1380   -0.6410    0.2510 c1        1 HBN     -0.058000
      6 C8A         3.4200   -1.2700   -0.7390 c1        1 HBN     -0.013000
      7 C8          2.0150   -1.3190   -0.6650 c2        1 HBN     -0.149000
      8 C7          1.3540   -0.7340    0.4080 c1        1 HBN      0.064000
      9 C6          2.0810   -0.0980    1.4100 c1        1 HBN     -0.165000
     10 C5          3.4670   -0.0480    1.3380 c2        1 HBN     -0.091000
     11 N1         -0.0660   -0.7720    0.4470 n         1 HBN     -0.315000
     12 N          -2.8110    0.3080   -1.3820 n3        1 HBN     -0.333000
     13 CA         -2.3320    0.2670   -0.0440 c3        1 HBN     -0.048000
     14 C          -0.8200    0.3260   -0.0470 c2        1 HBN      0.261000
     15 O          -0.2510    1.2970   -0.5020 o         1 HBN     -0.359000
     16 CB         -2.8800    1.4490    0.7240 c3        1 HBN     -0.084000
     17 CG         -4.3900    1.3570    0.7820 c2        1 HBN     -0.131000
     18 ND1        -5.2510    2.1780    0.1730 n2        1 HBN     -0.181000
     19 CD2        -5.1130    0.4770    1.5420 c1        1 HBN     -0.172000
     20 CE1        -6.5050    1.8220    0.5440 c1        1 HBN     -0.106000
     21 NE2        -6.4080    0.7680    1.3910 n2        1 HBN     -0.142000
     22 H1          3.5780   -2.2700   -2.5500 ha        1 HBN      0.138000
     23 HC2         5.9320   -2.1200   -2.7100 ha        1 HBN      0.133000
     24 H3          7.1690   -1.0380   -1.0060 ha        1 HBN      0.133000
     25 H4          6.0500   -0.1060    0.8580 ha        1 HBN      0.132000
     26 H8          1.5050   -1.7660   -1.3670 ha        1 HBN      0.173000
     27 H6          1.6160    0.3140    2.1630 ha        1 HBN      0.130000
     28 H5          3.9770    0.3990    2.0410 ha        1 HBN      0.135000
     29 HN1        -0.4930   -1.5050    0.7820 hn        1 HBN      0.233000
     30 H          -2.1010    0.3550   -1.9590 hn        1 HBN      0.161500
     31 H2         -3.2950   -0.4500   -1.5550 hn        1 HBN      0.161500
     32 HA         -2.6250   -0.5620    0.3830 h1        1 HBN      0.120000
     33 HB2        -2.6210    2.2790    0.2740 hc        1 HBN      0.107500
     34 HB3        -2.5180    1.4450    1.6320 hc        1 HBN      0.107500
     35 HD1        -5.0330    2.8590   -0.3920 DU        1 HBN      0.214333
     36 HD2        -4.7460   -0.2380    2.0960 DU        1 HBN      0.214333
     37 HE1        -7.3320    2.2490    0.2530 DU        1 HBN      0.214333
@<TRIPOS>BOND
     1    1    6 1   
     2    1   22 1   
     3    2    3 1   
     4    2   23 1   
     5    3   24 1   
     6    4    5 1   
     7    4   25 1   
     8    5   10 1   
     9    6    7 1   
    10    7    8 1   
    11    7   26 1   
    12    8   11 1   
    13    9   10 1   
    14    9   27 1   
    15   10   28 1   
    16   11   14 1   
    17   11   29 1   
    18   12   13 1   
    19   12   30 1   
    20   12   31 1   
    21   13   14 1   
    22   13   16 1   
    23   13   32 1   
    24   14   15 1   
    25   16   17 1   
    26   16   33 1   
    27   16   34 1   
    28   17   18 1   
    29   17   19 1   
    30   18   20 1   
    31   19   21 1   
    32   20   21 1   
@<TRIPOS>SUBSTRUCTURE
     1 HBN         1 TEMP              0 ****  ****    0 ROOT
