@<TRIPOS>MOLECULE
HBO
   24    22     1     0     0
SMALL
bcc


@<TRIPOS>ATOM
      1 O1A        -2.2110   -2.2070   -1.9930 oh        1 HBO     -0.322000
      2 C3B        -0.2360   -0.9550   -2.7710 c1        1 HBO      0.254000
      3 N3B        -0.4320    0.2580   -2.2540 n2        1 HBO     -0.089000
      4 C4B        -0.2500    0.4130   -0.8190 c2        1 HBO     -0.063000
      5 C1B        -0.0650   -0.8130   -0.0110 c2        1 HBO      0.094000
      6 O1B        -0.2340   -2.1390   -0.6920 os        1 HBO     -0.239000
      7 C2B        -0.7100   -2.1390   -1.9810 c3        1 HBO      0.143000
      8 C5B        -0.1950    1.6550   -0.2040 c1        1 HBO     -0.057000
      9 C6B         0.0360    1.7450    1.1800 c1        1 HBO     -0.216000
     10 C8B         0.1590   -0.7150    1.3290 c1        1 HBO     -0.166000
     11 O3B         0.0250   -1.0780   -3.9780 o         1 HBO     -0.279000
     12 OHB        -0.4130    1.3570   -3.0660 oh        1 HBO     -0.225000
     13 C7B         0.2130    0.5660    1.9520 c1        1 HBO      0.102000
     14 O7B         0.4220    0.6650    3.3610 os        1 HBO     -0.205000
     15 C9B         1.7710    1.0360    3.7230 c3        1 HBO     -0.077000
     16 H1A        -2.4760   -3.0750   -2.0620 ho        1 HBO      0.231000
     17 H2B        -0.4830   -2.9720   -2.4320 h2        1 HBO      0.147000
     18 H5B        -0.3180    2.4720   -0.7350 ha        1 HBO      0.156000
     19 H6B         0.0770    2.6030    1.6040 ha        1 HBO      0.146000
     20 H8B         0.2800   -1.5110    1.8570 ha        1 HBO      0.170000
     21 HHB        -1.2200    1.4690   -3.4380 ho        1 HBO      0.234000
     22 H9B3        2.4210    0.6150    3.0750 h1        1 HBO      0.087333
     23 H9B2        1.8640    2.0390    3.6850 h1        1 HBO      0.087333
     24 H9B1        1.9740    0.7110    4.6680 h1        1 HBO      0.087333
@<TRIPOS>BOND
     1    1    7 1   
     2    1   16 1   
     3    2    7 1   
     4    2   11 1   
     5    3    4 1   
     6    3   12 1   
     7    4    5 1   
     8    4    8 1   
     9    5    6 1   
    10    5   10 1   
    11    6    7 1   
    12    7   17 1   
    13    8   18 1   
    14    9   13 1   
    15    9   19 1   
    16   10   20 1   
    17   12   21 1   
    18   13   14 1   
    19   14   15 1   
    20   15   22 1   
    21   15   23 1   
    22   15   24 1   
@<TRIPOS>SUBSTRUCTURE
     1 HBO         1 TEMP              0 ****  ****    0 ROOT
