@<TRIPOS>MOLECULE
HBO
   24    25     1     0     0
SMALL
bcc


@<TRIPOS>ATOM
      1 O1A         0.1760   -0.2390   -0.3640 oh        1 HBO     -0.593800
      2 C3B         1.9720    1.2100   -0.8450 c         1 HBO      0.650500
      3 N3B         2.2670    2.3720   -0.0560 n         1 HBO     -0.162500
      4 C4B         1.6280    2.4220    1.2290 ca        1 HBO     -0.065400
      5 C1B         1.3650    1.2030    1.9040 ca        1 HBO      0.133100
      6 O1B         1.6510   -0.0210    1.3190 os        1 HBO     -0.350900
      7 C2B         1.5420   -0.0600   -0.0980 c3        1 HBO      0.268900
      8 C5B         1.3400    3.6290    1.8860 ca        1 HBO     -0.065000
      9 C6B         0.8400    3.6230    3.1850 ca        1 HBO     -0.210000
     10 C8B         0.8610    1.1810    3.2030 ca        1 HBO     -0.159000
     11 O3B         2.1930    1.1900   -2.0590 o         1 HBO     -0.548500
     12 OHB         2.1580    3.5220   -0.7310 oh        1 HBO     -0.417100
     13 C7B         0.6100    2.4080    3.8420 ca        1 HBO      0.142100
     14 O7B         0.1240    2.2940    5.1280 os        1 HBO     -0.322900
     15 C9B        -0.1590    3.5140    5.8050 c3        1 HBO      0.112700
     16 H1A        -0.1100   -1.0260    0.1200 ho        1 HBO      0.432000
     17 H2B         2.1740   -0.9410   -0.4110 h2        1 HBO      0.106700
     18 H5B         1.5130    4.5870    1.3690 ha        1 HBO      0.157000
     19 H6B         0.6290    4.5820    3.6800 ha        1 HBO      0.145000
     20 H8B         0.6710    0.2300    3.7180 ha        1 HBO      0.169000
     21 HHB         3.0230    3.6350   -1.1750 ho        1 HBO      0.435000
     22 H9B3        0.7690    4.1270    5.9180 h1        1 HBO      0.047367
     23 H9B2       -0.9470    4.0910    5.2640 h1        1 HBO      0.047367
     24 H9B1       -0.5320    3.1750    6.8040 h1        1 HBO      0.047367
@<TRIPOS>BOND
     1    1    7 1   
     2    1   16 1   
     3    2    3 1   
     4    2    7 1   
     5    2   11 2   
     6    3    4 1   
     7    3   12 1   
     8    4    5 ar  
     9    4    8 ar  
    10    5    6 1   
    11    5   10 ar  
    12    6    7 1   
    13    7   17 1   
    14    8    9 ar  
    15    8   18 1   
    16    9   13 ar  
    17    9   19 1   
    18   10   13 ar  
    19   10   20 1   
    20   12   21 1   
    21   13   14 1   
    22   14   15 1   
    23   15   22 1   
    24   15   23 1   
    25   15   24 1   
@<TRIPOS>SUBSTRUCTURE
     1 HBO         1 TEMP              0 ****  ****    0 ROOT
