@<TRIPOS>MOLECULE
HBO
   24    25     1     0     0
SMALL
bcc


@<TRIPOS>ATOM
      1 O1A        -1.9610    1.2410   -2.0160 oh        1 HBO     -0.593800
      2 C3B        -0.0210    0.0370   -2.6010 c         1 HBO      0.650500
      3 N3B         1.0210   -0.2640   -1.6620 n         1 HBO     -0.162500
      4 C4B         0.6720   -0.0930   -0.2790 ca        1 HBO     -0.065400
      5 C1B        -0.6710   -0.3190    0.1150 ca        1 HBO      0.133100
      6 O1B        -1.6510   -0.6330   -0.8150 os        1 HBO     -0.350900
      7 C2B        -1.4700   -0.0700   -2.1070 c3        1 HBO      0.268900
      8 C5B         1.6220    0.1960    0.7130 ca        1 HBO     -0.065000
      9 C6B         1.2560    0.2240    2.0550 ca        1 HBO     -0.210000
     10 C8B        -1.0550   -0.2920    1.4540 ca        1 HBO     -0.159000
     11 O3B         0.2320    0.2340   -3.7930 o         1 HBO     -0.548500
     12 OHB         2.1990    0.2920   -1.9680 oh        1 HBO     -0.417100
     13 C7B        -0.0720   -0.0270    2.4240 ca        1 HBO      0.142100
     14 O7B        -0.5360   -0.0300    3.7240 os        1 HBO     -0.322900
     15 C9B         0.4250    0.2500    4.7350 c3        1 HBO      0.112700
     16 H1A        -2.8680    1.1860   -1.6850 ho        1 HBO      0.432000
     17 H2B        -2.0790   -0.7250   -2.7940 h2        1 HBO      0.106700
     18 H5B         2.6660    0.4010    0.4260 ha        1 HBO      0.157000
     19 H6B         2.0190    0.4450    2.8140 ha        1 HBO      0.145000
     20 H8B        -2.0970   -0.4790    1.7460 ha        1 HBO      0.169000
     21 HHB         2.6160   -0.3350   -2.5940 ho        1 HBO      0.435000
     22 H9B3       -0.1720    0.1930    5.6810 h1        1 HBO      0.047367
     23 H9B2        1.2350   -0.5200    4.7330 h1        1 HBO      0.047367
     24 H9B1        0.8540    1.2720    4.6000 h1        1 HBO      0.047367
@<TRIPOS>BOND
     1    1    7 1   
     2    1   16 1   
     3    2    3 1   
     4    2    7 1   
     5    2   11 2   
     6    3    4 1   
     7    3   12 1   
     8    4    5 ar  
     9    4    8 ar  
    10    5    6 1   
    11    5   10 ar  
    12    6    7 1   
    13    7   17 1   
    14    8    9 ar  
    15    8   18 1   
    16    9   13 ar  
    17    9   19 1   
    18   10   13 ar  
    19   10   20 1   
    20   12   21 1   
    21   13   14 1   
    22   14   15 1   
    23   15   22 1   
    24   15   23 1   
    25   15   24 1   
@<TRIPOS>SUBSTRUCTURE
     1 HBO         1 TEMP              0 ****  ****    0 ROOT
