@<TRIPOS>MOLECULE
HBO
   24    25     1     0     0
SMALL
bcc


@<TRIPOS>ATOM
      1 O1A         0.1250   -0.2120   -0.3760 oh        1 HBO     -0.593800
      2 C3B         1.9550    1.1970   -0.8450 c         1 HBO      0.650500
      3 N3B         2.2730    2.3500   -0.0520 n         1 HBO     -0.162500
      4 C4B         1.6310    2.4100    1.2310 ca        1 HBO     -0.065400
      5 C1B         1.3380    1.1960    1.9010 ca        1 HBO      0.133100
      6 O1B         1.5980   -0.0320    1.3130 os        1 HBO     -0.350900
      7 C2B         1.4940   -0.0650   -0.1040 c3        1 HBO      0.268900
      8 C5B         1.3670    3.6210    1.8910 ca        1 HBO     -0.065000
      9 C6B         0.8630    3.6230    3.1880 ca        1 HBO     -0.210000
     10 C8B         0.8290    1.1810    3.1980 ca        1 HBO     -0.159000
     11 O3B         2.1790    1.1760   -2.0590 o         1 HBO     -0.548500
     12 OHB         2.1920    3.5050   -0.7230 oh        1 HBO     -0.417100
     13 C7B         0.6030    2.4110    3.8400 ca        1 HBO      0.142100
     14 O7B         0.1100    2.3040    5.1250 os        1 HBO     -0.322900
     15 C9B        -0.1470    3.5280    5.8040 c3        1 HBO      0.112700
     16 H1A        -0.1810   -0.9950    0.1050 ho        1 HBO      0.432000
     17 H2B         2.1060   -0.9590   -0.4170 h2        1 HBO      0.106700
     18 H5B         1.5640    4.5760    1.3780 ha        1 HBO      0.157000
     19 H6B         0.6720    4.5840    3.6860 ha        1 HBO      0.145000
     20 H8B         0.6160    0.2330    3.7100 ha        1 HBO      0.169000
     21 HHB         3.0610    3.5990   -1.1640 ho        1 HBO      0.435000
     22 H9B3       -0.9200    4.1250    5.2630 h1        1 HBO      0.047367
     23 H9B2       -0.5310    3.1940    6.8010 h1        1 HBO      0.047367
     24 H9B1        0.7940    4.1190    5.9220 h1        1 HBO      0.047367
@<TRIPOS>BOND
     1    1    7 1   
     2    1   16 1   
     3    2    3 1   
     4    2    7 1   
     5    2   11 2   
     6    3    4 1   
     7    3   12 1   
     8    4    5 ar  
     9    4    8 ar  
    10    5    6 1   
    11    5   10 ar  
    12    6    7 1   
    13    7   17 1   
    14    8    9 ar  
    15    8   18 1   
    16    9   13 ar  
    17    9   19 1   
    18   10   13 ar  
    19   10   20 1   
    20   12   21 1   
    21   13   14 1   
    22   14   15 1   
    23   15   22 1   
    24   15   23 1   
    25   15   24 1   
@<TRIPOS>SUBSTRUCTURE
     1 HBO         1 TEMP              0 ****  ****    0 ROOT
