@<TRIPOS>MOLECULE
HBP
   51    52     1     0     0
SMALL
bcc


@<TRIPOS>ATOM
      1 C1          0.1570   -0.2690   -0.0720 c3        1 HBP     -0.010700
      2 C5         -1.5810   -1.7270   -1.0810 c3        1 HBP     -0.081400
      3 O10         3.3150    0.8570   -3.3900 oh        1 HBP     -0.312000
      4 N9          3.2910    0.9660   -2.0980 n2        1 HBP     -0.353700
      5 C8A         2.6630    0.0120   -1.4570 ce        1 HBP      0.311800
      6 C7          2.6200    0.0350    0.0200 ca        1 HBP      0.002300
      7 C6          3.8080    0.2030    0.7580 ca        1 HBP     -0.126000
      8 C4          2.5520   -0.0080    2.8020 ca        1 HBP     -0.133500
      9 C3          1.3910   -0.1660    2.0410 ca        1 HBP     -0.033800
     10 N2          1.4170   -0.1330    0.6710 na        1 HBP      0.033900
     11 C2         -0.2580   -1.7160   -0.3400 c3        1 HBP     -0.098900
     12 C5A         3.7780    0.1850    2.1530 ca        1 HBP     -0.004500
     13 C8         -2.0310   -3.1460   -1.3660 c3        1 HBP     -0.077400
     14 C11        -3.3470   -3.1520   -2.1190 c3        1 HBP     -0.081400
     15 C14        -3.7970   -4.5700   -2.4120 c3        1 HBP     -0.098900
     16 C17        -5.1080   -4.5270   -3.1970 c3        1 HBP     -0.010700
     17 N20        -5.6020   -5.8470   -3.6120 na        1 HBP      0.033900
     18 C21        -5.0360   -6.4420   -4.7120 ca        1 HBP     -0.033800
     19 C22        -5.4790   -7.6750   -5.1940 ca        1 HBP     -0.133500
     20 C23        -6.5340   -8.3290   -4.5430 ca        1 HBP     -0.004500
     21 C24        -7.1080   -7.7290   -3.4230 ca        1 HBP     -0.126000
     22 C25        -6.6290   -6.4870   -2.9580 ca        1 HBP      0.002300
     23 C26        -7.2980   -5.8990   -1.7770 ce        1 HBP      0.311800
     24 N27        -6.6630   -5.7850   -0.6410 n2        1 HBP     -0.353700
     25 O28        -7.3600   -5.3090    0.3490 oh        1 HBP     -0.312000
     26 H1A         0.2650    0.2830   -1.0510 h1        1 HBP      0.100200
     27 H1B        -0.6480    0.2480    0.5270 h1        1 HBP      0.100200
     28 H6         -2.3620   -1.2010   -0.4690 hc        1 HBP      0.056450
     29 H7         -1.4790   -1.1640   -2.0460 hc        1 HBP      0.056450
     30 H10A        3.8210    1.6410   -3.7120 ho        1 HBP      0.477000
     31 H8          2.1770   -0.8550   -1.9490 h4        1 HBP      0.053300
     32 H6A         4.7590    0.3500    0.2140 ha        1 HBP      0.206000
     33 H4A         2.4840   -0.0330    3.9040 ha        1 HBP      0.204000
     34 H3A         0.4010   -0.3130    2.5200 h4        1 HBP      0.205000
     35 H4         -0.3610   -2.2760    0.6270 hc        1 HBP      0.067450
     36 H3          0.5230   -2.2380   -0.9530 hc        1 HBP      0.067450
     37 H5          4.7070    0.3210    2.7370 ha        1 HBP      0.199500
     38 H10        -2.1460   -3.7070   -0.4010 hc        1 HBP      0.053700
     39 H9         -1.2480   -3.6760   -1.9690 hc        1 HBP      0.053700
     40 H12        -3.2300   -2.5830   -3.0800 hc        1 HBP      0.056450
     41 H13        -4.1300   -2.6240   -1.5120 hc        1 HBP      0.056450
     42 H15        -3.9370   -5.1310   -1.4510 hc        1 HBP      0.067450
     43 H16        -3.0070   -5.1020   -3.0050 hc        1 HBP      0.067450
     44 H18        -5.9060   -4.0230   -2.5800 h1        1 HBP      0.100200
     45 H19        -4.9630   -3.9170   -4.1370 h1        1 HBP      0.100200
     46 H21        -4.2100   -5.8910   -5.2070 h4        1 HBP      0.205000
     47 H22        -4.9940   -8.1150   -6.0830 ha        1 HBP      0.204000
     48 H23        -6.9040   -9.3040   -4.9110 ha        1 HBP      0.199500
     49 H24        -7.9410   -8.2120   -2.8800 ha        1 HBP      0.206000
     50 H26        -8.3670   -5.6400   -1.9350 h4        1 HBP      0.053300
     51 H28        -6.7800   -5.3870    1.1410 ho        1 HBP      0.477000
@<TRIPOS>BOND
     1    1   10 1   
     2    1   11 1   
     3    1   26 1   
     4    1   27 1   
     5    2   11 1   
     6    2   13 1   
     7    2   28 1   
     8    2   29 1   
     9    3    4 1   
    10    3   30 1   
    11    4    5 2   
    12    5    6 1   
    13    5   31 1   
    14    6    7 ar  
    15    6   10 2   
    16    7   12 ar  
    17    7   32 1   
    18    8    9 ar  
    19    8   12 ar  
    20    8   33 1   
    21    9   10 1   
    22    9   34 1   
    23   11   35 1   
    24   11   36 1   
    25   12   37 1   
    26   13   14 1   
    27   13   38 1   
    28   13   39 1   
    29   14   15 1   
    30   14   40 1   
    31   14   41 1   
    32   15   16 1   
    33   15   42 1   
    34   15   43 1   
    35   16   17 1   
    36   16   44 1   
    37   16   45 1   
    38   17   18 1   
    39   17   22 2   
    40   18   19 ar  
    41   18   46 1   
    42   19   20 ar  
    43   19   47 1   
    44   20   21 ar  
    45   20   48 1   
    46   21   22 ar  
    47   21   49 1   
    48   22   23 1   
    49   23   24 2   
    50   23   50 1   
    51   24   25 1   
    52   25   51 1   
@<TRIPOS>SUBSTRUCTURE
     1 HBP         1 TEMP              0 ****  ****    0 ROOT
