@<TRIPOS>MOLECULE
HBP
   51    52     1     0     0
SMALL
bcc


@<TRIPOS>ATOM
      1 C1          3.6790   -0.6160    0.8780 c3        1 HBP     -0.012700
      2 C5          1.2310   -0.2050    0.8310 c3        1 HBP     -0.081400
      3 O10         5.9300    3.5240    1.0900 oh        1 HBP     -0.313500
      4 N9          6.3060    2.3070    0.8470 n2        1 HBP     -0.335200
      5 C8A         5.4410    1.5580    0.2100 ce        1 HBP      0.301800
      6 C7          5.8020    0.1690   -0.1430 ca        1 HBP      0.002800
      7 C6          7.0170   -0.0970   -0.8040 ca        1 HBP     -0.122000
      8 C4          6.4430   -2.4340   -0.8870 ca        1 HBP     -0.135000
      9 C3          5.2490   -2.1370   -0.2260 ca        1 HBP     -0.031300
     10 N2          4.9330   -0.8590    0.1540 na        1 HBP      0.029900
     11 C2          2.4650   -0.4070   -0.0270 c3        1 HBP     -0.099400
     12 C5A         7.3430   -1.4020   -1.1760 ca        1 HBP     -0.005000
     13 C8          0.0000    0.0000   -0.0300 c3        1 HBP     -0.078400
     14 C11        -1.2300    0.2050    0.8310 c3        1 HBP     -0.081400
     15 C14        -2.4640    0.4080   -0.0270 c3        1 HBP     -0.099400
     16 C17        -3.6780    0.6150    0.8780 c3        1 HBP     -0.012700
     17 N20        -4.9330    0.8580    0.1530 na        1 HBP      0.029900
     18 C21        -5.2490    2.1370   -0.2260 ca        1 HBP     -0.031300
     19 C22        -6.4430    2.4340   -0.8870 ca        1 HBP     -0.135000
     20 C23        -7.3430    1.4010   -1.1770 ca        1 HBP     -0.005000
     21 C24        -7.0160    0.0960   -0.8060 ca        1 HBP     -0.122000
     22 C25        -5.8010   -0.1700   -0.1450 ca        1 HBP      0.002800
     23 C26        -5.4390   -1.5590    0.2070 ce        1 HBP      0.301800
     24 N27        -6.3040   -2.3090    0.8430 n2        1 HBP     -0.335200
     25 O28        -5.9270   -3.5260    1.0850 oh        1 HBP     -0.313500
     26 H1A         3.4980   -1.5050    1.5510 h1        1 HBP      0.101200
     27 H1B         3.8220    0.2900    1.5370 h1        1 HBP      0.101200
     28 H6          1.0800   -1.0970    1.4950 hc        1 HBP      0.056950
     29 H7          1.3760    0.6870    1.4980 hc        1 HBP      0.056950
     30 H10A        6.6870    3.9450    1.5630 ho        1 HBP      0.483000
     31 H8          4.4420    1.9060   -0.1230 h4        1 HBP      0.041800
     32 H6A         7.7030    0.7420   -1.0190 ha        1 HBP      0.207000
     33 H4A         6.6600   -3.4800   -1.1680 ha        1 HBP      0.204000
     34 H3A         4.5150   -2.9310    0.0260 h4        1 HBP      0.205000
     35 H4          2.3200   -1.2980   -0.6940 hc        1 HBP      0.065700
     36 H3          2.6190    0.4880   -0.6850 hc        1 HBP      0.065700
     37 H5          8.2980   -1.6170   -1.6910 ha        1 HBP      0.199000
     38 H10         0.1490    0.8920   -0.6950 hc        1 HBP      0.053700
     39 H9         -0.1480   -0.8910   -0.6950 hc        1 HBP      0.053700
     40 H12        -1.3750   -0.6870    1.4970 hc        1 HBP      0.056950
     41 H13        -1.0800    1.0970    1.4950 hc        1 HBP      0.056950
     42 H15        -2.3190    1.2990   -0.6940 hc        1 HBP      0.065700
     43 H16        -2.6180   -0.4870   -0.6860 hc        1 HBP      0.065700
     44 H18        -3.8220   -0.2900    1.5360 h1        1 HBP      0.101200
     45 H19        -3.4980    1.5040    1.5500 h1        1 HBP      0.101200
     46 H21        -4.5150    2.9300    0.0270 h4        1 HBP      0.205000
     47 H22        -6.6610    3.4800   -1.1670 ha        1 HBP      0.204000
     48 H23        -8.2980    1.6160   -1.6920 ha        1 HBP      0.199000
     49 H24        -7.7010   -0.7430   -1.0220 ha        1 HBP      0.207000
     50 H26        -4.4400   -1.9060   -0.1260 h4        1 HBP      0.041800
     51 H28        -6.6840   -3.9480    1.5580 ho        1 HBP      0.483000
@<TRIPOS>BOND
     1    1   10 1   
     2    1   11 1   
     3    1   26 1   
     4    1   27 1   
     5    2   11 1   
     6    2   13 1   
     7    2   28 1   
     8    2   29 1   
     9    3    4 1   
    10    3   30 1   
    11    4    5 2   
    12    5    6 1   
    13    5   31 1   
    14    6    7 ar  
    15    6   10 2   
    16    7   12 ar  
    17    7   32 1   
    18    8    9 ar  
    19    8   12 ar  
    20    8   33 1   
    21    9   10 1   
    22    9   34 1   
    23   11   35 1   
    24   11   36 1   
    25   12   37 1   
    26   13   14 1   
    27   13   38 1   
    28   13   39 1   
    29   14   15 1   
    30   14   40 1   
    31   14   41 1   
    32   15   16 1   
    33   15   42 1   
    34   15   43 1   
    35   16   17 1   
    36   16   44 1   
    37   16   45 1   
    38   17   18 1   
    39   17   22 2   
    40   18   19 ar  
    41   18   46 1   
    42   19   20 ar  
    43   19   47 1   
    44   20   21 ar  
    45   20   48 1   
    46   21   22 ar  
    47   21   49 1   
    48   22   23 1   
    49   23   24 2   
    50   23   50 1   
    51   24   25 1   
    52   25   51 1   
@<TRIPOS>SUBSTRUCTURE
     1 HBP         1 TEMP              0 ****  ****    0 ROOT
