@<TRIPOS>MOLECULE
HBP
   51    46     1     0     0
SMALL
bcc


@<TRIPOS>ATOM
      1 C1          3.6410   -0.8520    0.1020 c3        1 HBP     -0.069000
      2 C5          1.6420    0.6450   -0.2910 c3        1 HBP     -0.160000
      3 O10         4.4490   -4.8440   -2.4770 oh        1 HBP     -0.240000
      4 N9          3.4310   -4.8260   -1.5450 n2        1 HBP      0.059000
      5 C8A         3.5110   -4.0200   -0.5090 c1        1 HBP     -0.173000
      6 C7          4.7170   -3.1230   -0.3480 c1        1 HBP      0.076000
      7 C6          5.9590   -3.6840   -0.1050 c1        1 HBP     -0.124000
      8 C4          6.9650   -1.5280   -0.2480 c1        1 HBP     -0.068000
      9 C3          5.7120   -0.9640   -0.4940 c1        1 HBP     -0.006000
     10 N2          4.5980   -1.7630   -0.5420 n3        1 HBP     -0.036000
     11 C2          2.5610   -0.3960   -0.9390 c3        1 HBP     -0.179000
     12 C5A         7.0790   -2.8870   -0.0560 c1        1 HBP     -0.068000
     13 C8          0.1880    0.3480   -0.6580 c3        1 HBP     -0.156000
     14 C11        -0.7090    1.5250   -0.2150 c3        1 HBP     -0.159000
     15 C14        -2.2040    1.0140   -0.0330 c3        1 HBP     -0.177000
     16 C17        -3.1540    2.2400    0.1560 c3        1 HBP     -0.073000
     17 N20        -4.4980    1.7790    0.2800 n3        1 HBP     -0.025000
     18 C21        -5.0900    1.1140   -0.7530 c2        1 HBP     -0.008000
     19 C22        -6.4110    0.7110   -0.6510 c1        1 HBP     -0.132000
     20 C23        -7.1210    0.9840    0.4950 c1        1 HBP     -0.068000
     21 C24        -6.5240    1.6500    1.5270 c1        1 HBP     -0.068000
     22 C25        -5.2120    2.0480    1.4220 c1        1 HBP      0.071000
     23 C26        -4.5750    2.8010    2.5350 c2        1 HBP     -0.166000
     24 N27        -5.0120    4.0200    2.8490 n1        1 HBP      0.048000
     25 O28        -6.0480    4.5760    2.1450 o         1 HBP     -0.255000
     26 H1A         4.1350   -0.0400    0.4540 h1        1 HBP      0.135500
     27 H1B         3.1960   -1.3180    0.8510 h1        1 HBP      0.135500
     28 H6          1.7500    0.6070    0.7190 hc        1 HBP      0.095000
     29 H7          1.8740    1.5010   -0.5980 hc        1 HBP      0.095000
     30 H10A        4.2050   -5.3150   -3.1670 ho        1 HBP      0.285000
     31 H8          2.7830   -4.0040    0.1670 ha        1 HBP      0.193000
     32 H6A         6.0370   -4.6240    0.0270 ha        1 HBP      0.209000
     33 H4A         7.8020   -0.9300   -0.2110 ha        1 HBP      0.201500
     34 H3A         5.6260    0.0370   -0.6360 ha        1 HBP      0.206000
     35 H4          3.0060    0.0040   -1.7240 hc        1 HBP      0.108500
     36 H3          2.0410   -1.1570   -1.2170 hc        1 HBP      0.108500
     37 H5          7.9820   -3.2980    0.1210 ha        1 HBP      0.201500
     38 H10        -0.0920   -0.4480   -0.2160 hc        1 HBP      0.093500
     39 H9          0.1110    0.2260   -1.6490 hc        1 HBP      0.093500
     40 H12        -0.6860    2.2390   -0.9100 hc        1 HBP      0.095500
     41 H13        -0.3780    1.8860    0.6390 hc        1 HBP      0.095500
     42 H15        -2.2600    0.4050    0.7940 hc        1 HBP      0.106000
     43 H16        -2.4820    0.4960   -0.8480 hc        1 HBP      0.106000
     44 H18        -3.0780    2.8480   -0.6370 h1        1 HBP      0.142500
     45 H19        -2.8930    2.7430    0.9880 h1        1 HBP      0.142500
     46 H21        -4.5840    0.9230   -1.5600 h4        1 HBP      0.207000
     47 H22        -6.8290    0.2440   -1.3770 ha        1 HBP      0.205000
     48 H23        -8.0930    0.6890    0.5750 ha        1 HBP      0.201500
     49 H24        -7.0270    1.8430    2.3390 ha        1 HBP      0.201500
     50 H26        -3.8640    2.4170    3.0160 h4        1 HBP      0.210000
     51 H28        -6.1720    5.4560    2.4150 ho        1 HBP      0.284000
@<TRIPOS>BOND
     1    1   10 1   
     2    1   11 1   
     3    1   26 1   
     4    1   27 1   
     5    2   11 1   
     6    2   13 1   
     7    2   28 1   
     8    2   29 1   
     9    3    4 1   
    10    3   30 1   
    11    4    5 1   
    12    5   31 1   
    13    6    7 1   
    14    6   10 1   
    15    7   32 1   
    16    8   12 1   
    17    8   33 1   
    18    9   10 1   
    19    9   34 1   
    20   11   35 1   
    21   11   36 1   
    22   12   37 1   
    23   13   14 1   
    24   13   38 1   
    25   13   39 1   
    26   14   15 1   
    27   14   40 1   
    28   14   41 1   
    29   15   16 1   
    30   15   42 1   
    31   15   43 1   
    32   16   17 1   
    33   16   44 1   
    34   16   45 1   
    35   17   18 1   
    36   17   22 1   
    37   18   19 1   
    38   18   46 1   
    39   19   47 1   
    40   20   21 1   
    41   20   48 1   
    42   21   49 1   
    43   22   23 1   
    44   23   24 1   
    45   23   50 1   
    46   25   51 1   
@<TRIPOS>SUBSTRUCTURE
     1 HBP         1 TEMP              0 ****  ****    0 ROOT
