@<TRIPOS>MOLECULE
HBP
   51    52     1     0     0
SMALL
bcc


@<TRIPOS>ATOM
      1 C1          0.1570   -0.2720   -0.0670 c3        1 HBP     -0.010700
      2 C5         -1.5820   -1.7280   -1.0770 c3        1 HBP     -0.081400
      3 O10         3.3110    0.8660   -3.3850 oh        1 HBP     -0.312000
      4 N9          3.2880    0.9710   -2.0920 n2        1 HBP     -0.353700
      5 C8A         2.6620    0.0150   -1.4530 ce        1 HBP      0.311800
      6 C7          2.6200    0.0340    0.0240 ca        1 HBP      0.002300
      7 C6          3.8090    0.2000    0.7610 ca        1 HBP     -0.126000
      8 C4          2.5560   -0.0190    2.8050 ca        1 HBP     -0.133500
      9 C3          1.3940   -0.1750    2.0460 ca        1 HBP     -0.033800
     10 N2          1.4170   -0.1380    0.6750 na        1 HBP      0.033900
     11 C2         -0.2570   -1.7180   -0.3380 c3        1 HBP     -0.098900
     12 C5A         3.7800    0.1770    2.1560 ca        1 HBP     -0.004500
     13 C8         -2.0310   -3.1460   -1.3660 c3        1 HBP     -0.077400
     14 C11        -3.3480   -3.1500   -2.1170 c3        1 HBP     -0.081400
     15 C14        -3.7970   -4.5680   -2.4150 c3        1 HBP     -0.098900
     16 C17        -5.1100   -4.5240   -3.1970 c3        1 HBP     -0.010700
     17 N20        -5.6040   -5.8430   -3.6160 na        1 HBP      0.033900
     18 C21        -5.0390   -6.4330   -4.7190 ca        1 HBP     -0.033800
     19 C22        -5.4820   -7.6650   -5.2040 ca        1 HBP     -0.133500
     20 C23        -6.5350   -8.3210   -4.5550 ca        1 HBP     -0.004500
     21 C24        -7.1080   -7.7260   -3.4320 ca        1 HBP     -0.126000
     22 C25        -6.6290   -6.4850   -2.9630 ca        1 HBP      0.002300
     23 C26        -7.2960   -5.9020   -1.7780 ce        1 HBP      0.311800
     24 N27        -6.6600   -5.7910   -0.6430 n2        1 HBP     -0.353700
     25 O28        -7.3550   -5.3190    0.3500 oh        1 HBP     -0.312000
     26 H1A         0.2630    0.2830   -1.0440 h1        1 HBP      0.100200
     27 H1B        -0.6480    0.2420    0.5360 h1        1 HBP      0.100200
     28 H6         -2.3620   -1.2050   -0.4630 hc        1 HBP      0.056450
     29 H7         -1.4810   -1.1620   -2.0410 hc        1 HBP      0.056450
     30 H10A        3.8160    1.6520   -3.7050 ho        1 HBP      0.477000
     31 H8          2.1750   -0.8500   -1.9480 h4        1 HBP      0.053300
     32 H6A         4.7590    0.3490    0.2150 ha        1 HBP      0.206000
     33 H4A         2.4890   -0.0470    3.9070 ha        1 HBP      0.204000
     34 H3A         0.4050   -0.3240    2.5260 h4        1 HBP      0.205000
     35 H4         -0.3580   -2.2810    0.6270 hc        1 HBP      0.067450
     36 H3          0.5230   -2.2380   -0.9540 hc        1 HBP      0.067450
     37 H5          4.7110    0.3120    2.7390 ha        1 HBP      0.199500
     38 H10        -2.1440   -3.7110   -0.4030 hc        1 HBP      0.053700
     39 H9         -1.2490   -3.6740   -1.9730 hc        1 HBP      0.053700
     40 H12        -3.2330   -2.5790   -3.0760 hc        1 HBP      0.056450
     41 H13        -4.1300   -2.6260   -1.5070 hc        1 HBP      0.056450
     42 H15        -3.9360   -5.1330   -1.4550 hc        1 HBP      0.067450
     43 H16        -3.0080   -5.0980   -3.0110 hc        1 HBP      0.067450
     44 H18        -5.9070   -4.0220   -2.5770 h1        1 HBP      0.100200
     45 H19        -4.9670   -3.9100   -4.1360 h1        1 HBP      0.100200
     46 H21        -4.2140   -5.8790   -5.2130 h4        1 HBP      0.205000
     47 H22        -4.9980   -8.1010   -6.0960 ha        1 HBP      0.204000
     48 H23        -6.9040   -9.2960   -4.9250 ha        1 HBP      0.199500
     49 H24        -7.9390   -8.2110   -2.8890 ha        1 HBP      0.206000
     50 H26        -8.3660   -5.6430   -1.9340 h4        1 HBP      0.053300
     51 H28        -6.7730   -5.3990    1.1410 ho        1 HBP      0.477000
@<TRIPOS>BOND
     1    1   10 1   
     2    1   11 1   
     3    1   26 1   
     4    1   27 1   
     5    2   11 1   
     6    2   13 1   
     7    2   28 1   
     8    2   29 1   
     9    3    4 1   
    10    3   30 1   
    11    4    5 2   
    12    5    6 1   
    13    5   31 1   
    14    6    7 ar  
    15    6   10 2   
    16    7   12 ar  
    17    7   32 1   
    18    8    9 ar  
    19    8   12 ar  
    20    8   33 1   
    21    9   10 1   
    22    9   34 1   
    23   11   35 1   
    24   11   36 1   
    25   12   37 1   
    26   13   14 1   
    27   13   38 1   
    28   13   39 1   
    29   14   15 1   
    30   14   40 1   
    31   14   41 1   
    32   15   16 1   
    33   15   42 1   
    34   15   43 1   
    35   16   17 1   
    36   16   44 1   
    37   16   45 1   
    38   17   18 1   
    39   17   22 2   
    40   18   19 ar  
    41   18   46 1   
    42   19   20 ar  
    43   19   47 1   
    44   20   21 ar  
    45   20   48 1   
    46   21   22 ar  
    47   21   49 1   
    48   22   23 1   
    49   23   24 2   
    50   23   50 1   
    51   24   25 1   
    52   25   51 1   
@<TRIPOS>SUBSTRUCTURE
     1 HBP         1 TEMP              0 ****  ****    0 ROOT
