@<TRIPOS>MOLECULE
HBQ
   37    36     1     0     0
SMALL
bcc


@<TRIPOS>ATOM
      1 C1          0.2890   -1.0420   -0.1560 c2        1 HBQ     -0.106000
      2 C2          1.7830   -0.8220   -0.0820 c3        1 HBQ      0.058000
      3 C3          1.4060   -0.1530    2.2760 c2        1 HBQ     -0.322000
      4 C4         -0.0880   -0.4130    2.1500 c3        1 HBQ      0.083000
      5 C5         -0.6620   -0.9490    3.4390 c2        1 HBQ     -0.057000
      6 C6          0.0410   -1.0550    4.5260 c1        1 HBQ     -0.268000
      7 C7          0.7260   -1.1230    5.6480 c2        1 HBQ      0.129000
      8 C8          1.9690    0.0240    3.4950 c1        1 HBQ      0.219000
      9 C9          2.4480   -2.2010   -0.0900 c3        1 HBQ     -0.224000
     10 C10        -0.0310   -0.1130   -2.3230 c2        1 HBQ     -0.293000
     11 C12         5.6260    0.8880    0.3910 c3        1 HBQ     -0.030000
     12 C13         7.3260   -0.3390   -2.2440 c1        1 HBQ     -0.025000
     13 C14         5.5940    2.3910    0.4990 c3        1 HBQ     -0.244000
     14 F1          1.3520   -2.2360    6.0790 f         1 HBQ     -0.098000
     15 N1          2.1380    0.0250    1.0600 n         1 HBQ     -0.196000
     16 N2         -0.4100   -1.2820    1.0150 n3        1 HBQ     -0.238000
     17 O1         -0.4770   -0.5680   -1.1850 os        1 HBQ      0.022000
     18 O2          4.3000    0.3570    0.1860 os        1 HBQ     -0.253000
     19 O3          3.9500    0.5660    2.4270 o         1 HBQ     -0.369000
     20 H2          2.1430   -0.2510   -0.9900 h1        1 HBQ      0.124000
     21 H5         -0.5710    0.6090    1.9970 h1        1 HBQ      0.092000
     22 H6         -1.7370   -1.2020    3.4150 ha        1 HBQ      0.145000
     23 H8          0.8530   -0.2530    6.3210 h4        1 HBQ      0.166000
     24 H91         2.1380   -2.8010    0.7990 hc        1 HBQ      0.093667
     25 H92         3.5590   -2.0860   -0.0880 hc        1 HBQ      0.093667
     26 H101        2.1380   -2.7450   -1.0140 hc        1 HBQ      0.093667
     27 H102       -0.6860   -0.3210   -3.1760 h4        1 HBQ      0.138500
     28 H103        0.9640    0.3150   -2.4450 h4        1 HBQ      0.138500
     29 H12         6.1660    0.5380   -0.5390 h1        1 HBQ      0.129000
     30 H131        6.0770    0.4240    1.3070 h1        1 HBQ      0.129000
     31 H132        7.7050   -1.3730   -2.2290 ha        1 HBQ      0.017000
     32 H133        7.2640    0.0510   -3.2720 ha        1 HBQ      0.017000
     33 H141        6.6390    2.7780    0.5670 hc        1 HBQ      0.088667
     34 H142        5.0320    2.7020    1.4140 hc        1 HBQ      0.088667
     35 H143        5.1000    2.8410   -0.3940 hc        1 HBQ      0.088667
     36 HN2        -1.3930   -1.4210    0.8950 hn        1 HBQ      0.207000
     37 C11         3.4950    0.3100    1.2910 c2        1 HBQ      0.360000
@<TRIPOS>BOND
     1    1    2 1   
     2    1   16 1   
     3    1   17 1   
     4    2    9 1   
     5    2   15 1   
     6    2   20 1   
     7    3    4 1   
     8    3    8 1   
     9    3   15 1   
    10    4    5 1   
    11    4   16 1   
    12    4   21 1   
    13    5    6 1   
    14    5   22 1   
    15    6    7 1   
    16    7   14 1   
    17    7   23 1   
    18    9   24 1   
    19    9   25 1   
    20    9   26 1   
    21   10   17 1   
    22   10   27 1   
    23   10   28 1   
    24   11   13 1   
    25   11   18 1   
    26   11   29 1   
    27   11   30 1   
    28   12   31 1   
    29   12   32 1   
    30   13   33 1   
    31   13   34 1   
    32   13   35 1   
    33   15   37 1   
    34   16   36 1   
    35   18   37 1   
    36   19   37 1   
@<TRIPOS>SUBSTRUCTURE
     1 HBQ         1 TEMP              0 ****  ****    0 ROOT
