@<TRIPOS>MOLECULE
HBQ
   37    37     1     0     0
SMALL
bcc


@<TRIPOS>ATOM
      1 C1          0.3010   -0.0660    0.0770 c2        1 HBQ      0.292000
      2 C2          1.8260   -0.2660   -0.0410 c3        1 HBQ     -0.010000
      3 C3          1.8710   -0.5820    2.3430 c2        1 HBQ     -0.323000
      4 C4          0.4390   -0.0920    2.5560 c3        1 HBQ      0.099000
      5 C5         -0.2570   -0.9260    3.6080 c2        1 HBQ     -0.055000
      6 C6          0.3910   -1.8540    4.2470 c1        1 HBQ     -0.294000
      7 C7          1.0550   -2.7640    4.9360 c2        1 HBQ      0.162000
      8 C8          2.4340   -1.4700    3.1820 c1        1 HBQ      0.225000
      9 C9          2.0840   -1.6710   -0.6190 c3        1 HBQ     -0.150000
     10 C10         1.8730   -1.6830   -2.1110 c3        1 HBQ     -0.225000
     11 C12         4.8810    0.9450   -0.2300 c3        1 HBQ      0.043000
     12 C13         5.9100    0.4170    0.7480 c3        1 HBQ     -0.231500
     13 C14         5.5110    1.8390   -1.2830 c3        1 HBQ     -0.231500
     14 F1          1.0690   -4.0730    4.6280 f         1 HBQ     -0.089000
     15 N1          2.5650   -0.0550    1.2090 n         1 HBQ     -0.223000
     16 N2         -0.2960   -0.0160    1.3160 ns        1 HBQ     -0.378000
     17 O1         -0.4010    0.0570   -0.9460 o         1 HBQ     -0.360000
     18 O2          3.9390    1.8020    0.4520 os        1 HBQ     -0.252000
     19 O3          2.8760    2.0160    2.3490 o         1 HBQ     -0.309000
     20 H2          2.1810    0.5040   -0.7930 h1        1 HBQ      0.141000
     21 H5          0.5230    0.9630    2.9840 h1        1 HBQ      0.131000
     22 H6         -1.3060   -0.6660    3.8300 ha        1 HBQ      0.156000
     23 H8          1.6690   -2.5060    5.8220 h4        1 HBQ      0.171000
     24 H91         1.3990   -2.4080   -0.1260 hc        1 HBQ      0.098000
     25 H92         3.1360   -1.9870   -0.3900 hc        1 HBQ      0.098000
     26 H101        1.9810   -2.7240   -2.5000 hc        1 HBQ      0.087000
     27 H102        2.6270   -1.0360   -2.6220 hc        1 HBQ      0.087000
     28 H103        0.8520   -1.3070   -2.3710 hc        1 HBQ      0.087000
     29 H12         4.3350    0.0950   -0.7240 h1        1 HBQ      0.092000
     30 H131        6.4180    1.2620    1.2720 hc        1 HBQ      0.091667
     31 H132        5.4240   -0.2340    1.5130 hc        1 HBQ      0.091667
     32 H133        6.6760   -0.1810    0.1980 hc        1 HBQ      0.091667
     33 H141        6.2560    1.2460   -1.8650 hc        1 HBQ      0.091667
     34 H142        4.7290    2.2320   -1.9750 hc        1 HBQ      0.091667
     35 H143        6.0240    2.7050   -0.8010 hc        1 HBQ      0.091667
     36 HN2        -1.2820    0.0920    1.3700 hn        1 HBQ      0.242000
     37 C11         3.0960    1.2620    1.3960 c2        1 HBQ      0.371000
@<TRIPOS>BOND
     1    1    2 1   
     2    1   16 1   
     3    1   17 1   
     4    2    9 1   
     5    2   15 1   
     6    2   20 1   
     7    3    4 1   
     8    3    8 1   
     9    3   15 1   
    10    4    5 1   
    11    4   16 1   
    12    4   21 1   
    13    5    6 1   
    14    5   22 1   
    15    6    7 1   
    16    7   14 1   
    17    7   23 1   
    18    9   10 1   
    19    9   24 1   
    20    9   25 1   
    21   10   26 1   
    22   10   27 1   
    23   10   28 1   
    24   11   12 1   
    25   11   13 1   
    26   11   18 1   
    27   11   29 1   
    28   12   30 1   
    29   12   31 1   
    30   12   32 1   
    31   13   33 1   
    32   13   34 1   
    33   13   35 1   
    34   15   37 1   
    35   16   36 1   
    36   18   37 1   
    37   19   37 1   
@<TRIPOS>SUBSTRUCTURE
     1 HBQ         1 TEMP              0 ****  ****    0 ROOT
