@<TRIPOS>MOLECULE
HBQ
   37    33     1     0     0
SMALL
bcc


@<TRIPOS>ATOM
      1 C1         -1.8830   -0.4980   -1.3650 c1        1 HBQ      0.299000
      2 C2         -0.3840   -0.4810   -1.3370 c3        1 HBQ      0.027000
      3 C3         -0.6280   -1.2440    1.0030 c1        1 HBQ      0.062000
      4 C4         -1.9310   -1.8090    0.6410 c1        1 HBQ      0.034000
      5 C5         -2.6160   -2.6010    1.5490 c1        1 HBQ     -0.136000
      6 C6         -2.0600   -2.8620    2.8210 c1        1 HBQ     -0.151000
      7 C7         -0.7890   -2.3100    3.1750 c1        1 HBQ      0.085000
      8 C8         -0.0860   -1.5020    2.2510 c1        1 HBQ     -0.151000
      9 C9          0.2110   -1.7180   -2.2050 c3        1 HBQ     -0.169000
     10 C10        -0.0490   -1.4690   -3.6790 c3        1 HBQ     -0.222000
     11 C11         1.0930    0.5530    0.3440 c1        1 HBQ      0.413000
     12 C12         1.9060    2.8250    0.4100 c3        1 HBQ      0.051000
     13 C13         1.9150    3.9420   -0.6090 c3        1 HBQ     -0.230500
     14 C14         1.7640    3.4170    1.8160 c3        1 HBQ     -0.230500
     15 F1         -0.2100   -2.6600    4.3340 f         1 HBQ     -0.100000
     16 N1          0.1230   -0.4680   -0.0510 n2        1 HBQ     -0.267000
     17 N2         -2.5070   -1.4330   -0.6670 n2        1 HBQ     -0.318000
     18 O1         -2.4830    0.1250   -2.2210 o         1 HBQ     -0.341000
     19 O2          0.7940    1.9420    0.1460 os        1 HBQ     -0.281000
     20 O3          2.1440    0.2260    0.8500 o         1 HBQ     -0.383000
     21 H2         -0.0370    0.2830   -1.8410 h1        1 HBQ      0.160000
     22 H5         -3.4850   -2.9780    1.3090 ha        1 HBQ      0.144000
     23 H6         -2.5440   -3.4180    3.4580 ha        1 HBQ      0.154000
     24 H8          0.7820   -1.1250    2.4940 ha        1 HBQ      0.186000
     25 H91        -0.2290   -2.5510   -1.9310 hc        1 HBQ      0.096500
     26 H92         1.1720   -1.7910   -2.0510 hc        1 HBQ      0.096500
     27 H101        0.4670   -2.1090   -4.2150 hc        1 HBQ      0.086667
     28 H102       -1.0030   -1.5830   -3.8660 hc        1 HBQ      0.086667
     29 H103        0.2220   -0.5580   -3.9090 hc        1 HBQ      0.086667
     30 H12         2.7480    2.3200    0.3500 h1        1 HBQ      0.116000
     31 H131        2.6470    4.5640   -0.4060 hc        1 HBQ      0.091000
     32 H132        2.0440    3.5670   -1.5020 hc        1 HBQ      0.091000
     33 H133        1.0600    4.4210   -0.5760 hc        1 HBQ      0.091000
     34 H141        0.8990    3.8810    1.8920 hc        1 HBQ      0.091000
     35 H142        1.8070    2.7000    2.4780 hc        1 HBQ      0.091000
     36 H143        2.4970    4.0590    1.9790 hc        1 HBQ      0.091000
     37 HN2        -3.3720   -1.6540   -0.8670 hn        1 HBQ      0.250000
@<TRIPOS>BOND
     1    1    2 1   
     2    1   18 1   
     3    2    9 1   
     4    2   16 1   
     5    2   21 1   
     6    3    8 1   
     7    3   16 1   
     8    4    5 1   
     9    4   17 1   
    10    5   22 1   
    11    6    7 1   
    12    6   23 1   
    13    7   15 1   
    14    8   24 1   
    15    9   10 1   
    16    9   25 1   
    17    9   26 1   
    18   10   27 1   
    19   10   28 1   
    20   10   29 1   
    21   11   19 1   
    22   11   20 1   
    23   12   13 1   
    24   12   14 1   
    25   12   19 1   
    26   12   30 1   
    27   13   31 1   
    28   13   32 1   
    29   13   33 1   
    30   14   34 1   
    31   14   35 1   
    32   14   36 1   
    33   17   37 1   
@<TRIPOS>SUBSTRUCTURE
     1 HBQ         1 TEMP              0 ****  ****    0 ROOT
