@<TRIPOS>MOLECULE
HBQ
   37    37     1     0     0
SMALL
bcc


@<TRIPOS>ATOM
      1 C1          0.4410    0.8450   -0.5580 c         1 HBQ      0.674500
      2 C2          1.7000   -0.0380   -0.4000 c3        1 HBQ      0.042700
      3 C3          1.0020   -0.4360    1.9140 ce        1 HBQ     -0.022400
      4 C4         -0.2380    0.0850    1.6260 c2        1 HBQ     -0.035400
      5 C5          1.0250   -3.1610    6.0200 c1        1 HBQ     -0.089500
      6 C6          0.6980   -2.5840    5.0250 ch        1 HBQ     -0.198300
      7 C7          0.3270   -1.8940    3.8420 cf        1 HBQ      0.241800
      8 C8          1.2500   -1.1970    3.1270 ce        1 HBQ     -0.119000
      9 C9          1.4380   -1.3690   -1.1310 c3        1 HBQ     -0.082400
     10 C10         1.4660   -1.1740   -2.6250 c3        1 HBQ     -0.105100
     11 C12         5.4820    1.0790    0.9050 c3        1 HBQ      0.161100
     12 C13         6.3480   -0.1470    1.1040 c3        1 HBQ     -0.111600
     13 C14         5.9910    1.9670   -0.2150 c3        1 HBQ     -0.111600
     14 F1         -0.9840   -1.9860    3.4890 f         1 HBQ     -0.171500
     15 N1          2.0780   -0.2420    0.9950 n         1 HBQ     -0.347000
     16 N2         -0.5000    0.7990    0.4660 n         1 HBQ     -0.473100
     17 O1          0.2520    1.5530   -1.5590 o         1 HBQ     -0.609500
     18 O2          4.1570    0.6720    0.4770 os        1 HBQ     -0.444900
     19 O3          3.6860    0.2960    2.6480 o         1 HBQ     -0.578000
     20 H2          2.5350    0.5030   -0.9420 h1        1 HBQ      0.121700
     21 H5         -1.0970   -0.0650    2.3050 h4        1 HBQ      0.177000
     22 H6          1.3180   -3.6720    6.9030 ha        1 HBQ      0.172500
     23 H8          2.2940   -1.2020    3.4980 ha        1 HBQ      0.188000
     24 H91         2.2260   -2.1130   -0.8380 hc        1 HBQ      0.059200
     25 H92         0.4480   -1.7870   -0.8120 hc        1 HBQ      0.059200
     26 H101        2.4890   -0.8800   -2.9660 hc        1 HBQ      0.046367
     27 H102        1.1830   -2.1260   -3.1360 hc        1 HBQ      0.046367
     28 H103        0.7500   -0.3730   -2.9370 hc        1 HBQ      0.046367
     29 H12         6.3900   -0.7540    0.1690 hc        1 HBQ      0.050533
     30 H131        5.3920    1.6570    1.8660 h1        1 HBQ      0.075700
     31 H132        5.9280   -0.7770    1.9250 hc        1 HBQ      0.050533
     32 H133        7.3820    0.1690    1.3790 hc        1 HBQ      0.050533
     33 H141        6.0410    1.3980   -1.1740 hc        1 HBQ      0.050533
     34 H142        5.3120    2.8410   -0.3560 hc        1 HBQ      0.050533
     35 H143        7.0120    2.3310    0.0490 hc        1 HBQ      0.050533
     36 HN2        -1.3640    1.2810    0.3680 hn        1 HBQ      0.338500
     37 C11         3.2980    0.2530    1.4690 c         1 HBQ      0.747100
@<TRIPOS>BOND
     1    1    2 1   
     2    1   16 1   
     3    1   17 2   
     4    2    9 1   
     5    2   15 1   
     6    2   20 1   
     7    3    4 2   
     8    3    8 1   
     9    3   15 1   
    10    4   16 1   
    11    4   21 1   
    12    5    6 3   
    13    5   22 1   
    14    6    7 1   
    15    7    8 2   
    16    7   14 1   
    17    8   23 1   
    18    9   10 1   
    19    9   24 1   
    20    9   25 1   
    21   10   26 1   
    22   10   27 1   
    23   10   28 1   
    24   11   12 1   
    25   11   13 1   
    26   11   18 1   
    27   11   30 1   
    28   12   29 1   
    29   12   31 1   
    30   12   32 1   
    31   13   33 1   
    32   13   34 1   
    33   13   35 1   
    34   15   37 1   
    35   16   36 1   
    36   18   37 1   
    37   19   37 2   
@<TRIPOS>SUBSTRUCTURE
     1 HBQ         1 TEMP              0 ****  ****    0 ROOT
