@<TRIPOS>MOLECULE
HBQ
   37    38     1     0     0
SMALL
bcc


@<TRIPOS>ATOM
      1 C1         -2.4740    0.6870    5.6150 c         1 HBQ      0.691500
      2 C2         -2.8890   -0.6900    5.0610 c3        1 HBQ      0.054700
      3 C3         -1.7400   -0.0880    2.9670 ca        1 HBQ      0.054600
      4 C4         -1.1100    1.0160    3.6310 ca        1 HBQ      0.026600
      5 C5         -0.0280    1.6680    3.0100 ca        1 HBQ     -0.136000
      6 C6          0.4320    1.2620    1.7650 ca        1 HBQ     -0.150000
      7 C7         -0.1830    0.1780    1.1190 ca        1 HBQ      0.119900
      8 C8         -1.2600   -0.4980    1.7150 ca        1 HBQ     -0.150000
      9 C9         -2.0190   -1.7640    5.7420 c3        1 HBQ     -0.090400
     10 C10        -2.4250   -1.9540    7.1800 c3        1 HBQ     -0.104100
     11 C12        -5.9080   -2.5630    2.9470 c3        1 HBQ      0.162100
     12 C13        -5.4960   -3.9670    2.5570 c3        1 HBQ     -0.112100
     13 C14        -7.0620   -2.5550    3.9310 c3        1 HBQ     -0.112100
     14 F1          0.2670   -0.2260   -0.0940 f         1 HBQ     -0.134900
     15 N1         -2.8250   -0.7360    3.6070 n         1 HBQ     -0.364000
     16 N2         -1.5650    1.4360    4.8880 n         1 HBQ     -0.464100
     17 O1         -2.9190    1.1160    6.6930 o         1 HBQ     -0.616500
     18 O2         -4.8170   -1.9200    3.6570 os        1 HBQ     -0.442900
     19 O3         -3.9150   -1.4610    1.6390 o         1 HBQ     -0.572000
     20 H2         -3.9660   -0.8480    5.3790 h1        1 HBQ      0.120700
     21 H5          0.4610    2.5190    3.5100 ha        1 HBQ      0.144000
     22 H6          1.2720    1.7830    1.2840 ha        1 HBQ      0.154000
     23 H8         -1.7320   -1.3350    1.1720 ha        1 HBQ      0.185000
     24 H91        -0.9390   -1.4720    5.6780 hc        1 HBQ      0.057200
     25 H92        -2.1390   -2.7360    5.1920 hc        1 HBQ      0.057200
     26 H101       -2.3980   -0.9830    7.7340 hc        1 HBQ      0.047367
     27 H102       -3.4620   -2.3640    7.2470 hc        1 HBQ      0.047367
     28 H103       -1.7290   -2.6700    7.6790 hc        1 HBQ      0.047367
     29 H12        -6.1550   -1.9570    2.0320 h1        1 HBQ      0.077700
     30 H131       -6.3540   -4.4830    2.0640 hc        1 HBQ      0.051033
     31 H132       -4.6380   -3.9250    1.8440 hc        1 HBQ      0.051033
     32 H133       -5.1890   -4.5510    3.4570 hc        1 HBQ      0.051033
     33 H141       -7.9490   -3.0310    3.4500 hc        1 HBQ      0.051033
     34 H142       -7.3180   -1.5080    4.2210 hc        1 HBQ      0.051033
     35 H143       -6.7960   -3.1240    4.8530 hc        1 HBQ      0.051033
     36 HN2        -1.2390    2.3040    5.2510 hn        1 HBQ      0.336500
     37 C11        -3.8300   -1.3620    2.8740 c         1 HBQ      0.759100
@<TRIPOS>BOND
     1    1    2 1   
     2    1   16 1   
     3    1   17 2   
     4    2    9 1   
     5    2   15 1   
     6    2   20 1   
     7    3    4 ar  
     8    3    8 ar  
     9    3   15 1   
    10    4    5 ar  
    11    4   16 1   
    12    5    6 ar  
    13    5   21 1   
    14    6    7 ar  
    15    6   22 1   
    16    7    8 ar  
    17    7   14 1   
    18    8   23 1   
    19    9   10 1   
    20    9   24 1   
    21    9   25 1   
    22   10   26 1   
    23   10   27 1   
    24   10   28 1   
    25   11   12 1   
    26   11   13 1   
    27   11   18 1   
    28   11   29 1   
    29   12   30 1   
    30   12   31 1   
    31   12   32 1   
    32   13   33 1   
    33   13   34 1   
    34   13   35 1   
    35   15   37 1   
    36   16   36 1   
    37   18   37 1   
    38   19   37 2   
@<TRIPOS>SUBSTRUCTURE
     1 HBQ         1 TEMP              0 ****  ****    0 ROOT
