@<TRIPOS>MOLECULE
HBR
   14    13     1     0     0
SMALL
bcc


@<TRIPOS>ATOM
      1 C4          1.2780   -1.4000   -0.3830 c3        1 HBR     -0.124100
      2 C3          0.6660   -0.3350    0.5110 c3        1 HBR      0.044100
      3 O7          1.5570    0.7500    0.6910 oh        1 HBR     -0.586800
      4 C2         -0.6570    0.1370   -0.0730 c         1 HBR      0.538100
      5 C1         -1.8570   -0.6700    0.2870 c3        1 HBR     -0.200100
      6 O2         -0.7040    1.1370   -0.7970 o         1 HBR     -0.529100
      7 H41         2.2700   -1.7040    0.0290 hc        1 HBR      0.050033
      8 H42         0.6120   -2.2930   -0.4310 hc        1 HBR      0.050033
      9 H43         1.4300   -1.0030   -1.4150 hc        1 HBR      0.050033
     10 H3          0.5030   -0.7370    1.5510 h1        1 HBR      0.087700
     11 HO7         1.5700    1.2550   -0.1340 ho        1 HBR      0.417000
     12 H11        -1.6440   -1.7580    0.1470 hc        1 HBR      0.068033
     13 H12        -2.1110   -0.4900    1.3620 hc        1 HBR      0.068033
     14 H13        -2.7350   -0.3830   -0.3410 hc        1 HBR      0.068033
@<TRIPOS>BOND
     1    1    2 1   
     2    1    7 1   
     3    1    8 1   
     4    1    9 1   
     5    2    3 1   
     6    2    4 1   
     7    2   10 1   
     8    3   11 1   
     9    4    5 1   
    10    4    6 2   
    11    5   12 1   
    12    5   13 1   
    13    5   14 1   
@<TRIPOS>SUBSTRUCTURE
     1 HBR         1 TEMP              0 ****  ****    0 ROOT
