@<TRIPOS>MOLECULE
HBR
   14    13     1     0     0
SMALL
bcc


@<TRIPOS>ATOM
      1 C4         -0.0180   -0.2480    0.0880 c3        1 HBR     -0.124100
      2 C3          1.4470    0.1210   -0.0690 c3        1 HBR      0.044100
      3 O7          2.0300    0.4270    1.1840 oh        1 HBR     -0.586800
      4 C2          2.1960   -1.0090   -0.7590 c         1 HBR      0.538100
      5 C1          2.1690   -0.9990   -2.2490 c3        1 HBR     -0.200100
      6 O2          2.7880   -1.8670   -0.0960 o         1 HBR     -0.529100
      7 H41        -0.4920   -0.3830   -0.9120 hc        1 HBR      0.050033
      8 H42        -0.1220   -1.1940    0.6710 hc        1 HBR      0.050033
      9 H43        -0.5480    0.5660    0.6380 hc        1 HBR      0.050033
     10 H3          1.5540    1.0710   -0.6650 h1        1 HBR      0.087700
     11 HO7         2.1500   -0.4070    1.6600 ho        1 HBR      0.417000
     12 H11         1.1240   -0.8410   -2.6120 hc        1 HBR      0.068033
     13 H12         2.5600   -1.9610   -2.6610 hc        1 HBR      0.068033
     14 H13         2.8090   -0.1610   -2.6230 hc        1 HBR      0.068033
@<TRIPOS>BOND
     1    1    2 1   
     2    1    7 1   
     3    1    8 1   
     4    1    9 1   
     5    2    3 1   
     6    2    4 1   
     7    2   10 1   
     8    3   11 1   
     9    4    5 1   
    10    4    6 2   
    11    5   12 1   
    12    5   13 1   
    13    5   14 1   
@<TRIPOS>SUBSTRUCTURE
     1 HBR         1 TEMP              0 ****  ****    0 ROOT
