@<TRIPOS>MOLECULE
HBR
   14    13     1     0     0
SMALL
bcc


@<TRIPOS>ATOM
      1 C4         -0.0090   -0.1600    0.0830 c3        1 HBR     -0.124100
      2 C3          1.4600    0.1670   -0.1240 c3        1 HBR      0.044100
      3 O7          2.0660    0.5720    1.0900 oh        1 HBR     -0.586800
      4 C2          2.1810   -1.0320   -0.7210 c         1 HBR      0.538100
      5 C1          2.1330   -1.1520   -2.2050 c3        1 HBR     -0.200100
      6 O2          2.7670   -1.8390    0.0070 o         1 HBR     -0.529100
      7 H41        -0.1200   -1.0500    0.7490 hc        1 HBR      0.050033
      8 H42        -0.4990   -0.3730   -0.8950 hc        1 HBR      0.050033
      9 H43        -0.5180    0.7080    0.5660 hc        1 HBR      0.050033
     10 H3          1.5750    1.0600   -0.8020 h1        1 HBR      0.087700
     11 HO7         2.1780   -0.2200    1.6360 ho        1 HBR      0.417000
     12 H11         2.7830   -0.3630   -2.6590 hc        1 HBR      0.068033
     13 H12         1.0870   -1.0060   -2.5690 hc        1 HBR      0.068033
     14 H13         2.5010   -2.1540   -2.5360 hc        1 HBR      0.068033
@<TRIPOS>BOND
     1    1    2 1   
     2    1    7 1   
     3    1    8 1   
     4    1    9 1   
     5    2    3 1   
     6    2    4 1   
     7    2   10 1   
     8    3   11 1   
     9    4    5 1   
    10    4    6 2   
    11    5   12 1   
    12    5   13 1   
    13    5   14 1   
@<TRIPOS>SUBSTRUCTURE
     1 HBR         1 TEMP              0 ****  ****    0 ROOT
