@<TRIPOS>MOLECULE
HBS
   14    13     1     0     0
SMALL
bcc


@<TRIPOS>ATOM
      1 C4         -0.0130    0.2550    0.1550 c3        1 HBS     -0.124100
      2 C3          1.4330   -0.1340   -0.1010 c3        1 HBS      0.044100
      3 O7          2.0780   -0.5100    1.1010 oh        1 HBS     -0.586800
      4 C2          2.1670    1.0130   -0.7790 c         1 HBS      0.538100
      5 C1          2.0570    1.0740   -2.2640 c3        1 HBS     -0.200100
      6 O2          2.8130    1.8270   -0.1120 o         1 HBS     -0.529100
      7 H41        -0.5390    0.4460   -0.8090 hc        1 HBS      0.050033
      8 H42        -0.0640    1.1750    0.7870 hc        1 HBS      0.050033
      9 H43        -0.5300   -0.5740    0.6960 hc        1 HBS      0.050033
     10 H3          1.4860   -1.0570   -0.7450 h1        1 HBS      0.087700
     11 HO7         2.2410    0.2980    1.6080 ho        1 HBS      0.417000
     12 H11         2.6560    0.2430   -2.7120 hc        1 HBS      0.068033
     13 H12         2.4450    2.0470   -2.6530 hc        1 HBS      0.068033
     14 H13         0.9900    0.9530   -2.5750 hc        1 HBS      0.068033
@<TRIPOS>BOND
     1    1    2 1   
     2    1    7 1   
     3    1    8 1   
     4    1    9 1   
     5    2    3 1   
     6    2    4 1   
     7    2   10 1   
     8    3   11 1   
     9    4    5 1   
    10    4    6 2   
    11    5   12 1   
    12    5   13 1   
    13    5   14 1   
@<TRIPOS>SUBSTRUCTURE
     1 HBS         1 TEMP              0 ****  ****    0 ROOT
