@<TRIPOS>MOLECULE
HBS
   14    13     1     0     0
SMALL
bcc


@<TRIPOS>ATOM
      1 C4         -1.2640    1.4270    0.3910 c3        1 HBS     -0.124100
      2 C3         -0.6720    0.3430   -0.4930 c3        1 HBS      0.044100
      3 O7         -1.5730   -0.7380   -0.6420 oh        1 HBS     -0.586800
      4 C2          0.6550   -0.1280    0.0810 c         1 HBS      0.538100
      5 C1          1.8560    0.6640   -0.3100 c3        1 HBS     -0.200100
      6 O2          0.7050   -1.1160    0.8210 o         1 HBS     -0.529100
      7 H41        -0.5920    2.3170    0.4140 hc        1 HBS      0.050033
      8 H42        -2.2600    1.7310   -0.0120 hc        1 HBS      0.050033
      9 H43        -1.4040    1.0490    1.4320 hc        1 HBS      0.050033
     10 H3         -0.5210    0.7260   -1.5420 h1        1 HBS      0.087700
     11 HO7        -1.5780   -1.2290    0.1920 ho        1 HBS      0.417000
     12 H11         1.6530    1.7560   -0.1860 hc        1 HBS      0.068033
     13 H12         2.7400    0.3810    0.3110 hc        1 HBS      0.068033
     14 H13         2.0940    0.4650   -1.3850 hc        1 HBS      0.068033
@<TRIPOS>BOND
     1    1    2 1   
     2    1    7 1   
     3    1    8 1   
     4    1    9 1   
     5    2    3 1   
     6    2    4 1   
     7    2   10 1   
     8    3   11 1   
     9    4    5 1   
    10    4    6 2   
    11    5   12 1   
    12    5   13 1   
    13    5   14 1   
@<TRIPOS>SUBSTRUCTURE
     1 HBS         1 TEMP              0 ****  ****    0 ROOT
