@<TRIPOS>MOLECULE
HBS
   14    13     1     0     0
SMALL
bcc


@<TRIPOS>ATOM
      1 C4         -0.0220    0.2860    0.1480 c3        1 HBS     -0.124100
      2 C3          1.4100   -0.1460   -0.1160 c3        1 HBS      0.044100
      3 O7          2.0400   -0.5720    1.0780 oh        1 HBS     -0.586800
      4 C2          2.1850    0.9890   -0.7670 c         1 HBS      0.538100
      5 C1          2.0790    1.0880   -2.2500 c3        1 HBS     -0.200100
      6 O2          2.8570    1.7660   -0.0810 o         1 HBS     -0.529100
      7 H41        -0.5390    0.5170   -0.8120 hc        1 HBS      0.050033
      8 H42        -0.0420    1.1920    0.8000 hc        1 HBS      0.050033
      9 H43        -0.5680   -0.5360    0.6700 hc        1 HBS      0.050033
     10 H3          1.4330   -1.0560   -0.7810 h1        1 HBS      0.087700
     11 HO7         2.2310    0.2180    1.6030 ho        1 HBS      0.417000
     12 H11         2.6510    0.2480   -2.7160 hc        1 HBS      0.068033
     13 H12         1.0100    1.0090   -2.5650 hc        1 HBS      0.068033
     14 H13         2.5000    2.0560   -2.6170 hc        1 HBS      0.068033
@<TRIPOS>BOND
     1    1    2 1   
     2    1    7 1   
     3    1    8 1   
     4    1    9 1   
     5    2    3 1   
     6    2    4 1   
     7    2   10 1   
     8    3   11 1   
     9    4    5 1   
    10    4    6 2   
    11    5   12 1   
    12    5   13 1   
    13    5   14 1   
@<TRIPOS>SUBSTRUCTURE
     1 HBS         1 TEMP              0 ****  ****    0 ROOT
