@<TRIPOS>MOLECULE
HBS
   14    13     1     0     0
SMALL
bcc


@<TRIPOS>ATOM
      1 C4         -1.6240   -0.4490    0.5050 c3        1 HBS     -0.124100
      2 C3         -0.1120   -0.4490    0.5050 c3        1 HBS      0.044100
      3 O7          0.3570   -0.4490    1.8320 oh        1 HBS     -0.586800
      4 C2          0.3920    0.7850   -0.2080 c         1 HBS      0.538100
      5 C1          1.3080    0.6470   -1.4040 c3        1 HBS     -0.200100
      6 O2          0.0620    1.8880    0.1800 o         1 HBS     -0.529100
      7 H41        -1.9490   -0.2790   -0.3990 hc        1 HBS      0.050033
      8 H42        -1.9490    0.2490    1.1050 hc        1 HBS      0.050033
      9 H43        -1.9490   -1.3180    0.8100 hc        1 HBS      0.050033
     10 H3          0.2130   -1.2460    0.0450 h1        1 HBS      0.087700
     11 HO7         0.7370   -1.2310    2.0120 ho        1 HBS      0.417000
     12 H11         2.1520    0.2470   -1.1230 hc        1 HBS      0.068033
     13 H12         0.8840    0.0770   -2.0740 hc        1 HBS      0.068033
     14 H13         1.4770    1.5290   -1.7870 hc        1 HBS      0.068033
@<TRIPOS>BOND
     1    1    2 1   
     2    1    7 1   
     3    1    8 1   
     4    1    9 1   
     5    2    3 1   
     6    2    4 1   
     7    2   10 1   
     8    3   11 1   
     9    4    5 1   
    10    4    6 2   
    11    5   12 1   
    12    5   13 1   
    13    5   14 1   
@<TRIPOS>SUBSTRUCTURE
     1 HBS         1 TEMP              0 ****  ****    0 ROOT
