@<TRIPOS>MOLECULE
HBT
   42    39     1     0     0
SMALL
bcc


@<TRIPOS>ATOM
      1 O2          1.4520    2.0480   -2.7330 o         1 HBT     -0.286700
      2 N2          0.9540    3.1020   -2.3570 n2        1 HBT      0.514700
      3 O3         -0.2880    3.4640   -2.7980 os        1 HBT     -0.349000
      4 C13         1.7060    3.9920   -1.5660 c2        1 HBT     -0.094000
      5 C12         2.1340    5.2000   -2.1010 c2        1 HBT     -0.071000
      6 C11         2.9880    6.0190   -1.3730 c1        1 HBT     -0.122000
      7 C10         3.4140    5.6300   -0.1100 c1        1 HBT     -0.098500
      8 C9          2.9860    4.4200    0.4280 c1        1 HBT     -0.098500
      9 C8          2.1340    3.6020   -0.2970 c1        1 HBT     -0.056000
     10 C7          1.5610    2.3130    0.3520 c2        1 HBT      0.350000
     11 O1          1.9350    1.9740    1.4540 o         1 HBT     -0.325000
     12 N1          0.7020    1.4550   -0.4050 n         1 HBT     -0.278000
     13 C6          0.2840    0.1930    0.1460 c2        1 HBT     -0.186000
     14 C14        -1.0840   -0.1300    0.6600 c1        1 HBT     -0.218000
     15 C15        -2.2300    0.8690    0.8470 c1        1 HBT      0.379000
     16 N3         -3.4820    0.4270    1.3450 n3        1 HBT     -0.428000
     17 O4         -2.0540    2.0460    0.6070 o         1 HBT     -0.411000
     18 S1          1.1490   -1.1600    0.1580 ss        1 HBT      0.688000
     19 C5          0.2410   -2.2930    0.6990 c1        1 HBT     -0.435000
     20 C4          0.2900   -3.8010    0.2550 c2        1 HBT     -0.080000
     21 C3         -0.9930   -4.4600    0.0340 c3        1 HBT     -0.101000
     22 C1         -0.7590   -6.0650    0.1780 c3        1 HBT     -0.209000
     23 C2         -2.1090   -4.0790    0.9380 c3        1 HBT     -0.151000
     24 C17        -2.3950   -2.6660    1.0550 c3        1 HBT     -0.100000
     25 C16        -1.1340   -1.6830    1.0130 c2        1 HBT     -0.045000
     26 H12         1.8330    5.4750   -2.9920 ha        1 HBT      0.176000
     27 H11         3.2890    6.8680   -1.7500 ha        1 HBT      0.153000
     28 H10         4.0140    6.2060    0.4000 ha        1 HBT      0.155000
     29 H9          3.2850    4.1480    1.3130 ha        1 HBT      0.155000
     30 HN1         0.3380    1.7520   -1.1840 hn        1 HBT      0.276000
     31 HN3        -3.5270   -0.3200    1.8670 hn        1 HBT      0.227000
     32 HN3A       -4.2400    0.9150    1.1770 hn        1 HBT      0.227000
     33 H4          0.7780   -4.3090    0.9510 ha        1 HBT      0.090000
     34 H4A         0.8050   -3.8540   -0.5790 ha        1 HBT      0.090000
     35 H3         -1.2730   -4.2740   -0.8840 hc        1 HBT      0.097000
     36 H1         -1.5770   -6.5390   -0.0790 hc        1 HBT      0.074667
     37 H1A        -0.5340   -6.2800    1.1060 hc        1 HBT      0.074667
     38 H1B        -0.0200   -6.3420   -0.4110 hc        1 HBT      0.074667
     39 H2         -1.8690   -4.3940    1.8310 hc        1 HBT      0.082500
     40 H2A        -2.9150   -4.5020    0.5840 hc        1 HBT      0.082500
     41 H17        -2.8260   -2.5360    1.9190 hc        1 HBT      0.088500
     42 H17A       -2.9630   -2.4290    0.3010 hc        1 HBT      0.088500
@<TRIPOS>BOND
     1    1    2 2   
     2    2    4 1   
     3    4    5 1   
     4    4    9 1   
     5    5    6 1   
     6    5   26 1   
     7    6   27 1   
     8    7    8 1   
     9    7   28 1   
    10    8   29 1   
    11    9   10 1   
    12   10   11 1   
    13   10   12 1   
    14   12   13 1   
    15   12   30 1   
    16   13   14 1   
    17   13   18 1   
    18   14   25 1   
    19   15   16 1   
    20   15   17 1   
    21   16   31 1   
    22   16   32 1   
    23   18   19 1   
    24   19   25 1   
    25   20   21 1   
    26   20   33 1   
    27   20   34 1   
    28   21   22 1   
    29   21   23 1   
    30   21   35 1   
    31   22   36 1   
    32   22   37 1   
    33   22   38 1   
    34   23   24 1   
    35   23   39 1   
    36   23   40 1   
    37   24   25 1   
    38   24   41 1   
    39   24   42 1   
@<TRIPOS>SUBSTRUCTURE
     1 HBT         1 TEMP              0 ****  ****    0 ROOT
