@<TRIPOS>MOLECULE
HBT
   42    44     1     0     0
SMALL
bcc


@<TRIPOS>ATOM
      1 O2         -0.5820   -0.2820   -2.6680 o         1 HBT     -0.205500
      2 N2          0.3260    0.5030   -2.5940 no        1 HBT      0.316200
      3 O3          0.1500    1.6880   -2.6740 o         1 HBT     -0.205500
      4 C13         1.7140   -0.0050   -2.4270 ca        1 HBT     -0.147200
      5 C12         2.7840    0.8680   -2.6870 ca        1 HBT     -0.071000
      6 C11         4.0920    0.4050   -2.5560 ca        1 HBT     -0.122000
      7 C10         4.3390   -0.9100   -2.1640 ca        1 HBT     -0.089000
      8 C9          3.2760   -1.7720   -1.8930 ca        1 HBT     -0.102000
      9 C8          1.9570   -1.3280   -2.0180 ca        1 HBT     -0.078600
     10 C7          0.8540   -2.2730   -1.6390 c         1 HBT      0.670700
     11 O1          0.4900   -2.3840   -0.4580 o         1 HBT     -0.552100
     12 N1          0.3770   -3.0730   -2.6730 n         1 HBT     -0.417100
     13 C6         -0.7000   -3.9470   -2.5430 cc        1 HBT      0.048500
     14 C14        -1.6490   -4.2060   -3.5400 cd        1 HBT     -0.214600
     15 C15        -1.7470   -3.5250   -4.8470 c         1 HBT      0.681700
     16 N3         -1.6120   -2.1500   -4.8610 n         1 HBT     -0.667000
     17 O4         -1.9160   -4.1440   -5.9180 o         1 HBT     -0.606100
     18 S1         -0.9580   -4.9490   -1.1990 ss        1 HBT      0.101200
     19 C5         -2.2650   -5.7250   -1.8850 cc        1 HBT     -0.151400
     20 C4         -3.0620   -6.7730   -1.2230 c3        1 HBT      0.005900
     21 C3         -3.8650   -7.5780   -2.2440 c3        1 HBT     -0.061700
     22 C1         -4.8490   -8.4830   -1.5360 c3        1 HBT     -0.091100
     23 C2         -4.5880   -6.6510   -3.2120 c3        1 HBT     -0.071400
     24 C17        -3.6160   -5.8020   -4.0110 c3        1 HBT     -0.020100
     25 C16        -2.5420   -5.2540   -3.1580 cd        1 HBT     -0.038300
     26 H12         2.5880    1.9110   -2.9900 ha        1 HBT      0.176000
     27 H11         4.9310    1.0880   -2.7630 ha        1 HBT      0.155000
     28 H10         5.3740   -1.2710   -2.0620 ha        1 HBT      0.153000
     29 H9          3.4700   -2.8070   -1.5670 ha        1 HBT      0.162000
     30 HN1         0.5720   -2.7700   -3.6050 hn        1 HBT      0.334500
     31 HN3        -1.7280   -1.6390   -4.0200 hn        1 HBT      0.312000
     32 HN3A       -1.8110   -1.6770   -5.7100 hn        1 HBT      0.312000
     33 H4         -3.7680   -6.2970   -0.4880 hc        1 HBT      0.049700
     34 H4A        -2.3980   -7.4700   -0.6460 hc        1 HBT      0.049700
     35 H3         -3.1470   -8.2130   -2.8350 hc        1 HBT      0.054700
     36 H1         -4.3140   -9.1510   -0.8190 hc        1 HBT      0.035033
     37 H1A        -5.6000   -7.8830   -0.9680 hc        1 HBT      0.035033
     38 H1B        -5.3920   -9.1180   -2.2770 hc        1 HBT      0.035033
     39 H2         -5.2830   -5.9860   -2.6350 hc        1 HBT      0.044200
     40 H2A        -5.2100   -7.2600   -3.9170 hc        1 HBT      0.044200
     41 H17        -4.1670   -4.9650   -4.5190 hc        1 HBT      0.066700
     42 H17A       -3.1410   -6.4170   -4.8250 hc        1 HBT      0.066700
@<TRIPOS>BOND
     1    1    2 1   
     2    2    3 1   
     3    2    4 1   
     4    4    5 ar  
     5    4    9 ar  
     6    5    6 ar  
     7    5   26 1   
     8    6    7 ar  
     9    6   27 1   
    10    7    8 ar  
    11    7   28 1   
    12    8    9 ar  
    13    8   29 1   
    14    9   10 1   
    15   10   11 2   
    16   10   12 1   
    17   12   13 1   
    18   12   30 1   
    19   13   14 2   
    20   13   18 1   
    21   14   15 1   
    22   14   25 1   
    23   15   16 1   
    24   15   17 2   
    25   16   31 1   
    26   16   32 1   
    27   18   19 1   
    28   19   20 1   
    29   19   25 2   
    30   20   21 1   
    31   20   33 1   
    32   20   34 1   
    33   21   22 1   
    34   21   23 1   
    35   21   35 1   
    36   22   36 1   
    37   22   37 1   
    38   22   38 1   
    39   23   24 1   
    40   23   39 1   
    41   23   40 1   
    42   24   25 1   
    43   24   41 1   
    44   24   42 1   
@<TRIPOS>SUBSTRUCTURE
     1 HBT         1 TEMP              0 ****  ****    0 ROOT
