@<TRIPOS>MOLECULE
HBT
   43    45     1     0     0
SMALL
bcc


@<TRIPOS>ATOM
      1 O2         -0.2690   -0.4090   -3.5000 o         1 HBT     -0.201500
      2 N2          0.3600    0.3100   -2.7630 no        1 HBT      0.307200
      3 O3         -0.0950    1.3300   -2.3370 o         1 HBT     -0.201500
      4 C13         1.7640   -0.0520   -2.4070 ca        1 HBT     -0.130200
      5 C12         2.7390    0.9490   -2.5400 ca        1 HBT     -0.075000
      6 C11         4.0680    0.6620   -2.2270 ca        1 HBT     -0.094000
      7 C10         4.4240   -0.6030   -1.7640 ca        1 HBT     -0.089000
      8 C9          3.4500   -1.5890   -1.6060 ca        1 HBT     -0.078000
      9 C8          2.1140   -1.3290   -1.9290 ca        1 HBT     -0.103600
     10 C7          1.1370   -2.4190   -1.6560 c         1 HBT      0.667700
     11 O1          0.9610   -2.8970   -0.5240 o         1 HBT     -0.531100
     12 N1          0.4560   -2.9580   -2.7600 n         1 HBT     -0.419100
     13 C6         -0.5860   -3.8460   -2.6240 cc        1 HBT      0.119500
     14 C14        -1.5440   -4.1360   -3.6460 cd        1 HBT     -0.321600
     15 C15        -1.4320   -3.5320   -4.9340 c         1 HBT      0.607700
     16 N3         -2.7000   -3.4450   -5.7720 n4        1 HBT     -0.756400
     17 O4         -0.4660   -3.0250   -5.5000 o         1 HBT     -0.474100
     18 S1         -0.9090   -4.7320   -1.2370 ss        1 HBT      0.263200
     19 C5         -2.2290   -5.5080   -1.8970 cc        1 HBT     -0.146400
     20 C4         -2.9980   -6.5400   -1.1750 c3        1 HBT     -0.012100
     21 C3         -3.7080   -7.4600   -2.1630 c3        1 HBT     -0.058700
     22 C1         -4.6170   -8.4210   -1.4290 c3        1 HBT     -0.096100
     23 C2         -4.4980   -6.6290   -3.1590 c3        1 HBT     -0.074400
     24 C17        -3.6250   -5.6810   -3.9680 c3        1 HBT     -0.023100
     25 C16        -2.5070   -5.1050   -3.1870 cd        1 HBT     -0.055300
     26 H12         2.4590    1.9610   -2.8820 ha        1 HBT      0.179000
     27 H11         4.8330    1.4490   -2.3400 ha        1 HBT      0.169000
     28 H10         5.4740   -0.8260   -1.5110 ha        1 HBT      0.168000
     29 H9          3.7250   -2.5810   -1.2070 ha        1 HBT      0.169000
     30 HN1         0.5600   -2.4900   -3.6440 hn        1 HBT      0.366500
     31 HN3        -2.5200   -2.8720   -6.6050 hn        1 HBT      0.463467
     32 HN3A       -2.9930   -4.3820   -6.0610 hn        1 HBT      0.463467
     33 H4         -2.3210   -7.1490   -0.5180 hc        1 HBT      0.071200
     34 H4A        -3.7600   -6.0480   -0.5080 hc        1 HBT      0.071200
     35 H3         -2.9300   -8.0530   -2.7230 hc        1 HBT      0.059700
     36 H1         -5.1040   -9.1200   -2.1510 hc        1 HBT      0.047367
     37 H1A        -5.4160   -7.8680   -0.8770 hc        1 HBT      0.047367
     38 H1B        -4.0300   -9.0220   -0.6930 hc        1 HBT      0.047367
     39 H2         -5.0420   -7.3100   -3.8650 hc        1 HBT      0.060200
     40 H2A        -5.2710   -6.0350   -2.6020 hc        1 HBT      0.060200
     41 H17        -4.3030   -4.8660   -4.3430 hc        1 HBT      0.033700
     42 H17A       -3.2050   -6.2330   -4.8530 hc        1 HBT      0.033700
     43 H33        -3.4460   -3.0180   -5.2160 hn        1 HBT      0.463467
@<TRIPOS>BOND
     1    1    2 1   
     2    2    3 1   
     3    2    4 1   
     4    4    5 ar  
     5    4    9 ar  
     6    5    6 ar  
     7    5   26 1   
     8    6    7 ar  
     9    6   27 1   
    10    7    8 ar  
    11    7   28 1   
    12    8    9 ar  
    13    8   29 1   
    14    9   10 1   
    15   10   11 2   
    16   10   12 1   
    17   12   13 1   
    18   12   30 1   
    19   13   14 2   
    20   13   18 1   
    21   14   15 1   
    22   14   25 1   
    23   15   16 1   
    24   15   17 2   
    25   16   31 1   
    26   16   32 1   
    27   16   43 1   
    28   18   19 1   
    29   19   20 1   
    30   19   25 2   
    31   20   21 1   
    32   20   33 1   
    33   20   34 1   
    34   21   22 1   
    35   21   23 1   
    36   21   35 1   
    37   22   36 1   
    38   22   37 1   
    39   22   38 1   
    40   23   24 1   
    41   23   39 1   
    42   23   40 1   
    43   24   25 1   
    44   24   41 1   
    45   24   42 1   
@<TRIPOS>SUBSTRUCTURE
     1 HBT         1 TEMP              0 ****  ****    0 ROOT
