@<TRIPOS>MOLECULE
HBT
   43    45     1     0     0
SMALL
bcc


@<TRIPOS>ATOM
      1 O2         -0.2440   -0.4050   -3.4490 o         1 HBT     -0.201500
      2 N2          0.4010    0.2940   -2.7050 no        1 HBT      0.307200
      3 O3         -0.0400    1.3100   -2.2550 o         1 HBT     -0.201500
      4 C13         1.8060   -0.0880   -2.3730 ca        1 HBT     -0.130200
      5 C12         2.7890    0.9060   -2.4990 ca        1 HBT     -0.075000
      6 C11         4.1190    0.6010   -2.2080 ca        1 HBT     -0.094000
      7 C10         4.4680   -0.6760   -1.7730 ca        1 HBT     -0.089000
      8 C9          3.4860   -1.6560   -1.6210 ca        1 HBT     -0.078000
      9 C8          2.1480   -1.3760   -1.9230 ca        1 HBT     -0.103600
     10 C7          1.1640   -2.4620   -1.6580 c         1 HBT      0.667700
     11 O1          0.9970   -2.9590   -0.5330 o         1 HBT     -0.531100
     12 N1          0.4650   -2.9740   -2.7630 ns        1 HBT     -0.419100
     13 C6         -0.5840   -3.8530   -2.6310 cc        1 HBT      0.119500
     14 C14        -1.5570   -4.1160   -3.6470 cd        1 HBT     -0.321600
     15 C15        -1.4540   -3.4900   -4.9250 c         1 HBT      0.607700
     16 N3         -2.7300   -3.3750   -5.7470 nz        1 HBT     -0.756400
     17 O4         -0.4890   -2.9820   -5.4930 o         1 HBT     -0.474100
     18 S1         -0.9000   -4.7610   -1.2560 ss        1 HBT      0.263200
     19 C5         -2.2360   -5.5120   -1.9140 cc        1 HBT     -0.146400
     20 C4         -3.0070   -6.5490   -1.2010 c3        1 HBT     -0.013100
     21 C3         -3.7380   -7.4440   -2.1980 c3        1 HBT     -0.058700
     22 C1         -4.6490   -8.4080   -1.4690 c3        1 HBT     -0.096100
     23 C2         -4.5310   -6.5870   -3.1690 c3        1 HBT     -0.074400
     24 C17        -3.6580   -5.6330   -3.9710 c3        1 HBT     -0.023100
     25 C16        -2.5250   -5.0830   -3.1940 cd        1 HBT     -0.055300
     26 H12         2.5140    1.9270   -2.8190 ha        1 HBT      0.179000
     27 H11         4.8890    1.3820   -2.3160 ha        1 HBT      0.169000
     28 H10         5.5180   -0.9130   -1.5360 ha        1 HBT      0.168000
     29 H9          3.7570   -2.6560   -1.2440 ha        1 HBT      0.169000
     30 HN1         0.5630   -2.4910   -3.6400 hn        1 HBT      0.366500
     31 HN3        -2.5540   -2.7900   -6.5710 hn        1 HBT      0.463467
     32 HN3A       -3.0370   -4.3040   -6.0480 hn        1 HBT      0.463467
     33 H4         -2.3280   -7.1770   -0.5640 hc        1 HBT      0.071200
     34 H4A        -3.7550   -6.0610   -0.5170 hc        1 HBT      0.071200
     35 H3         -2.9730   -8.0340   -2.7770 hc        1 HBT      0.059700
     36 H1         -5.4350   -7.8570   -0.8990 hc        1 HBT      0.047367
     37 H1A        -5.1510   -9.0890   -2.1980 hc        1 HBT      0.047367
     38 H1B        -4.0590   -9.0280   -0.7520 hc        1 HBT      0.047367
     39 H2         -5.2910   -5.9950   -2.5920 hc        1 HBT      0.060200
     40 H2A        -5.0910   -7.2490   -3.8800 hc        1 HBT      0.060200
     41 H17        -3.2530   -6.1740   -4.8710 hc        1 HBT      0.033700
     42 H17A       -4.3310   -4.8050   -4.3240 hc        1 HBT      0.033700
     43 H33        -3.4660   -2.9510   -5.1750 hn        1 HBT      0.463467
@<TRIPOS>BOND
     1    1    2 1   
     2    2    3 1   
     3    2    4 1   
     4    4    5 ar  
     5    4    9 ar  
     6    5    6 ar  
     7    5   26 1   
     8    6    7 ar  
     9    6   27 1   
    10    7    8 ar  
    11    7   28 1   
    12    8    9 ar  
    13    8   29 1   
    14    9   10 1   
    15   10   11 2   
    16   10   12 1   
    17   12   13 1   
    18   12   30 1   
    19   13   14 2   
    20   13   18 1   
    21   14   15 1   
    22   14   25 1   
    23   15   16 1   
    24   15   17 2   
    25   16   31 1   
    26   16   32 1   
    27   16   43 1   
    28   18   19 1   
    29   19   20 1   
    30   19   25 2   
    31   20   21 1   
    32   20   33 1   
    33   20   34 1   
    34   21   22 1   
    35   21   23 1   
    36   21   35 1   
    37   22   36 1   
    38   22   37 1   
    39   22   38 1   
    40   23   24 1   
    41   23   39 1   
    42   23   40 1   
    43   24   25 1   
    44   24   41 1   
    45   24   42 1   
@<TRIPOS>SUBSTRUCTURE
     1 HBT         1 TEMP              0 ****  ****    0 ROOT
