@<TRIPOS>MOLECULE
HBT
   42    44     1     0     0
SMALL
bcc


@<TRIPOS>ATOM
      1 O2         -2.4270    0.8790    1.8810 o         1 HBT     -0.197000
      2 N2         -3.5970    0.7150    1.6650 no        1 HBT      0.313200
      3 O3         -4.4500    1.1230    2.4060 o         1 HBT     -0.197000
      4 C13        -4.0110   -0.0450    0.4530 ca        1 HBT     -0.141200
      5 C12        -5.3190   -0.5530    0.3860 ca        1 HBT     -0.072000
      6 C11        -5.7090   -1.2890   -0.7320 ca        1 HBT     -0.122000
      7 C10        -4.8130   -1.5160   -1.7750 ca        1 HBT     -0.091000
      8 C9         -3.5180   -1.0010   -1.7130 ca        1 HBT     -0.103000
      9 C8         -3.1090   -0.2570   -0.6040 ca        1 HBT     -0.077600
     10 C7         -1.7390    0.3480   -0.6020 c         1 HBT      0.676700
     11 O1         -1.5500    1.5280   -0.9460 o         1 HBT     -0.564100
     12 N1         -0.7090   -0.5120   -0.2600 n         1 HBT     -0.421100
     13 C6          0.6220   -0.1410   -0.1550 cc        1 HBT      0.082500
     14 C14         1.6190   -0.9460    0.4300 cd        1 HBT     -0.239600
     15 C15         1.2960   -2.2510    1.0340 c         1 HBT      0.704700
     16 N3          1.8930   -2.6030    2.2180 n         1 HBT     -0.663000
     17 O4          0.4640   -3.0370    0.5180 o         1 HBT     -0.653100
     18 S1          1.2810    1.3020   -0.7420 ss        1 HBT      0.135200
     19 C5          2.8380    0.8910   -0.3130 cc        1 HBT     -0.170400
     20 C4          4.0100    1.7420   -0.5840 c3        1 HBT      0.005900
     21 C3          5.2870    0.9080   -0.6100 c3        1 HBT     -0.060700
     22 C1          6.5010    1.8060   -0.7000 c3        1 HBT     -0.091100
     23 C2          5.3580    0.0280    0.6280 c3        1 HBT     -0.072400
     24 C17         4.1990   -0.9520    0.7080 c3        1 HBT     -0.014100
     25 C16         2.9100   -0.3420    0.3160 cd        1 HBT     -0.049300
     26 H12        -6.0280   -0.3690    1.2120 ha        1 HBT      0.175000
     27 H11        -6.7340   -1.6900   -0.7840 ha        1 HBT      0.153000
     28 H10        -5.1260   -2.1020   -2.6540 ha        1 HBT      0.152000
     29 H9         -2.8120   -1.1730   -2.5420 ha        1 HBT      0.161000
     30 HN1        -0.9300   -1.4440    0.0400 hn        1 HBT      0.360500
     31 HN3         2.4610   -1.9640    2.7110 hn        1 HBT      0.314000
     32 HN3A        1.6470   -3.4600    2.6480 hn        1 HBT      0.314000
     33 H4          3.8940    2.2730   -1.5670 hc        1 HBT      0.050700
     34 H4A         4.0970    2.5300    0.2140 hc        1 HBT      0.050700
     35 H3          5.2580    0.2430   -1.5180 hc        1 HBT      0.054700
     36 H1          6.5760    2.4600    0.2020 hc        1 HBT      0.035700
     37 H1A         7.4320    1.1920   -0.7690 hc        1 HBT      0.035700
     38 H1B         6.4350    2.4560   -1.6050 hc        1 HBT      0.035700
     39 H2          6.3210   -0.5460    0.6250 hc        1 HBT      0.043200
     40 H2A         5.3580    0.6810    1.5400 hc        1 HBT      0.043200
     41 H17         4.3970   -1.8270    0.0280 hc        1 HBT      0.050700
     42 H17A        4.1600   -1.3490    1.7560 hc        1 HBT      0.050700
@<TRIPOS>BOND
     1    1    2 1   
     2    2    3 1   
     3    2    4 1   
     4    4    5 ar  
     5    4    9 ar  
     6    5    6 ar  
     7    5   26 1   
     8    6    7 ar  
     9    6   27 1   
    10    7    8 ar  
    11    7   28 1   
    12    8    9 ar  
    13    8   29 1   
    14    9   10 1   
    15   10   11 2   
    16   10   12 1   
    17   12   13 1   
    18   12   30 1   
    19   13   14 2   
    20   13   18 1   
    21   14   15 1   
    22   14   25 1   
    23   15   16 1   
    24   15   17 2   
    25   16   31 1   
    26   16   32 1   
    27   18   19 1   
    28   19   20 1   
    29   19   25 2   
    30   20   21 1   
    31   20   33 1   
    32   20   34 1   
    33   21   22 1   
    34   21   23 1   
    35   21   35 1   
    36   22   36 1   
    37   22   37 1   
    38   22   38 1   
    39   23   24 1   
    40   23   39 1   
    41   23   40 1   
    42   24   25 1   
    43   24   41 1   
    44   24   42 1   
@<TRIPOS>SUBSTRUCTURE
     1 HBT         1 TEMP              0 ****  ****    0 ROOT
