@<TRIPOS>MOLECULE
HBU
   18    17     1     0     0
SMALL
bcc


@<TRIPOS>ATOM
      1 O1          1.2030   -0.4090   -2.2000 o         1 HBU     -0.859300
      2 C2          1.5130   -0.2600   -0.9810 c         1 HBU      0.919600
      3 O3          0.9540   -0.9040   -0.0460 o         1 HBU     -0.859300
      4 C4          2.5480    0.8200   -0.6170 c3        1 HBU     -0.285400
      5 C5          3.9520    0.3310   -0.4660 c         1 HBU      0.627100
      6 O8          4.6180    0.5150    0.5670 o         1 HBU     -0.596100
      7 C9          4.6240   -0.3240   -1.6150 c3        1 HBU     -0.443600
      8 P10         6.2910    0.0390   -1.5280 p5        1 HBU      1.281400
      9 O13         7.0310   -0.9450   -0.6900 o         1 HBU     -0.897000
     10 O14         6.5370    1.5020   -1.4010 o         1 HBU     -0.897000
     11 C15         6.6760   -0.3630   -3.1630 c3        1 HBU     -0.346300
     12 HC41        2.2200    1.3070    0.3360 hc        1 HBU      0.041200
     13 HC42        2.5470    1.5880   -1.4340 hc        1 HBU      0.041200
     14 HC91        4.4620   -1.4270   -1.5320 hc        1 HBU      0.090700
     15 HC92        4.1470   -0.0040   -2.5700 hc        1 HBU      0.090700
     16 H151        6.2310    0.3670   -3.8710 hc        1 HBU      0.029700
     17 H152        6.3170   -1.3780   -3.4290 hc        1 HBU      0.029700
     18 H153        7.7790   -0.3430   -3.2930 hc        1 HBU      0.029700
@<TRIPOS>BOND
     1    1    2 1   
     2    2    3 1   
     3    2    4 1   
     4    4    5 1   
     5    4   12 1   
     6    4   13 1   
     7    5    6 2   
     8    5    7 1   
     9    7    8 1   
    10    7   14 1   
    11    7   15 1   
    12    8    9 1   
    13    8   10 1   
    14    8   11 1   
    15   11   16 1   
    16   11   17 1   
    17   11   18 1   
@<TRIPOS>SUBSTRUCTURE
     1 HBU         1 TEMP              0 ****  ****    0 ROOT
