@<TRIPOS>MOLECULE
HBU
   19    18     1     0     0
SMALL
bcc


@<TRIPOS>ATOM
      1 O1         -0.4320    0.6660   -3.7160 o         1 HBU     -0.822300
      2 C2         -0.7050    0.6600   -2.4880 c         1 HBU      0.930600
      3 O3         -0.9510    1.6890   -1.7970 o         1 HBU     -0.822300
      4 C4         -0.8010   -0.7380   -1.8120 c3        1 HBU     -0.306400
      5 C5         -0.2300   -0.8000   -0.4530 c         1 HBU      0.646100
      6 O8          0.6500   -1.5980   -0.0740 o         1 HBU     -0.639100
      7 C9         -0.7350    0.1430    0.5920 c3        1 HBU     -0.577600
      8 P10         0.0700   -0.1230    1.9950 p5        1 HBU      1.520100
      9 O13         1.4660    0.2790    2.1410 o         1 HBU     -0.882300
     10 O14        -0.0530   -1.6960    2.3520 oh        1 HBU     -0.809400
     11 C15        -0.9320    0.5390    3.1390 c3        1 HBU     -0.430300
     12 HC41       -0.3020   -1.4870   -2.4780 hc        1 HBU      0.064700
     13 HC42       -1.8950   -0.9760   -1.7530 hc        1 HBU      0.064700
     14 HC91       -1.8480    0.0480    0.6560 hc        1 HBU      0.163200
     15 HC92       -0.5920    1.1850    0.1480 hc        1 HBU      0.163200
     16 H141        0.6380   -2.2490    1.9940 ho        1 HBU      0.475000
     17 H151       -0.3540    0.8520    4.0420 hc        1 HBU      0.087700
     18 H152       -1.4710    1.4450    2.7770 hc        1 HBU      0.087700
     19 H153       -1.7080   -0.1820    3.4900 hc        1 HBU      0.087700
@<TRIPOS>BOND
     1    1    2 1   
     2    2    3 1   
     3    2    4 1   
     4    4    5 1   
     5    4   12 1   
     6    4   13 1   
     7    5    6 2   
     8    5    7 1   
     9    7    8 1   
    10    7   14 1   
    11    7   15 1   
    12    8    9 2   
    13    8   10 1   
    14    8   11 1   
    15   10   16 1   
    16   11   17 1   
    17   11   18 1   
    18   11   19 1   
@<TRIPOS>SUBSTRUCTURE
     1 HBU         1 TEMP              0 ****  ****    0 ROOT
