@<TRIPOS>MOLECULE
HBU
   19    18     1     0     0
SMALL
bcc


@<TRIPOS>ATOM
      1 O1          0.5960   -0.5650   -0.1100 o         1 HBU     -0.822300
      2 C2          1.6810   -0.6010   -0.7420 c         1 HBU      0.930600
      3 O3          2.2240   -1.6510   -1.1900 o         1 HBU     -0.822300
      4 C4          2.3530    0.7720   -1.0330 c3        1 HBU     -0.306400
      5 C5          3.8230    0.7740   -0.9010 c         1 HBU      0.646100
      6 O8          4.4830    1.5420   -0.1750 o         1 HBU     -0.639100
      7 C9          4.6260   -0.2000   -1.7040 c3        1 HBU     -0.577600
      8 P10         6.2160   -0.0000   -1.3610 p5        1 HBU      1.520100
      9 O13         6.7630   -0.4300   -0.0760 o         1 HBU     -0.882300
     10 O14         6.5840    1.5600   -1.5800 oh        1 HBU     -0.809400
     11 C15         6.9760   -0.6880   -2.6650 c3        1 HBU     -0.430300
     12 HC41        2.0880    1.0250   -2.0920 hc        1 HBU      0.064700
     13 HC42        1.9010    1.5380   -0.3530 hc        1 HBU      0.064700
     14 HC91        4.3540   -0.0890   -2.7830 hc        1 HBU      0.163200
     15 HC92        4.2040   -1.2270   -1.4370 hc        1 HBU      0.163200
     16 H141        6.4750    2.1160   -0.8120 ho        1 HBU      0.475000
     17 H151        7.9980   -1.0440   -2.3900 hc        1 HBU      0.087700
     18 H152        7.1040    0.0320   -3.5080 hc        1 HBU      0.087700
     19 H153        6.4300   -1.5710   -3.0720 hc        1 HBU      0.087700
@<TRIPOS>BOND
     1    1    2 1   
     2    2    3 1   
     3    2    4 1   
     4    4    5 1   
     5    4   12 1   
     6    4   13 1   
     7    5    6 2   
     8    5    7 1   
     9    7    8 1   
    10    7   14 1   
    11    7   15 1   
    12    8    9 2   
    13    8   10 1   
    14    8   11 1   
    15   10   16 1   
    16   11   17 1   
    17   11   18 1   
    18   11   19 1   
@<TRIPOS>SUBSTRUCTURE
     1 HBU         1 TEMP              0 ****  ****    0 ROOT
