@<TRIPOS>MOLECULE
HBX
   14    14     1     0     0
SMALL
bcc


@<TRIPOS>ATOM
      1 C1'         1.9490    0.5180   -0.0000 c         1 HBX      0.575500
      2 O1'         2.8190   -0.3560   -0.0000 o         1 HBX     -0.528100
      3 C1          0.5050    0.2340    0.0000 ca        1 HBX     -0.197600
      4 C2         -0.4120    1.2940    0.0000 ca        1 HBX     -0.078000
      5 C3         -1.7800    1.0320    0.0000 ca        1 HBX     -0.145000
      6 C4         -2.2400   -0.2860    0.0000 ca        1 HBX     -0.098000
      7 C5         -1.3310   -1.3440    0.0000 ca        1 HBX     -0.145000
      8 C6          0.0390   -1.0860    0.0000 ca        1 HBX     -0.078000
      9 H1'         2.2170    1.6000   -0.0000 h4        1 HBX     -0.002800
     10 H2         -0.0500    2.3340    0.0000 ha        1 HBX      0.144000
     11 H3         -2.4980    1.8650    0.0000 ha        1 HBX      0.137500
     12 H4         -3.3210   -0.4900    0.0000 ha        1 HBX      0.135000
     13 H5         -1.6930   -2.3820    0.0000 ha        1 HBX      0.137500
     14 H6          0.7690   -1.9130   -0.0000 ha        1 HBX      0.144000
@<TRIPOS>BOND
     1    1    2 2   
     2    1    3 1   
     3    1    9 1   
     4    3    4 ar  
     5    3    8 ar  
     6    4    5 ar  
     7    4   10 1   
     8    5    6 ar  
     9    5   11 1   
    10    6    7 ar  
    11    6   12 1   
    12    7    8 ar  
    13    7   13 1   
    14    8   14 1   
@<TRIPOS>SUBSTRUCTURE
     1 HBX         1 TEMP              0 ****  ****    0 ROOT
