@<TRIPOS>MOLECULE
HBX
   14    14     1     0     0
SMALL
bcc


@<TRIPOS>ATOM
      1 C1'         0.0190   -0.0010    0.0040 c         1 HBX      0.575500
      2 O1'         1.2500   -0.0020   -0.0760 o         1 HBX     -0.528100
      3 C1         -0.7170   -0.0010    1.2780 ca        1 HBX     -0.197600
      4 C2         -2.1180    0.0000    1.2710 ca        1 HBX     -0.078000
      5 C3         -2.8210    0.0010    2.4740 ca        1 HBX     -0.145000
      6 C4         -2.1310    0.0000    3.6880 ca        1 HBX     -0.098000
      7 C5         -0.7360   -0.0010    3.6990 ca        1 HBX     -0.145000
      8 C6         -0.0290   -0.0010    2.4980 ca        1 HBX     -0.078000
      9 H1'        -0.6190   -0.0010   -0.9100 h4        1 HBX     -0.002800
     10 H2         -2.6630    0.0010    0.3150 ha        1 HBX      0.144000
     11 H3         -3.9210    0.0010    2.4670 ha        1 HBX      0.137500
     12 H4         -2.6890    0.0010    4.6360 ha        1 HBX      0.135000
     13 H5         -0.1930   -0.0010    4.6550 ha        1 HBX      0.137500
     14 H6          1.0730   -0.0020    2.4920 ha        1 HBX      0.144000
@<TRIPOS>BOND
     1    1    2 2   
     2    1    3 1   
     3    1    9 1   
     4    3    4 ar  
     5    3    8 ar  
     6    4    5 ar  
     7    4   10 1   
     8    5    6 ar  
     9    5   11 1   
    10    6    7 ar  
    11    6   12 1   
    12    7    8 ar  
    13    7   13 1   
    14    8   14 1   
@<TRIPOS>SUBSTRUCTURE
     1 HBX         1 TEMP              0 ****  ****    0 ROOT
