@<TRIPOS>MOLECULE
HBX
   14    11     1     0     0
SMALL
bcc


@<TRIPOS>ATOM
      1 C1'         1.1710    0.0000   -2.0580 c1        1 HBX      0.223000
      2 O1'         2.3880    0.0000   -2.0580 o         1 HBX     -0.289000
      3 C1          0.4150    0.0000   -0.7480 c1        1 HBX     -0.177000
      4 C2         -0.9710    0.0000   -0.7480 c2        1 HBX     -0.087000
      5 C3         -1.6640    0.0000    0.4520 c1        1 HBX     -0.145000
      6 C4         -0.9710   -0.0000    1.6530 c1        1 HBX     -0.121500
      7 C5          0.4150   -0.0000    1.6530 c1        1 HBX     -0.121500
      8 C6          1.1080   -0.0000    0.4520 c1        1 HBX     -0.069000
      9 H1'         0.6830    0.0000   -2.9040 ha        1 HBX      0.090000
     10 H2         -1.4590    0.0000   -1.5930 ha        1 HBX      0.134000
     11 H3         -2.6400    0.0000    0.4520 ha        1 HBX      0.137000
     12 H4         -1.4590   -0.0000    2.4980 ha        1 HBX      0.136500
     13 H5          0.9030   -0.0000    2.4980 ha        1 HBX      0.136500
     14 H6          2.0840   -0.0000    0.4520 ha        1 HBX      0.154000
@<TRIPOS>BOND
     1    1    2 1   
     2    1    9 1   
     3    3    4 1   
     4    3    8 1   
     5    4    5 1   
     6    4   10 1   
     7    5   11 1   
     8    6    7 1   
     9    6   12 1   
    10    7   13 1   
    11    8   14 1   
@<TRIPOS>SUBSTRUCTURE
     1 HBX         1 TEMP              0 ****  ****    0 ROOT
