@<TRIPOS>MOLECULE
HBY
   42    43     1     0     0
SMALL
bcc


@<TRIPOS>ATOM
      1 C1          0.1310    0.3940   -1.7920 c3        1 HBY      0.067700
      2 C2          1.3870   -0.3480   -2.2930 c         1 HBY      0.382400
      3 C3          2.2100   -0.2680   -0.0050 ca        1 HBY     -0.032400
      4 C4          0.9120    0.0700    0.5060 ca        1 HBY      0.079600
      5 C5          0.7730    0.3850    1.8630 ca        1 HBY     -0.138000
      6 C6          1.8970    0.3450    2.7070 ca        1 HBY      0.131100
      7 C7          3.1610    0.0100    2.2150 ca        1 HBY     -0.195000
      8 C8          3.3120   -0.2880    0.8640 ca        1 HBY     -0.108000
      9 C10        -3.0120   -1.1110    1.5680 c3        1 HBY      0.159100
     10 C12        -2.8400   -1.9290    2.8330 c3        1 HBY     -0.112600
     11 C11        -3.8910    0.1030    1.7840 c3        1 HBY     -0.112600
     12 C13         0.3470    1.8880   -2.0730 c3        1 HBY     -0.042300
     13 C14        -2.2880    2.3900   -2.7500 c3        1 HBY     -0.057000
     14 C15         2.7470    0.6770    4.9050 c3        1 HBY      0.111700
     15 N1         -0.1740    0.1020   -0.3970 n         1 HBY     -0.355000
     16 N2          2.3690   -0.5720   -1.3710 n         1 HBY     -0.375100
     17 O1         -2.4020   -0.4210   -0.8950 o         1 HBY     -0.584000
     18 O2         -1.6680   -0.6790    1.2270 os        1 HBY     -0.427900
     19 O3          1.6290    0.6620    4.0240 os        1 HBY     -0.320900
     20 S1          1.4890   -0.7680   -3.8120 s         1 HBY     -0.442400
     21 S2         -1.0040    2.9470   -1.6940 ss        1 HBY     -0.265200
     22 H1         -0.7430    0.0360   -2.4250 h1        1 HBY      0.132700
     23 H5         -0.2080    0.6500    2.2910 ha        1 HBY      0.181000
     24 H7          4.0390   -0.0210    2.8740 ha        1 HBY      0.146000
     25 H8          4.3130   -0.5480    0.4830 ha        1 HBY      0.141000
     26 H10        -3.4150   -1.7450    0.7300 h1        1 HBY      0.075700
     27 H121       -3.8410   -2.2940    3.1660 hc        1 HBY      0.051533
     28 H122       -2.1730   -2.8030    2.6420 hc        1 HBY      0.051533
     29 H123       -2.3870   -1.3080    3.6430 hc        1 HBY      0.051533
     30 H111       -3.4610    0.7630    2.5750 hc        1 HBY      0.051533
     31 H112       -3.9710    0.6860    0.8350 hc        1 HBY      0.051533
     32 H113       -4.9100   -0.2250    2.0980 hc        1 HBY      0.051533
     33 H131        1.1960    2.2860   -1.4610 h1        1 HBY      0.090700
     34 H132        0.6180    1.9820   -3.1560 h1        1 HBY      0.090700
     35 H141       -3.1180    3.1250   -2.6330 h1        1 HBY      0.073033
     36 H142       -1.9720    2.3630   -3.8160 h1        1 HBY      0.073033
     37 H143       -2.6540    1.3790   -2.4560 h1        1 HBY      0.073033
     38 H151        2.2970    0.9740    5.8870 h1        1 HBY      0.047033
     39 H152        3.2080   -0.3380    4.9740 h1        1 HBY      0.047033
     40 H153        3.5020    1.4310    4.5740 h1        1 HBY      0.047033
     41 HN2         3.2170   -1.0120   -1.6610 hn        1 HBY      0.344500
     42 C9         -1.4630   -0.3320   -0.0850 c         1 HBY      0.764100
@<TRIPOS>BOND
     1    1    2 1   
     2    1   12 1   
     3    1   15 1   
     4    1   22 1   
     5    2   16 1   
     6    2   20 2   
     7    3    4 ar  
     8    3    8 ar  
     9    3   16 1   
    10    4    5 ar  
    11    4   15 1   
    12    5    6 ar  
    13    5   23 1   
    14    6    7 ar  
    15    6   19 1   
    16    7    8 ar  
    17    7   24 1   
    18    8   25 1   
    19    9   10 1   
    20    9   11 1   
    21    9   18 1   
    22    9   26 1   
    23   10   27 1   
    24   10   28 1   
    25   10   29 1   
    26   11   30 1   
    27   11   31 1   
    28   11   32 1   
    29   12   21 1   
    30   12   33 1   
    31   12   34 1   
    32   13   21 1   
    33   13   35 1   
    34   13   36 1   
    35   13   37 1   
    36   14   19 1   
    37   14   38 1   
    38   14   39 1   
    39   14   40 1   
    40   15   42 1   
    41   16   41 1   
    42   17   42 2   
    43   18   42 1   
@<TRIPOS>SUBSTRUCTURE
     1 HBY         1 TEMP              0 ****  ****    0 ROOT
