@<TRIPOS>MOLECULE
HBY
   42    41     1     0     0
SMALL
bcc


@<TRIPOS>ATOM
      1 C1          0.1580    0.8870    0.0040 c3        1 HBY      0.063700
      2 C2          1.6360    0.4380   -0.0070 c         1 HBY      0.371400
      3 C3          1.4310    0.2230    2.4050 ce        1 HBY      0.086900
      4 C4          0.0450    0.2490    2.3590 cf        1 HBY      0.067600
      5 C5         -0.7760    0.3330    3.5600 cf        1 HBY     -0.246000
      6 C6         -0.5090   -0.3610    4.6860 c2        1 HBY      0.065100
      7 C7          2.8000    0.3360    4.6240 c1        1 HBY     -0.104500
      8 C8          2.1560    0.2760    3.6160 cg        1 HBY     -0.177300
      9 C10        -3.3220   -3.9360    3.3980 c2        1 HBY     -0.168200
     10 C12        -2.3370   -4.7950    3.6490 c2        1 HBY     -0.238000
     11 C11        -4.5360   -3.8010    4.2270 c3        1 HBY     -0.068900
     12 C13         0.1530    2.4220    0.0210 c3        1 HBY     -0.041300
     13 C14        -2.1300    2.6860   -1.5240 c3        1 HBY     -0.057000
     14 C15        -1.0360   -0.9860    6.8940 c3        1 HBY      0.109700
     15 N1         -0.5950    0.2890    1.1000 n         1 HBY     -0.395000
     16 N2          2.1910    0.1790    1.2160 n         1 HBY     -0.385100
     17 O1         -2.2660   -0.4590   -0.3500 o         1 HBY     -0.526000
     18 O2         -2.4250   -1.2060    1.6880 oh        1 HBY     -0.560100
     19 O3         -1.3490   -0.1760    5.7610 os        1 HBY     -0.323900
     20 S1          2.4130    0.3230   -1.3730 s         1 HBY     -0.421400
     21 S2         -1.4280    3.1900    0.0010 ss        1 HBY     -0.265200
     22 H1         -0.3070    0.5400   -0.9740 h1        1 HBY      0.133700
     23 H5         -1.6410    1.0190    3.5150 ha        1 HBY      0.174000
     24 H7          0.3290   -1.0650    4.8110 h4        1 HBY      0.146000
     25 H8          3.3640    0.3920    5.5210 ha        1 HBY      0.176500
     26 H10        -2.0210   -1.1960    2.5700 ho        1 HBY      0.445000
     27 H121       -3.2820   -3.2640    2.5200 ha        1 HBY      0.133000
     28 H122       -2.3500   -5.4820    4.5050 ha        1 HBY      0.108000
     29 H123       -1.4540   -4.8780    3.0030 ha        1 HBY      0.108000
     30 H111       -4.5190   -4.4890    5.1080 hc        1 HBY      0.041700
     31 H112       -5.4440   -4.0350    3.6150 hc        1 HBY      0.041700
     32 H113       -4.6330   -2.7510    4.6010 hc        1 HBY      0.041700
     33 H131        0.6380    2.8070    0.9540 h1        1 HBY      0.090200
     34 H132        0.7590    2.7600   -0.8580 h1        1 HBY      0.090200
     35 H141       -2.3450    1.5910   -1.5400 h1        1 HBY      0.074033
     36 H142       -3.0910    3.2440   -1.6140 h1        1 HBY      0.074033
     37 H143       -1.4780    2.9380   -2.3890 h1        1 HBY      0.074033
     38 H151       -0.0130   -0.7450    7.2740 h1        1 HBY      0.050033
     39 H152       -1.1110   -2.0690    6.6320 h1        1 HBY      0.050033
     40 H153       -1.8160   -0.7020    7.6440 h1        1 HBY      0.050033
     41 HN2         3.1660   -0.0310    1.2800 hn        1 HBY      0.350500
     42 C9         -1.7520   -0.4420    0.7780 c         1 HBY      0.761100
@<TRIPOS>BOND
     1    1    2 1   
     2    1   12 1   
     3    1   15 1   
     4    1   22 1   
     5    2   16 1   
     6    2   20 2   
     7    3    4 2   
     8    3    8 1   
     9    3   16 1   
    10    4    5 1   
    11    4   15 1   
    12    5    6 2   
    13    5   23 1   
    14    6   19 1   
    15    6   24 1   
    16    7    8 3   
    17    7   25 1   
    18    9   10 2   
    19    9   11 1   
    20    9   27 1   
    21   10   28 1   
    22   10   29 1   
    23   11   30 1   
    24   11   31 1   
    25   11   32 1   
    26   12   21 1   
    27   12   33 1   
    28   12   34 1   
    29   13   21 1   
    30   13   35 1   
    31   13   36 1   
    32   13   37 1   
    33   14   19 1   
    34   14   38 1   
    35   14   39 1   
    36   14   40 1   
    37   15   42 1   
    38   16   41 1   
    39   17   42 2   
    40   18   26 1   
    41   18   42 1   
@<TRIPOS>SUBSTRUCTURE
     1 HBY         1 TEMP              0 ****  ****    0 ROOT
