@<TRIPOS>MOLECULE
HBY
   42    39     1     0     0
SMALL
bcc


@<TRIPOS>ATOM
      1 C1          0.3900    1.2130   -0.9700 c3        1 HBY      0.067000
      2 C2          1.8860    1.2330   -0.9760 c2        1 HBY     -0.078000
      3 C3          1.9210    0.5910    1.3410 c1        1 HBY     -0.022000
      4 C4          0.6220   -0.0620    1.1430 c1        1 HBY      0.093000
      5 C5          0.0720   -0.8340    2.1590 c1        1 HBY     -0.155000
      6 C6          0.7690   -0.9930    3.3930 c1        1 HBY      0.088000
      7 C7          2.0430   -0.3520    3.5870 c1        1 HBY     -0.197000
      8 C8          2.6060    0.4360    2.5520 c1        1 HBY     -0.110000
      9 C9         -1.0630   -0.6830   -0.6380 c1        1 HBY      0.410000
     10 C10        -2.1060   -1.9300   -2.4490 c3        1 HBY      0.050000
     11 C12        -2.5460   -1.5800   -3.9080 c3        1 HBY     -0.230500
     12 C11        -1.6470   -3.4090   -2.3850 c3        1 HBY     -0.230500
     13 C13        -0.1790    2.6710   -0.6070 c3        1 HBY     -0.313000
     14 C14        -0.2360    5.4560   -1.5650 c3        1 HBY     -0.418000
     15 C15         0.7850   -2.8210    4.9270 c3        1 HBY     -0.078000
     16 N1         -0.1280    0.2370   -0.1370 n2        1 HBY     -0.263000
     17 N2          2.5140    1.3160    0.1890 n         1 HBY     -0.215000
     18 O1         -1.8710   -1.1420    0.0740 o         1 HBY     -0.380000
     19 O2         -1.0240   -1.0720   -2.0520 os        1 HBY     -0.281000
     20 O3          0.1260   -1.6450    4.4920 os        1 HBY     -0.201000
     21 S1          2.6940    1.5720   -2.3750 s         1 HBY     -0.033000
     22 S2         -0.0480    3.7580   -2.0720 ss        1 HBY      0.179000
     23 H1          0.0380    1.0960   -1.8850 h1        1 HBY      0.157000
     24 H5         -0.8340   -1.2900    2.0200 ha        1 HBY      0.191000
     25 H7          2.5000   -0.4560    4.3960 ha        1 HBY      0.145000
     26 H8          3.4810    0.8750    2.6840 ha        1 HBY      0.140000
     27 H10        -2.8650   -1.7990   -1.8420 h1        1 HBY      0.115000
     28 H121       -3.4170   -2.0830   -4.1320 hc        1 HBY      0.091000
     29 H122       -1.8320   -1.8510   -4.5460 hc        1 HBY      0.091000
     30 H123       -2.7050   -0.5760   -3.9830 hc        1 HBY      0.091000
     31 H111       -2.3540   -3.9850   -2.7400 hc        1 HBY      0.091000
     32 H112       -1.4680   -3.6470   -1.4700 hc        1 HBY      0.091000
     33 H113       -0.8270   -3.5260   -2.9220 hc        1 HBY      0.091000
     34 H131       -1.1100    2.5970   -0.3370 h1        1 HBY      0.118500
     35 H132        0.3620    3.0650    0.1530 h1        1 HBY      0.118500
     36 H141        0.5450    5.7290   -1.0490 h1        1 HBY      0.092667
     37 H142       -0.3230    6.0330   -2.3620 h1        1 HBY      0.092667
     38 H143       -1.0350    5.5430   -1.0130 h1        1 HBY      0.092667
     39 H151        0.7620   -3.4770    4.2260 h1        1 HBY      0.085333
     40 H152        0.3370   -3.1730    5.7140 h1        1 HBY      0.085333
     41 H153        1.7500   -2.6040    5.1560 h1        1 HBY      0.085333
     42 HN2         3.4160    1.5680    0.2130 hn        1 HBY      0.254000
@<TRIPOS>BOND
     1    1    2 1   
     2    1   13 1   
     3    1   16 1   
     4    1   23 1   
     5    2   17 1   
     6    2   21 1   
     7    3    8 1   
     8    3   17 1   
     9    4    5 1   
    10    4   16 1   
    11    5   24 1   
    12    6    7 1   
    13    6   20 1   
    14    7   25 1   
    15    8   26 1   
    16    9   18 1   
    17    9   19 1   
    18   10   11 1   
    19   10   12 1   
    20   10   19 1   
    21   10   27 1   
    22   11   28 1   
    23   11   29 1   
    24   11   30 1   
    25   12   31 1   
    26   12   32 1   
    27   12   33 1   
    28   13   22 1   
    29   13   34 1   
    30   13   35 1   
    31   14   22 1   
    32   14   36 1   
    33   14   37 1   
    34   14   38 1   
    35   15   20 1   
    36   15   39 1   
    37   15   40 1   
    38   15   41 1   
    39   17   42 1   
@<TRIPOS>SUBSTRUCTURE
     1 HBY         1 TEMP              0 ****  ****    0 ROOT
