@<TRIPOS>MOLECULE
HBY
   42    41     1     0     0
SMALL
bcc


@<TRIPOS>ATOM
      1 C1          0.1950    0.9110    0.0210 c3        1 HBY      0.063700
      2 C2          1.6500    0.3950   -0.0130 c         1 HBY      0.371400
      3 C3          1.4360    0.0840    2.3880 ce        1 HBY      0.086900
      4 C4          0.0530    0.1780    2.3470 cf        1 HBY      0.067600
      5 C5         -0.7630    0.2470    3.5520 cf        1 HBY     -0.246000
      6 C6         -0.5280   -0.5060    4.6470 c2        1 HBY      0.065100
      7 C7          2.8110    0.0360    4.6060 c1        1 HBY     -0.104500
      8 C8          2.1640    0.0510    3.5980 cg        1 HBY     -0.177300
      9 C10        -3.4140   -3.9360    3.1860 c2        1 HBY     -0.168200
     10 C12        -2.4370   -4.8190    3.3840 c2        1 HBY     -0.238000
     11 C11        -4.6220   -3.8340    4.0280 c3        1 HBY     -0.068900
     12 C13         0.2610    2.4430    0.1060 c3        1 HBY     -0.041300
     13 C14        -2.0080    2.8810   -1.4200 c3        1 HBY     -0.057000
     14 C15        -1.0800   -1.2000    6.8280 c3        1 HBY      0.109700
     15 N1         -0.5850    0.3020    1.0930 n         1 HBY     -0.395000
     16 N2          2.1930    0.0570    1.1970 n         1 HBY     -0.385100
     17 O1         -2.2900   -0.3030   -0.3840 o         1 HBY     -0.526000
     18 O2         -2.4820   -1.1310    1.6200 oh        1 HBY     -0.560100
     19 O3         -1.3580   -0.3290    5.7310 os        1 HBY     -0.323900
     20 S1          2.4200    0.3020   -1.3840 s         1 HBY     -0.421400
     21 S2         -1.2820    3.2840    0.1240 ss        1 HBY     -0.265200
     22 H1         -0.2870    0.6300   -0.9690 h1        1 HBY      0.133700
     23 H5         -1.5950    0.9740    3.5400 ha        1 HBY      0.174000
     24 H7          0.2770   -1.2530    4.7390 h4        1 HBY      0.146000
     25 H8          3.3770    0.0270    5.5040 ha        1 HBY      0.176500
     26 H10        -2.0770   -1.1790    2.5000 ho        1 HBY      0.445000
     27 H121       -3.3700   -3.2180    2.3460 ha        1 HBY      0.133000
     28 H122       -1.5570   -4.8750    2.7310 ha        1 HBY      0.108000
     29 H123       -2.4530   -5.5510    4.2020 ha        1 HBY      0.108000
     30 H111       -4.6090   -4.5690    4.8690 hc        1 HBY      0.041700
     31 H112       -5.5350   -4.0260    3.4080 hc        1 HBY      0.041700
     32 H113       -4.7070   -2.8050    4.4580 hc        1 HBY      0.041700
     33 H131        0.7640    2.7630    1.0530 h1        1 HBY      0.090200
     34 H132        0.8820    2.7900   -0.7590 h1        1 HBY      0.090200
     35 H141       -2.2740    1.7990   -1.4820 h1        1 HBY      0.074033
     36 H142       -1.3450    3.1380   -2.2750 h1        1 HBY      0.074033
     37 H143       -2.9410    3.4870   -1.4830 h1        1 HBY      0.074033
     38 H151       -0.0490   -1.0210    7.2150 h1        1 HBY      0.050033
     39 H152       -1.2050   -2.2660    6.5210 h1        1 HBY      0.050033
     40 H153       -1.8470   -0.9130    7.5910 h1        1 HBY      0.050033
     41 HN2         3.1560   -0.2010    1.2490 hn        1 HBY      0.350500
     42 C9         -1.7750   -0.3590    0.7430 c         1 HBY      0.761100
@<TRIPOS>BOND
     1    1    2 1   
     2    1   12 1   
     3    1   15 1   
     4    1   22 1   
     5    2   16 1   
     6    2   20 2   
     7    3    4 2   
     8    3    8 1   
     9    3   16 1   
    10    4    5 1   
    11    4   15 1   
    12    5    6 2   
    13    5   23 1   
    14    6   19 1   
    15    6   24 1   
    16    7    8 3   
    17    7   25 1   
    18    9   10 2   
    19    9   11 1   
    20    9   27 1   
    21   10   28 1   
    22   10   29 1   
    23   11   30 1   
    24   11   31 1   
    25   11   32 1   
    26   12   21 1   
    27   12   33 1   
    28   12   34 1   
    29   13   21 1   
    30   13   35 1   
    31   13   36 1   
    32   13   37 1   
    33   14   19 1   
    34   14   38 1   
    35   14   39 1   
    36   14   40 1   
    37   15   42 1   
    38   16   41 1   
    39   17   42 2   
    40   18   26 1   
    41   18   42 1   
@<TRIPOS>SUBSTRUCTURE
     1 HBY         1 TEMP              0 ****  ****    0 ROOT
