@<TRIPOS>MOLECULE
HBZ
   42    43     1     0     0
SMALL
bcc


@<TRIPOS>ATOM
      1 O5          2.4350    0.5670   -0.5430 os        1 HBZ     -0.447600
      2 C1          2.0800   -0.5840    0.2510 c3        1 HBZ      0.241500
      3 C2          3.0710   -1.7360   -0.0770 c3        1 HBZ      0.091100
      4 O2          2.8730   -2.8540    0.7660 oh        1 HBZ     -0.601800
      5 C3          4.5040   -1.2560    0.2090 c3        1 HBZ      0.108100
      6 O3          5.4510   -2.2090   -0.2420 oh        1 HBZ     -0.607800
      7 C4          4.7930    0.0420   -0.5630 c3        1 HBZ      0.117100
      8 O4          6.0490    0.5760   -0.1870 oh        1 HBZ     -0.594800
      9 C5          3.7220    1.0890   -0.2120 c3        1 HBZ      0.151100
     10 C6          3.9030    2.3530   -1.0560 c3        1 HBZ      0.135400
     11 O6          3.3240    3.4210   -0.3260 oh        1 HBZ     -0.594800
     12 N1          0.7180   -0.9300   -0.1050 n         1 HBZ     -0.528900
     13 C7         -0.3070   -0.5080    0.7940 c         1 HBZ      0.753100
     14 O7         -0.0610   -0.3480    2.0030 o         1 HBZ     -0.553100
     15 N2         -1.6150   -0.3750    0.2750 n         1 HBZ     -0.609500
     16 C8         -2.7440   -0.0930    1.0610 c         1 HBZ      0.688700
     17 O8         -2.6720    0.0960    2.2810 o         1 HBZ     -0.517100
     18 C9         -4.0330   -0.0050    0.3180 ca        1 HBZ     -0.190600
     19 C10        -4.9210    1.0200    0.6680 ca        1 HBZ     -0.053000
     20 C11        -6.1450    1.1390    0.0180 ca        1 HBZ     -0.193500
     21 C12        -6.4840    0.2130   -0.9810 ca        1 HBZ      0.151100
     22 C13        -5.6060   -0.8300   -1.3270 ca        1 HBZ     -0.193500
     23 C14        -4.3840   -0.9300   -0.6720 ca        1 HBZ     -0.053000
     24 O12        -7.6700    0.2650   -1.6690 oh        1 HBZ     -0.491100
     25 H1          2.1480   -0.3330    1.3530 h2        1 HBZ      0.109700
     26 H2          2.9780   -2.0460   -1.1550 h1        1 HBZ      0.058700
     27 HO2         1.9470   -3.1170    0.6930 ho        1 HBZ      0.426000
     28 H3          4.6350   -1.0890    1.3150 h1        1 HBZ      0.069700
     29 HO3         5.2390   -3.0410    0.2030 ho        1 HBZ      0.429000
     30 H4          4.7860   -0.1690   -1.6680 h1        1 HBZ      0.058700
     31 HO4         6.6910   -0.1410   -0.2850 ho        1 HBZ      0.426000
     32 H5          3.7660    1.3460    0.8830 h1        1 HBZ      0.085700
     33 H6          5.0010    2.5350   -1.2050 h1        1 HBZ      0.045700
     34 H6A         3.3920    2.2360   -2.0480 h1        1 HBZ      0.045700
     35 HO6         3.4210    4.2100   -0.8720 ho        1 HBZ      0.403000
     36 HN1         0.5330   -0.7990   -1.0790 hn        1 HBZ      0.292500
     37 HN2        -1.7610   -0.4910   -0.7020 hn        1 HBZ      0.317500
     38 H10        -4.6450    1.7260    1.4690 ha        1 HBZ      0.148000
     39 H11        -6.8420    1.9450    0.2890 ha        1 HBZ      0.150500
     40 H13        -5.8990   -1.5500   -2.1030 ha        1 HBZ      0.150500
     41 H14        -3.7080   -1.7600   -0.9290 ha        1 HBZ      0.148000
     42 HO12       -8.1880    1.0080   -1.3230 ho        1 HBZ      0.426000
@<TRIPOS>BOND
     1    1    2 1   
     2    1    9 1   
     3    2    3 1   
     4    2   12 1   
     5    2   25 1   
     6    3    4 1   
     7    3    5 1   
     8    3   26 1   
     9    4   27 1   
    10    5    6 1   
    11    5    7 1   
    12    5   28 1   
    13    6   29 1   
    14    7    8 1   
    15    7    9 1   
    16    7   30 1   
    17    8   31 1   
    18    9   10 1   
    19    9   32 1   
    20   10   11 1   
    21   10   33 1   
    22   10   34 1   
    23   11   35 1   
    24   12   13 1   
    25   12   36 1   
    26   13   14 2   
    27   13   15 1   
    28   15   16 1   
    29   15   37 1   
    30   16   17 2   
    31   16   18 1   
    32   18   19 ar  
    33   18   23 ar  
    34   19   20 ar  
    35   19   38 1   
    36   20   21 ar  
    37   20   39 1   
    38   21   22 ar  
    39   21   24 1   
    40   22   23 ar  
    41   22   40 1   
    42   23   41 1   
    43   24   42 1   
@<TRIPOS>SUBSTRUCTURE
     1 HBZ         1 TEMP              0 ****  ****    0 ROOT
