@<TRIPOS>MOLECULE
HBZ
   44    45     1     0     0
SMALL
bcc


@<TRIPOS>ATOM
      1 O5          1.1310    0.1940   -0.6550 os        1 HBZ     -0.495600
      2 C1          1.7590   -1.0640   -0.5390 c3        1 HBZ      0.346300
      3 C2          2.2680   -1.2680    0.9100 c3        1 HBZ      0.118100
      4 O2          2.9070   -2.5230    0.9100 oh        1 HBZ     -0.616800
      5 C3          1.0280   -1.2090    1.8250 c3        1 HBZ      0.082100
      6 O3          1.5430   -1.3090    3.1370 oh        1 HBZ     -0.583800
      7 C4          0.2980    0.1410    1.6430 c3        1 HBZ      0.091100
      8 O4         -0.9420    0.0880    2.3200 oh        1 HBZ     -0.576800
      9 C5         -0.0470    0.3640    0.1630 c3        1 HBZ      0.135100
     10 C6         -0.4570    1.8070   -0.1660 c3        1 HBZ      0.135400
     11 O6         -0.4110    1.9640   -1.5770 oh        1 HBZ     -0.660800
     12 N1          2.9120   -0.9900   -1.5320 n4        1 HBZ     -0.650800
     13 C7          2.4570   -0.5570   -2.8890 c         1 HBZ      0.526100
     14 O7          2.3960   -1.3770   -3.7920 o         1 HBZ     -0.324100
     15 N2          2.0950    0.8620   -3.1160 n4        1 HBZ     -0.581600
     16 C8          3.2940    1.8560   -2.9500 c         1 HBZ      0.632700
     17 O8          4.2410    1.3470   -2.3610 o         1 HBZ     -0.502100
     18 C9          3.0920    3.1490   -3.5230 ca        1 HBZ     -0.287600
     19 C10         4.2610    3.9100   -3.7950 ca        1 HBZ      0.001000
     20 C11         4.1610    5.1690   -4.3540 ca        1 HBZ     -0.196500
     21 C12         2.8880    5.7070   -4.6420 ca        1 HBZ      0.269100
     22 C13         1.7100    4.9640   -4.3460 ca        1 HBZ     -0.196500
     23 C14         1.8180    3.7090   -3.7960 ca        1 HBZ      0.001000
     24 O12         2.6950    6.9220   -5.1910 oh        1 HBZ     -0.428100
     25 H1          1.0800   -1.9100   -0.8670 hx        1 HBZ      0.135700
     26 H2          2.9960   -0.4610    1.2100 h1        1 HBZ      0.096700
     27 HO2         2.9920   -2.8140    1.8350 ho        1 HBZ      0.484000
     28 H3          0.3280   -2.0600    1.5990 h1        1 HBZ      0.088700
     29 HO3         0.8290   -1.6260    3.7100 ho        1 HBZ      0.450000
     30 H4          0.9460    0.9750    2.0310 h1        1 HBZ      0.085700
     31 HO4        -0.7830    0.3420    3.2410 ho        1 HBZ      0.446000
     32 H5         -0.8300   -0.3700   -0.1740 h1        1 HBZ      0.095700
     33 H6          0.2870    2.5370    0.2520 h1        1 HBZ      0.098700
     34 H6A        -1.4750    2.0010    0.2640 h1        1 HBZ      0.098700
     35 HO6        -1.3200    1.9800   -1.9040 ho        1 HBZ      0.444000
     36 HN1         3.6410   -0.3410   -1.1770 hn        1 HBZ      0.516800
     37 HN2         1.3300    1.1580   -2.4630 hn        1 HBZ      0.514800
     38 H10         5.2550    3.4860   -3.5610 ha        1 HBZ      0.159500
     39 H11         5.0720    5.7530   -4.5720 ha        1 HBZ      0.193500
     40 H13         0.7280    5.4220   -4.5590 ha        1 HBZ      0.193500
     41 H14         0.8900    3.1720   -3.5320 ha        1 HBZ      0.159500
     42 HO12        3.5510    7.3620   -5.3550 ho        1 HBZ      0.472000
     43 H12         3.3210   -1.9440   -1.6010 hn        1 HBZ      0.516800
     44 H22         1.7410    0.9410   -4.0840 hn        1 HBZ      0.514800
@<TRIPOS>BOND
     1    1    2 1   
     2    1    9 1   
     3    2    3 1   
     4    2   12 1   
     5    2   25 1   
     6    3    4 1   
     7    3    5 1   
     8    3   26 1   
     9    4   27 1   
    10    5    6 1   
    11    5    7 1   
    12    5   28 1   
    13    6   29 1   
    14    7    8 1   
    15    7    9 1   
    16    7   30 1   
    17    8   31 1   
    18    9   10 1   
    19    9   32 1   
    20   10   11 1   
    21   10   33 1   
    22   10   34 1   
    23   11   35 1   
    24   12   13 1   
    25   12   36 1   
    26   12   43 1   
    27   13   14 2   
    28   13   15 1   
    29   15   16 1   
    30   15   37 1   
    31   15   44 1   
    32   16   17 2   
    33   16   18 1   
    34   18   19 ar  
    35   18   23 ar  
    36   19   20 ar  
    37   19   38 1   
    38   20   21 ar  
    39   20   39 1   
    40   21   22 ar  
    41   21   24 1   
    42   22   23 ar  
    43   22   40 1   
    44   23   41 1   
    45   24   42 1   
@<TRIPOS>SUBSTRUCTURE
     1 HBZ         1 TEMP              0 ****  ****    0 ROOT
