@<TRIPOS>MOLECULE
HBZ
   44    45     1     0     0
SMALL
bcc


@<TRIPOS>ATOM
      1 O5          1.0870    0.2070   -0.6790 os        1 HBZ     -0.495600
      2 C1          1.6240   -1.0970   -0.6610 c3        1 HBZ      0.346300
      3 C2          2.1870   -1.4170    0.7470 c3        1 HBZ      0.118100
      4 O2          2.7300   -2.7120    0.6490 oh        1 HBZ     -0.616800
      5 C3          1.0010   -1.3200    1.7280 c3        1 HBZ      0.082100
      6 O3          1.5700   -1.5290    3.0040 oh        1 HBZ     -0.583800
      7 C4          0.3640    0.0870    1.6540 c3        1 HBZ      0.091100
      8 O4         -0.8410    0.0850    2.3920 oh        1 HBZ     -0.576800
      9 C5         -0.0350    0.4150    0.2080 c3        1 HBZ      0.135100
     10 C6         -0.3520    1.9000   -0.0240 c3        1 HBZ      0.135400
     11 O6         -0.3630    2.1310   -1.4250 oh        1 HBZ     -0.660800
     12 N1          2.7300   -1.0510   -1.7080 ny        1 HBZ     -0.650800
     13 C7          2.2430   -0.5120   -3.0140 c         1 HBZ      0.526100
     14 O7          2.0770   -1.2750   -3.9540 o         1 HBZ     -0.324100
     15 N2          1.9770    0.9400   -3.1490 ny        1 HBZ     -0.581600
     16 C8          3.2530    1.8350   -2.9950 c         1 HBZ      0.632700
     17 O8          4.1870    1.2270   -2.4830 o         1 HBZ     -0.502100
     18 C9          3.1200    3.1680   -3.4890 ca        1 HBZ     -0.287600
     19 C10         4.3280    3.8580   -3.7820 ca        1 HBZ      0.001000
     20 C11         4.2950    5.1490   -4.2690 ca        1 HBZ     -0.196500
     21 C12         3.0530    5.7930   -4.4630 ca        1 HBZ      0.269100
     22 C13         1.8380    5.1200   -4.1440 ca        1 HBZ     -0.196500
     23 C14         1.8790    3.8320   -3.6660 ca        1 HBZ      0.001000
     24 O12         2.9240    7.0470   -4.9380 oh        1 HBZ     -0.428100
     25 H1          0.8690   -1.8730   -0.9960 hx        1 HBZ      0.135700
     26 H2          2.9860   -0.6820    1.0500 h1        1 HBZ      0.096700
     27 HO2         2.8370   -3.0600    1.5510 ho        1 HBZ      0.484000
     28 H3          0.2290   -2.1050    1.4960 h1        1 HBZ      0.088700
     29 HO3         0.8630   -1.8250    3.5960 ho        1 HBZ      0.450000
     30 H4          1.0910    0.8490    2.0500 h1        1 HBZ      0.085700
     31 HO4        -0.6190    0.2760    3.3150 ho        1 HBZ      0.446000
     32 H5         -0.8850   -0.2410   -0.1240 h1        1 HBZ      0.095700
     33 H6          0.4640    2.5500    0.3910 h1        1 HBZ      0.098700
     34 H6A        -1.3300    2.1420    0.4680 h1        1 HBZ      0.098700
     35 HO6        -1.2830    2.2300   -1.7030 ho        1 HBZ      0.444000
     36 HN1         3.5220   -0.4770   -1.3580 hn        1 HBZ      0.516800
     37 HN2         1.2690    1.2530   -2.4420 hn        1 HBZ      0.514800
     38 H10         5.2970    3.3510   -3.6220 ha        1 HBZ      0.159500
     39 H11         5.2350    5.6780   -4.5040 ha        1 HBZ      0.193500
     40 H13         0.8840    5.6580   -4.2830 ha        1 HBZ      0.193500
     41 H14         0.9280    3.3500   -3.3820 ha        1 HBZ      0.159500
     42 HO12        3.8020    7.4320   -5.1230 ho        1 HBZ      0.472000
     43 H12         3.0630   -2.0270   -1.8470 hn        1 HBZ      0.516800
     44 H22         1.5830    1.0980   -4.0910 hn        1 HBZ      0.514800
@<TRIPOS>BOND
     1    1    2 1   
     2    1    9 1   
     3    2    3 1   
     4    2   12 1   
     5    2   25 1   
     6    3    4 1   
     7    3    5 1   
     8    3   26 1   
     9    4   27 1   
    10    5    6 1   
    11    5    7 1   
    12    5   28 1   
    13    6   29 1   
    14    7    8 1   
    15    7    9 1   
    16    7   30 1   
    17    8   31 1   
    18    9   10 1   
    19    9   32 1   
    20   10   11 1   
    21   10   33 1   
    22   10   34 1   
    23   11   35 1   
    24   12   13 1   
    25   12   36 1   
    26   12   43 1   
    27   13   14 2   
    28   13   15 1   
    29   15   16 1   
    30   15   37 1   
    31   15   44 1   
    32   16   17 2   
    33   16   18 1   
    34   18   19 ar  
    35   18   23 ar  
    36   19   20 ar  
    37   19   38 1   
    38   20   21 ar  
    39   20   39 1   
    40   21   22 ar  
    41   21   24 1   
    42   22   23 ar  
    43   22   40 1   
    44   23   41 1   
    45   24   42 1   
@<TRIPOS>SUBSTRUCTURE
     1 HBZ         1 TEMP              0 ****  ****    0 ROOT
