@<TRIPOS>MOLECULE
HBZ
   44    44     1     0     0
SMALL
bcc


@<TRIPOS>ATOM
      1 O5       -187.8990 -129.7970  512.1100 os        1 HBZ     -0.296000
      2 C1       -186.6570 -130.4680  512.2760 c3        1 HBZ      0.060000
      3 C2       -185.8590 -130.3800  510.9470 c3        1 HBZ      0.002000
      4 O2       -184.6690 -131.1070  511.1580 oh        1 HBZ     -0.344000
      5 C3       -185.6030 -128.8900  510.6650 c3        1 HBZ      0.003000
      6 O3       -184.9540 -128.8510  509.4110 oh        1 HBZ     -0.319000
      7 C4       -186.9440 -128.1260  510.6170 c3        1 HBZ     -0.030000
      8 O4       -186.5930 -126.7590  510.5300 oh        1 HBZ     -0.309000
      9 C5       -187.7390 -128.3800  511.9060 c3        1 HBZ     -0.027000
     10 C6       -189.1810 -127.8580  511.8460 c3        1 HBZ     -0.018000
     11 O6       -189.8220 -128.1200  513.0750 oh        1 HBZ     -0.322000
     12 N1       -187.0050 -131.8840  512.6270 n4        1 HBZ     -0.101000
     13 C7       -187.5990 -132.0400  514.0360 c2        1 HBZ      0.342000
     14 O7       -187.0000 -132.8760  514.7230 o         1 HBZ     -0.255000
     15 N2       -188.6860 -131.3050  514.3690 n         1 HBZ     -0.367000
     16 C8        406.6940  283.2910-1098.9590 c1        1 HBZ      0.455000
     17 O8        406.6640  284.0170-1098.0510 o         1 HBZ      0.063000
     18 C9        406.7300  282.4350-1100.0330 ca        1 HBZ     -0.248000
     19 C10       406.2160  281.1120-1099.9110 ca        1 HBZ      0.037000
     20 C11       406.2550  280.2580-1100.9900 ca        1 HBZ     -0.207500
     21 C12       406.8050  280.7000-1102.2200 ca        1 HBZ      0.240000
     22 C13       407.3200  282.0200-1102.3500 ca        1 HBZ     -0.207500
     23 C14       407.2830  282.8730-1101.2740 ca        1 HBZ      0.037000
     24 O12       406.8780  279.9250-1103.3180 oh        1 HBZ     -0.179000
     25 H1       -186.0610 -130.0330  513.1340 hx        1 HBZ      0.160000
     26 H2       -186.4400 -130.8320  510.0940 h1        1 HBZ      0.126000
     27 HO2      -184.0420 -130.8520  510.4610 ho        1 HBZ      0.269000
     28 H3       -184.9400 -128.4440  511.4590 h1        1 HBZ      0.119000
     29 HO3      -184.7700 -127.9190  509.2170 ho        1 HBZ      0.248000
     30 H4       -187.5370 -128.4560  509.7200 h1        1 HBZ      0.120000
     31 HO4      -187.3270 -126.2930  510.1080 ho        1 HBZ      0.228000
     32 H5       -187.1980 -127.9390  512.7880 h1        1 HBZ      0.118000
     33 H6       -189.1590 -126.7660  511.5950 h1        1 HBZ      0.117500
     34 H6A      -189.7700 -128.4260  511.0750 h1        1 HBZ      0.117500
     35 HO6      -189.6810 -127.3580  513.6520 ho        1 HBZ      0.218000
     36 HN1      -187.6680 -132.2550  511.9380 hn        1 HBZ      0.278000
     37 HN2      -189.0700 -130.5910  513.7830 hn        1 HBZ      0.291000
     38 H10       405.7880  280.7720-1098.9510 ha        1 HBZ      0.177000
     39 H11       405.8580  279.2320-1100.9020 ha        1 HBZ      0.195000
     40 H13       407.7430  282.3340-1103.3210 ha        1 HBZ      0.195000
     41 H14       407.6800  283.8990-1101.3680 ha        1 HBZ      0.177000
     42 HO12      406.5030  279.0420-1103.1370 ho        1 HBZ      0.268000
     43 H12      -186.1320 -132.4400  512.5930 hn        1 HBZ      0.278000
     44 H22      -189.0670 -131.4470  515.2810 hn        1 HBZ      0.291000
@<TRIPOS>BOND
     1    1    2 1   
     2    1    9 1   
     3    2    3 1   
     4    2   12 1   
     5    2   25 1   
     6    3    4 1   
     7    3    5 1   
     8    3   26 1   
     9    4   27 1   
    10    5    6 1   
    11    5    7 1   
    12    5   28 1   
    13    6   29 1   
    14    7    8 1   
    15    7    9 1   
    16    7   30 1   
    17    8   31 1   
    18    9   10 1   
    19    9   32 1   
    20   10   11 1   
    21   10   33 1   
    22   10   34 1   
    23   11   35 1   
    24   12   13 1   
    25   12   36 1   
    26   12   43 1   
    27   13   14 1   
    28   13   15 1   
    29   15   37 1   
    30   15   44 1   
    31   16   17 1   
    32   16   18 1   
    33   18   19 1   
    34   18   23 1   
    35   19   20 1   
    36   19   38 1   
    37   20   21 1   
    38   20   39 1   
    39   21   22 1   
    40   21   24 1   
    41   22   23 1   
    42   22   40 1   
    43   23   41 1   
    44   24   42 1   
@<TRIPOS>SUBSTRUCTURE
     1 HBZ         1 TEMP              0 ****  ****    0 ROOT
