@<TRIPOS>MOLECULE
HC2
   75    77     1     0     0
SMALL
bcc


@<TRIPOS>ATOM
      1 C1          4.4930    2.1440    0.3540 c3        1 HC2     -0.145000
      2 C2          6.0170    2.1450    0.3540 c3        1 HC2     -0.192000
      3 C3          6.5890    2.1870    1.7190 c3        1 HC2      0.034000
      4 C4          6.0210    1.0670    2.6560 c3        1 HC2     -0.121000
      5 C5          4.4570    1.1090    2.5990 c2        1 HC2     -0.102000
      6 C6          3.4960    0.4220    3.8320 c1        1 HC2     -0.161000
      7 C7          1.9360    0.4720    3.5680 c2        1 HC2     -0.126000
      8 C8          1.5660    0.3780    1.8790 c3        1 HC2     -0.086000
      9 C9          2.1840    1.1850    1.1530 c3        1 HC2     -0.088000
     10 C10         3.9000    1.0710    1.2480 c3        1 HC2     -0.004000
     11 C11         1.7510    1.0620   -0.2790 c3        1 HC2     -0.153000
     12 C12         0.0710    1.1420   -0.4400 c3        1 HC2     -0.145000
     13 C13        -0.4460    0.4410    0.2130 c3        1 HC2     -0.040000
     14 C14        -0.0330    0.5140    1.6690 c3        1 HC2     -0.104000
     15 C15        -0.6970   -0.5070    2.1840 c3        1 HC2     -0.151000
     16 C16        -1.7040   -0.4240    1.6360 c3        1 HC2     -0.156000
     17 C17        -1.2390    0.5510    0.2470 c3        1 HC2     -0.083000
     18 C18        -0.1760   -0.9980   -0.3020 c3        1 HC2     -0.195000
     19 C19         4.2920   -0.2880    0.6400 c3        1 HC2     -0.202000
     20 C20        -2.0250   -0.0740   -1.2720 c3        1 HC2      0.093000
     21 C21        -1.9560    0.9080   -2.2700 c3        1 HC2     -0.246000
     22 C22        -3.3890   -0.3950   -1.0120 c3        1 HC2     -0.189000
     23 C23        -3.9680   -1.2060   -2.2070 c3        1 HC2     -0.162000
     24 C24        -5.4880   -1.3120   -2.0640 c3        1 HC2     -0.153000
     25 C25        -6.0140   -2.4930   -2.9390 c3        1 HC2     -0.107000
     26 C26        -6.6670   -3.5430   -2.0360 c3        1 HC2     -0.208000
     27 C27        -7.0470   -1.9690   -3.9370 c3        1 HC2     -0.208000
     28 O1          8.0080    2.0370    1.6290 oh        1 HC2     -0.330000
     29 O2         -1.3380   -1.2480   -1.7140 oh        1 HC2     -0.321000
     30 H11         4.1760    1.9990   -0.5670 hc        1 HC2      0.082500
     31 H12         4.1750    3.0260    0.6650 hc        1 HC2      0.082500
     32 H21         6.3340    1.3340   -0.0980 hc        1 HC2      0.086000
     33 H22         6.3360    2.9370   -0.1510 hc        1 HC2      0.086000
     34 H3          6.3880    3.0650    2.1190 h1        1 HC2      0.075000
     35 H41         6.3400    1.1080    3.5990 hc        1 HC2      0.099000
     36 H42         6.3730    0.1990    2.3760 hc        1 HC2      0.099000
     37 H6          3.8300    0.3760    4.7350 ha        1 HC2      0.121000
     38 H71         1.5560   -0.2100    4.1650 ha        1 HC2      0.088500
     39 H72         1.4960    1.2830    3.9090 ha        1 HC2      0.088500
     40 H8          1.8190   -0.5260    1.5800 hc        1 HC2      0.100000
     41 H9          1.9380    2.0860    1.4530 hc        1 HC2      0.086000
     42 H111        2.1570    1.7900   -0.7990 hc        1 HC2      0.080500
     43 H112        2.0670    0.1990   -0.6360 hc        1 HC2      0.080500
     44 H121       -0.1690    0.9430   -1.3730 hc        1 HC2      0.078000
     45 H122       -0.2260    2.0600   -0.2220 hc        1 HC2      0.078000
     46 H14        -0.3510    1.3500    2.0620 hc        1 HC2      0.082000
     47 H151       -0.2490   -1.3610    1.9750 hc        1 HC2      0.081500
     48 H152       -0.8160   -0.3930    3.1730 hc        1 HC2      0.081500
     49 H161       -2.3730    0.0430    2.1900 hc        1 HC2      0.089000
     50 H162       -2.0270   -1.3100    1.3540 hc        1 HC2      0.089000
     51 H17        -1.4610    1.5060    0.3960 hc        1 HC2      0.084000
     52 H181        0.1130   -0.9610   -1.2500 hc        1 HC2      0.078333
     53 H182        0.5220   -1.4090    0.2350 hc        1 HC2      0.078333
     54 H183       -1.0010   -1.5320   -0.2320 hc        1 HC2      0.078333
     55 H191        4.1680   -0.2570   -0.3320 hc        1 HC2      0.077000
     56 H192        3.7140   -1.0070    1.0280 hc        1 HC2      0.077000
     57 H193        5.2240   -0.4780    0.8430 hc        1 HC2      0.077000
     58 H211       -1.0850    0.8680   -2.7060 hc        1 HC2      0.083333
     59 H212       -2.6670    0.7500   -2.9380 hc        1 HC2      0.083333
     60 H213       -2.0780    1.7870   -1.8690 hc        1 HC2      0.083333
     61 H221       -3.4480   -0.9390   -0.1820 hc        1 HC2      0.089500
     62 H222       -3.9110    0.4450   -0.8980 hc        1 HC2      0.089500
     63 H231       -3.7480   -0.7480   -3.0520 hc        1 HC2      0.080500
     64 H232       -3.5780   -2.1020   -2.2110 hc        1 HC2      0.080500
     65 H241       -5.7180   -1.4760   -1.1200 hc        1 HC2      0.081000
     66 H242       -5.9100   -0.4600   -2.3660 hc        1 HC2      0.081000
     67 H25        -5.2650   -2.8990   -3.4260 hc        1 HC2      0.084000
     68 H261       -6.9710   -4.3060   -2.5830 hc        1 HC2      0.072833
     69 H262       -7.4350   -3.1450   -1.5760 hc        1 HC2      0.072833
     70 H263       -6.0160   -3.8540   -1.3740 hc        1 HC2      0.072833
     71 H271       -7.4520   -2.7250   -4.4150 hc        1 HC2      0.072833
     72 H272       -7.7410   -1.4790   -3.4590 hc        1 HC2      0.072833
     73 H273       -6.6070   -1.3700   -4.5820 hc        1 HC2      0.072833
     74 HO1         8.4210    2.7530    2.0470 ho        1 HC2      0.197000
     75 HO2        -1.4380   -1.3370   -2.5950 ho        1 HC2      0.197000
@<TRIPOS>BOND
     1    1    2 1   
     2    1   10 1   
     3    1   30 1   
     4    1   31 1   
     5    2    3 1   
     6    2   32 1   
     7    2   33 1   
     8    3    4 1   
     9    3   28 1   
    10    3   34 1   
    11    4    5 1   
    12    4   35 1   
    13    4   36 1   
    14    5    6 1   
    15    5   10 1   
    16    6   37 1   
    17    7    8 1   
    18    7   38 1   
    19    7   39 1   
    20    8    9 1   
    21    8   14 1   
    22    8   40 1   
    23    9   10 1   
    24    9   11 1   
    25    9   41 1   
    26   10   19 1   
    27   11   12 1   
    28   11   42 1   
    29   11   43 1   
    30   12   13 1   
    31   12   44 1   
    32   12   45 1   
    33   13   14 1   
    34   13   17 1   
    35   13   18 1   
    36   14   15 1   
    37   14   46 1   
    38   15   16 1   
    39   15   47 1   
    40   15   48 1   
    41   16   17 1   
    42   16   49 1   
    43   16   50 1   
    44   17   20 1   
    45   17   51 1   
    46   18   52 1   
    47   18   53 1   
    48   18   54 1   
    49   19   55 1   
    50   19   56 1   
    51   19   57 1   
    52   20   21 1   
    53   20   22 1   
    54   20   29 1   
    55   21   58 1   
    56   21   59 1   
    57   21   60 1   
    58   22   23 1   
    59   22   61 1   
    60   22   62 1   
    61   23   24 1   
    62   23   63 1   
    63   23   64 1   
    64   24   25 1   
    65   24   65 1   
    66   24   66 1   
    67   25   26 1   
    68   25   27 1   
    69   25   67 1   
    70   26   68 1   
    71   26   69 1   
    72   26   70 1   
    73   27   71 1   
    74   27   72 1   
    75   27   73 1   
    76   28   74 1   
    77   29   75 1   
@<TRIPOS>SUBSTRUCTURE
     1 HC2         1 TEMP              0 ****  ****    0 ROOT
