@<TRIPOS>MOLECULE
HC2
   75    78     1     0     0
SMALL
bcc


@<TRIPOS>ATOM
      1 C1          0.1190   -0.2370   -0.1860 c3        1 HC2     -0.066400
      2 C2          1.5520    0.2130   -0.0230 c3        1 HC2     -0.113400
      3 C3          1.8010    0.6950    1.4000 c3        1 HC2      0.145100
      4 C4          1.4650   -0.4020    2.4050 c3        1 HC2     -0.038200
      5 C5          0.0900   -0.9410    2.1970 c2        1 HC2     -0.110400
      6 C6         -0.7380   -1.0770    3.2440 c2        1 HC2     -0.165200
      7 C7         -2.1070   -1.6270    3.1630 c3        1 HC2     -0.043200
      8 C8         -2.3570   -2.3710    1.8590 c3        1 HC2     -0.046700
      9 C9         -1.8080   -1.5580    0.6780 c3        1 HC2     -0.048700
     10 C10        -0.2800   -1.3530    0.7940 c3        1 HC2      0.000200
     11 C11        -2.2030   -2.1590   -0.6660 c3        1 HC2     -0.074400
     12 C12        -3.6850   -2.4720   -0.8000 c3        1 HC2     -0.066400
     13 C13        -4.1570   -3.3540    0.3460 c3        1 HC2     -0.040000
     14 C14        -3.8420   -2.5750    1.6500 c3        1 HC2     -0.064700
     15 C15        -4.6410   -3.3040    2.7200 c3        1 HC2     -0.072400
     16 C16        -5.8930   -3.7990    1.9920 c3        1 HC2     -0.077400
     17 C17        -5.6890   -3.5270    0.4870 c3        1 HC2     -0.043700
     18 C18        -3.4750   -4.7100    0.2990 c3        1 HC2     -0.077100
     19 C19         0.4770   -2.6310    0.4400 c3        1 HC2     -0.084100
     20 C20        -6.4170   -4.5640   -0.3870 c3        1 HC2      0.163800
     21 C21        -7.9190   -4.4650   -0.1090 c3        1 HC2     -0.125100
     22 C22        -6.1340   -4.3170   -1.8750 c3        1 HC2     -0.112400
     23 C23        -7.0790   -5.0390   -2.8110 c3        1 HC2     -0.079400
     24 C24        -6.6060   -4.9270   -4.2450 c3        1 HC2     -0.076400
     25 C25        -7.5440   -5.6250   -5.2200 c3        1 HC2     -0.067700
     26 C26        -8.8000   -4.8130   -5.4580 c3        1 HC2     -0.090600
     27 C27        -6.8330   -5.8820   -6.5330 c3        1 HC2     -0.090600
     28 O1          3.1730    1.0160    1.6030 oh        1 HC2     -0.602800
     29 O2         -5.9530   -5.8590   -0.0060 oh        1 HC2     -0.594800
     30 H11        -0.5610    0.6420   -0.0320 hc        1 HC2      0.043200
     31 H12        -0.0300   -0.6020   -1.2360 hc        1 HC2      0.043200
     32 H21         2.2550   -0.6290   -0.2560 hc        1 HC2      0.046700
     33 H22         1.7690    1.0430   -0.7450 hc        1 HC2      0.046700
     34 H3          1.1770    1.6100    1.6060 h1        1 HC2      0.035700
     35 H41         1.5800    0.0140    3.4410 hc        1 HC2      0.059700
     36 H42         2.2150   -1.2330    2.3010 hc        1 HC2      0.059700
     37 H6         -0.4230   -0.7620    4.2530 ha        1 HC2      0.121000
     38 H71        -2.8410   -0.7800    3.2650 hc        1 HC2      0.049200
     39 H72        -2.2920   -2.3250    4.0240 hc        1 HC2      0.049200
     40 H8         -1.8350   -3.3640    1.9110 hc        1 HC2      0.060700
     41 H9         -2.2830   -0.5350    0.7420 hc        1 HC2      0.046700
     42 H111       -1.6250   -3.1040   -0.8440 hc        1 HC2      0.041200
     43 H112       -1.9220   -1.4380   -1.4790 hc        1 HC2      0.041200
     44 H121       -3.8550   -2.9820   -1.7830 hc        1 HC2      0.038200
     45 H122       -4.2760   -1.5190   -0.8080 hc        1 HC2      0.038200
     46 H14        -4.3020   -1.5470    1.5410 hc        1 HC2      0.042700
     47 H151       -4.9000   -2.6230    3.5670 hc        1 HC2      0.042200
     48 H152       -4.0580   -4.1620    3.1380 hc        1 HC2      0.042200
     49 H161       -6.0380   -4.8940    2.1670 hc        1 HC2      0.049200
     50 H162       -6.8020   -3.2630    2.3590 hc        1 HC2      0.049200
     51 H17        -6.1600   -2.5360    0.2300 hc        1 HC2      0.044700
     52 H181       -3.7060   -5.2220   -0.6670 hc        1 HC2      0.039367
     53 H182       -2.3680   -4.6170    0.3920 hc        1 HC2      0.039367
     54 H183       -3.8530   -5.3570    1.1280 hc        1 HC2      0.039367
     55 H191        0.4520   -2.8080   -0.6620 hc        1 HC2      0.037700
     56 H192        1.5460   -2.5520    0.7520 hc        1 HC2      0.037700
     57 H193        0.0230   -3.5110    0.9550 hc        1 HC2      0.037700
     58 H211       -8.1160   -4.5460    0.9870 hc        1 HC2      0.042033
     59 H212       -8.4630   -5.2960   -0.6190 hc        1 HC2      0.042033
     60 H213       -8.3140   -3.4910   -0.4810 hc        1 HC2      0.042033
     61 H221       -6.1890   -3.2140   -2.0710 hc        1 HC2      0.054700
     62 H222       -5.0840   -4.6520   -2.0900 hc        1 HC2      0.054700
     63 H231       -7.1480   -6.1220   -2.5250 hc        1 HC2      0.038200
     64 H232       -8.1100   -4.6050   -2.7220 hc        1 HC2      0.038200
     65 H241       -6.5120   -3.8450   -4.5270 hc        1 HC2      0.041700
     66 H242       -5.5830   -5.3810   -4.3310 hc        1 HC2      0.041700
     67 H25        -7.8410   -6.6190   -4.7780 hc        1 HC2      0.045700
     68 H261       -9.4780   -5.3490   -6.1650 hc        1 HC2      0.033533
     69 H262       -9.3480   -4.6460   -4.5000 hc        1 HC2      0.033533
     70 H263       -8.5470   -3.8180   -5.8980 hc        1 HC2      0.033533
     71 H271       -6.4840   -4.9210   -6.9830 hc        1 HC2      0.033533
     72 H272       -7.5230   -6.3810   -7.2550 hc        1 HC2      0.033533
     73 H273       -5.9470   -6.5420   -6.3760 hc        1 HC2      0.033533
     74 HO1         3.4110    1.6570    0.9230 ho        1 HC2      0.398000
     75 HO2        -6.4390   -6.4960   -0.5440 ho        1 HC2      0.396000
@<TRIPOS>BOND
     1    1    2 1   
     2    1   10 1   
     3    1   30 1   
     4    1   31 1   
     5    2    3 1   
     6    2   32 1   
     7    2   33 1   
     8    3    4 1   
     9    3   28 1   
    10    3   34 1   
    11    4    5 1   
    12    4   35 1   
    13    4   36 1   
    14    5    6 2   
    15    5   10 1   
    16    6    7 1   
    17    6   37 1   
    18    7    8 1   
    19    7   38 1   
    20    7   39 1   
    21    8    9 1   
    22    8   14 1   
    23    8   40 1   
    24    9   10 1   
    25    9   11 1   
    26    9   41 1   
    27   10   19 1   
    28   11   12 1   
    29   11   42 1   
    30   11   43 1   
    31   12   13 1   
    32   12   44 1   
    33   12   45 1   
    34   13   14 1   
    35   13   17 1   
    36   13   18 1   
    37   14   15 1   
    38   14   46 1   
    39   15   16 1   
    40   15   47 1   
    41   15   48 1   
    42   16   17 1   
    43   16   49 1   
    44   16   50 1   
    45   17   20 1   
    46   17   51 1   
    47   18   52 1   
    48   18   53 1   
    49   18   54 1   
    50   19   55 1   
    51   19   56 1   
    52   19   57 1   
    53   20   21 1   
    54   20   22 1   
    55   20   29 1   
    56   21   58 1   
    57   21   59 1   
    58   21   60 1   
    59   22   23 1   
    60   22   61 1   
    61   22   62 1   
    62   23   24 1   
    63   23   63 1   
    64   23   64 1   
    65   24   25 1   
    66   24   65 1   
    67   24   66 1   
    68   25   26 1   
    69   25   27 1   
    70   25   67 1   
    71   26   68 1   
    72   26   69 1   
    73   26   70 1   
    74   27   71 1   
    75   27   72 1   
    76   27   73 1   
    77   28   74 1   
    78   29   75 1   
@<TRIPOS>SUBSTRUCTURE
     1 HC2         1 TEMP              0 ****  ****    0 ROOT
