@<TRIPOS>MOLECULE
HC2
   75    78     1     0     0
SMALL
bcc


@<TRIPOS>ATOM
      1 C1          0.1100   -0.2170   -0.2310 c3        1 HC2     -0.070400
      2 C2          1.5430    0.2400   -0.0820 c3        1 HC2     -0.075400
      3 C3          1.7920    0.7320    1.3380 c3        1 HC2      0.144100
      4 C4          1.4670   -0.3640    2.3490 c3        1 HC2     -0.075200
      5 C5          0.0950   -0.9150    2.1550 c2        1 HC2     -0.106400
      6 C6         -0.7260   -1.0560    3.2060 c2        1 HC2     -0.167200
      7 C7         -2.0930   -1.6120    3.1340 c3        1 HC2     -0.042200
      8 C8         -2.3460   -2.3580    1.8320 c3        1 HC2     -0.046700
      9 C9         -1.8070   -1.5440    0.6470 c3        1 HC2     -0.048700
     10 C10        -0.2790   -1.3320    0.7530 c3        1 HC2      0.000200
     11 C11        -2.2070   -2.1490   -0.6940 c3        1 HC2     -0.074400
     12 C12        -3.6880   -2.4680   -0.8200 c3        1 HC2     -0.066400
     13 C13        -4.1500   -3.3510    0.3300 c3        1 HC2     -0.040000
     14 C14        -3.8320   -2.5680    1.6310 c3        1 HC2     -0.065700
     15 C15        -4.6220   -3.2990    2.7070 c3        1 HC2     -0.072400
     16 C16        -5.8750   -3.8000    1.9860 c3        1 HC2     -0.077400
     17 C17        -5.6800   -3.5300    0.4800 c3        1 HC2     -0.043700
     18 C18        -3.4630   -4.7040    0.2810 c3        1 HC2     -0.077100
     19 C19         0.4810   -2.6080    0.4000 c3        1 HC2     -0.084100
     20 C20        -6.4090   -4.5710   -0.3880 c3        1 HC2      0.163800
     21 C21        -7.9100   -4.4780   -0.1030 c3        1 HC2     -0.125100
     22 C22        -6.1350   -4.3250   -1.8780 c3        1 HC2     -0.112400
     23 C23        -7.0820   -5.0530   -2.8080 c3        1 HC2     -0.079400
     24 C24        -6.6170   -4.9410   -4.2450 c3        1 HC2     -0.076400
     25 C25        -7.5580   -5.6440   -5.2140 c3        1 HC2     -0.067700
     26 C26        -8.8170   -4.8350   -5.4470 c3        1 HC2     -0.090600
     27 C27        -6.8530   -5.9010   -6.5300 c3        1 HC2     -0.090600
     28 O1          3.1660    1.0960    1.4110 oh        1 HC2     -0.601800
     29 O2         -5.9380   -5.8640   -0.0080 oh        1 HC2     -0.594800
     30 H11        -0.5730    0.6590   -0.0770 hc        1 HC2      0.044200
     31 H12        -0.0420   -0.5860   -1.2790 hc        1 HC2      0.044200
     32 H21         2.2510   -0.5980   -0.3120 hc        1 HC2      0.055200
     33 H22         1.7570    1.0700   -0.8030 hc        1 HC2      0.055200
     34 H3          1.1590    1.6410    1.5470 h1        1 HC2      0.035700
     35 H41         1.5810    0.0500    3.3860 hc        1 HC2      0.051200
     36 H42         2.2200   -1.1920    2.2410 hc        1 HC2      0.051200
     37 H6         -0.4070   -0.7370    4.2130 ha        1 HC2      0.118000
     38 H71        -2.8300   -0.7680    3.2400 hc        1 HC2      0.048700
     39 H72        -2.2680   -2.3100    3.9960 hc        1 HC2      0.048700
     40 H8         -1.8200   -3.3500    1.8820 hc        1 HC2      0.060700
     41 H9         -2.2860   -0.5240    0.7120 hc        1 HC2      0.046700
     42 H111       -1.6250   -3.0920   -0.8740 hc        1 HC2      0.041700
     43 H112       -1.9330   -1.4290   -1.5100 hc        1 HC2      0.041700
     44 H121       -3.8610   -2.9810   -1.8010 hc        1 HC2      0.038700
     45 H122       -4.2830   -1.5180   -0.8260 hc        1 HC2      0.038700
     46 H14        -4.2960   -1.5420    1.5230 hc        1 HC2      0.042700
     47 H151       -4.8780   -2.6180    3.5540 hc        1 HC2      0.042200
     48 H152       -4.0330   -4.1540    3.1220 hc        1 HC2      0.042200
     49 H161       -6.0150   -4.8960    2.1640 hc        1 HC2      0.049200
     50 H162       -6.7850   -3.2670    2.3570 hc        1 HC2      0.049200
     51 H17        -6.1570   -2.5410    0.2240 hc        1 HC2      0.044700
     52 H181       -3.6970   -5.2190   -0.6820 hc        1 HC2      0.039367
     53 H182       -3.8330   -5.3510    1.1140 hc        1 HC2      0.039367
     54 H183       -2.3550   -4.6060    0.3680 hc        1 HC2      0.039367
     55 H191        1.5530   -2.5220    0.7020 hc        1 HC2      0.037367
     56 H192        0.4490   -2.7890   -0.7020 hc        1 HC2      0.037367
     57 H193        0.0370   -3.4890    0.9220 hc        1 HC2      0.037367
     58 H211       -8.4540   -5.3120   -0.6090 hc        1 HC2      0.042033
     59 H212       -8.3110   -3.5060   -0.4750 hc        1 HC2      0.042033
     60 H213       -8.1010   -4.5570    0.9940 hc        1 HC2      0.042033
     61 H221       -5.0850   -4.6570   -2.0990 hc        1 HC2      0.054700
     62 H222       -6.1950   -3.2240   -2.0760 hc        1 HC2      0.054700
     63 H231       -8.1140   -4.6220   -2.7150 hc        1 HC2      0.038200
     64 H232       -7.1460   -6.1360   -2.5210 hc        1 HC2      0.038200
     65 H241       -5.5930   -5.3930   -4.3350 hc        1 HC2      0.042200
     66 H242       -6.5280   -3.8600   -4.5290 hc        1 HC2      0.042200
     67 H25        -7.8500   -6.6370   -4.7690 hc        1 HC2      0.045700
     68 H261       -8.5690   -3.8410   -5.8910 hc        1 HC2      0.033533
     69 H262       -9.3610   -4.6680   -4.4870 hc        1 HC2      0.033533
     70 H263       -9.4970   -5.3750   -6.1490 hc        1 HC2      0.033533
     71 H271       -6.5090   -4.9400   -6.9840 hc        1 HC2      0.033533
     72 H272       -7.5450   -6.4030   -7.2480 hc        1 HC2      0.033533
     73 H273       -5.9640   -6.5580   -6.3770 hc        1 HC2      0.033533
     74 HO1         3.3360    1.3550    2.3240 ho        1 HC2      0.398000
     75 HO2        -6.4230   -6.5030   -0.5440 ho        1 HC2      0.396000
@<TRIPOS>BOND
     1    1    2 1   
     2    1   10 1   
     3    1   30 1   
     4    1   31 1   
     5    2    3 1   
     6    2   32 1   
     7    2   33 1   
     8    3    4 1   
     9    3   28 1   
    10    3   34 1   
    11    4    5 1   
    12    4   35 1   
    13    4   36 1   
    14    5    6 2   
    15    5   10 1   
    16    6    7 1   
    17    6   37 1   
    18    7    8 1   
    19    7   38 1   
    20    7   39 1   
    21    8    9 1   
    22    8   14 1   
    23    8   40 1   
    24    9   10 1   
    25    9   11 1   
    26    9   41 1   
    27   10   19 1   
    28   11   12 1   
    29   11   42 1   
    30   11   43 1   
    31   12   13 1   
    32   12   44 1   
    33   12   45 1   
    34   13   14 1   
    35   13   17 1   
    36   13   18 1   
    37   14   15 1   
    38   14   46 1   
    39   15   16 1   
    40   15   47 1   
    41   15   48 1   
    42   16   17 1   
    43   16   49 1   
    44   16   50 1   
    45   17   20 1   
    46   17   51 1   
    47   18   52 1   
    48   18   53 1   
    49   18   54 1   
    50   19   55 1   
    51   19   56 1   
    52   19   57 1   
    53   20   21 1   
    54   20   22 1   
    55   20   29 1   
    56   21   58 1   
    57   21   59 1   
    58   21   60 1   
    59   22   23 1   
    60   22   61 1   
    61   22   62 1   
    62   23   24 1   
    63   23   63 1   
    64   23   64 1   
    65   24   25 1   
    66   24   65 1   
    67   24   66 1   
    68   25   26 1   
    69   25   27 1   
    70   25   67 1   
    71   26   68 1   
    72   26   69 1   
    73   26   70 1   
    74   27   71 1   
    75   27   72 1   
    76   27   73 1   
    77   28   74 1   
    78   29   75 1   
@<TRIPOS>SUBSTRUCTURE
     1 HC2         1 TEMP              0 ****  ****    0 ROOT
