@<TRIPOS>MOLECULE
HC2
   75    78     1     0     0
SMALL
bcc


@<TRIPOS>ATOM
      1 C1          3.7960   -1.7810   -1.0500 c3        1 HC2     -0.070400
      2 C2          5.1690   -2.3810   -0.8570 c3        1 HC2     -0.075400
      3 C3          6.2260   -1.2850   -0.8590 c3        1 HC2      0.145100
      4 C4          5.9290   -0.2530    0.2260 c3        1 HC2     -0.075200
      5 C5          4.5390    0.2770    0.1280 c2        1 HC2     -0.105400
      6 C6          4.3210    1.6000    0.1730 c2        1 HC2     -0.167200
      7 C7          2.9870    2.2320    0.1080 c3        1 HC2     -0.042200
      8 C8          1.8650    1.2380    0.3730 c3        1 HC2     -0.047700
      9 C9          2.1150   -0.0540   -0.4170 c3        1 HC2     -0.048700
     10 C10         3.4290   -0.7400    0.0200 c3        1 HC2      0.000200
     11 C11         0.9250   -1.0050   -0.3530 c3        1 HC2     -0.075400
     12 C12        -0.4070   -0.3580   -0.6950 c3        1 HC2     -0.067400
     13 C13        -0.6560    0.8590    0.1830 c3        1 HC2     -0.044000
     14 C14         0.5380    1.8210   -0.0650 c3        1 HC2     -0.064700
     15 C15         0.0800    3.1400    0.5390 c3        1 HC2     -0.074400
     16 C16        -1.4300    3.1640    0.2930 c3        1 HC2     -0.079400
     17 C17        -1.8340    1.7730   -0.2380 c3        1 HC2     -0.082700
     18 C18        -0.7680    0.4540    1.6410 c3        1 HC2     -0.089100
     19 C19         3.2660   -1.4370    1.3680 c3        1 HC2     -0.084100
     20 C20        -3.2850    1.4250    0.1410 c3        1 HC2      0.164800
     21 C21        -4.2180    2.3850   -0.6060 c3        1 HC2     -0.088100
     22 C22        -3.6190   -0.0250   -0.2300 c3        1 HC2     -0.107400
     23 C23        -5.0840   -0.3560   -0.0390 c3        1 HC2     -0.081400
     24 C24        -5.3220   -1.8480   -0.1370 c3        1 HC2     -0.075400
     25 C25        -6.7920   -2.2080    0.0240 c3        1 HC2     -0.067700
     26 C26        -7.5780   -1.8980   -1.2330 c3        1 HC2     -0.089600
     27 C27        -6.9330   -3.6750    0.3770 c3        1 HC2     -0.089600
     28 O1          7.4760   -1.9220   -0.6210 oh        1 HC2     -0.600800
     29 O2         -3.5530    1.6680    1.5210 oh        1 HC2     -0.600800
     30 H11         3.7450   -1.2960   -2.0610 hc        1 HC2      0.044700
     31 H12         3.0370   -2.6070   -1.0320 hc        1 HC2      0.044700
     32 H21         5.3890   -3.1070   -1.6820 hc        1 HC2      0.055200
     33 H22         5.2210   -2.9440    0.1100 hc        1 HC2      0.055200
     34 H3          6.2560   -0.7800   -1.8650 h1        1 HC2      0.035700
     35 H41         6.6750    0.5830    0.1490 hc        1 HC2      0.051700
     36 H42         6.0750   -0.7330    1.2320 hc        1 HC2      0.051700
     37 H6          5.1650    2.3050    0.2520 ha        1 HC2      0.119000
     38 H71         2.8560    2.6930   -0.9100 hc        1 HC2      0.049700
     39 H72         2.9210    3.0660    0.8570 hc        1 HC2      0.049700
     40 H8          1.8460    1.0130    1.4730 hc        1 HC2      0.058700
     41 H9          2.2440    0.2480   -1.4980 hc        1 HC2      0.048700
     42 H111        1.1000   -1.8500   -1.0710 hc        1 HC2      0.042200
     43 H112        0.8500   -1.4510    0.6740 hc        1 HC2      0.042200
     44 H121       -0.4150   -0.0500   -1.7740 hc        1 HC2      0.041200
     45 H122       -1.2210   -1.1170   -0.5580 hc        1 HC2      0.041200
     46 H14         0.6070    1.9790   -1.1830 hc        1 HC2      0.045700
     47 H151        0.5900    4.0070    0.0540 hc        1 HC2      0.042200
     48 H152        0.3070    3.1780    1.6330 hc        1 HC2      0.042200
     49 H161       -1.6960    3.9510   -0.4540 hc        1 HC2      0.052200
     50 H162       -1.9820    3.3870    1.2410 hc        1 HC2      0.052200
     51 H17        -1.8220    1.8020   -1.3660 hc        1 HC2      0.048700
     52 H181        0.1940    0.0350    2.0230 hc        1 HC2      0.037700
     53 H182       -1.0360    1.3400    2.2680 hc        1 HC2      0.037700
     54 H183       -1.5490   -0.3350    1.7690 hc        1 HC2      0.037700
     55 H191        4.2620   -1.7280    1.7820 hc        1 HC2      0.037700
     56 H192        2.7630   -0.7630    2.1020 hc        1 HC2      0.037700
     57 H193        2.6560   -2.3660    1.2560 hc        1 HC2      0.037700
     58 H211       -5.2570    2.2850   -0.2100 hc        1 HC2      0.044367
     59 H212       -3.8880    3.4390   -0.4550 hc        1 HC2      0.044367
     60 H213       -4.2100    2.1450   -1.6940 hc        1 HC2      0.044367
     61 H221       -3.0060   -0.7150    0.4090 hc        1 HC2      0.046200
     62 H222       -3.3230   -0.1990   -1.2970 hc        1 HC2      0.046200
     63 H231       -5.6950    0.1740   -0.8170 hc        1 HC2      0.048700
     64 H232       -5.4200    0.0210    0.9630 hc        1 HC2      0.048700
     65 H241       -4.7280   -2.3680    0.6610 hc        1 HC2      0.038200
     66 H242       -4.9500   -2.2260   -1.1260 hc        1 HC2      0.038200
     67 H25        -7.2180   -1.5970    0.8700 hc        1 HC2      0.048700
     68 H261       -7.1880   -2.4890   -2.0970 hc        1 HC2      0.033033
     69 H262       -8.6550   -2.1560   -1.0880 hc        1 HC2      0.033033
     70 H263       -7.5060   -0.8130   -1.4840 hc        1 HC2      0.033033
     71 H271       -6.4820   -4.3150   -0.4200 hc        1 HC2      0.033033
     72 H272       -6.4180   -3.8970    1.3420 hc        1 HC2      0.033033
     73 H273       -8.0120   -3.9470    0.4800 hc        1 HC2      0.033033
     74 HO1         8.1390   -1.2230   -0.5730 ho        1 HC2      0.398000
     75 HO2        -3.1480    0.9550    2.0260 ho        1 HC2      0.401000
@<TRIPOS>BOND
     1    1    2 1   
     2    1   10 1   
     3    1   30 1   
     4    1   31 1   
     5    2    3 1   
     6    2   32 1   
     7    2   33 1   
     8    3    4 1   
     9    3   28 1   
    10    3   34 1   
    11    4    5 1   
    12    4   35 1   
    13    4   36 1   
    14    5    6 2   
    15    5   10 1   
    16    6    7 1   
    17    6   37 1   
    18    7    8 1   
    19    7   38 1   
    20    7   39 1   
    21    8    9 1   
    22    8   14 1   
    23    8   40 1   
    24    9   10 1   
    25    9   11 1   
    26    9   41 1   
    27   10   19 1   
    28   11   12 1   
    29   11   42 1   
    30   11   43 1   
    31   12   13 1   
    32   12   44 1   
    33   12   45 1   
    34   13   14 1   
    35   13   17 1   
    36   13   18 1   
    37   14   15 1   
    38   14   46 1   
    39   15   16 1   
    40   15   47 1   
    41   15   48 1   
    42   16   17 1   
    43   16   49 1   
    44   16   50 1   
    45   17   20 1   
    46   17   51 1   
    47   18   52 1   
    48   18   53 1   
    49   18   54 1   
    50   19   55 1   
    51   19   56 1   
    52   19   57 1   
    53   20   21 1   
    54   20   22 1   
    55   20   29 1   
    56   21   58 1   
    57   21   59 1   
    58   21   60 1   
    59   22   23 1   
    60   22   61 1   
    61   22   62 1   
    62   23   24 1   
    63   23   63 1   
    64   23   64 1   
    65   24   25 1   
    66   24   65 1   
    67   24   66 1   
    68   25   26 1   
    69   25   27 1   
    70   25   67 1   
    71   26   68 1   
    72   26   69 1   
    73   26   70 1   
    74   27   71 1   
    75   27   72 1   
    76   27   73 1   
    77   28   74 1   
    78   29   75 1   
@<TRIPOS>SUBSTRUCTURE
     1 HC2         1 TEMP              0 ****  ****    0 ROOT
