@<TRIPOS>MOLECULE
HC3
   75    77     1     0     0
SMALL
bcc


@<TRIPOS>ATOM
      1 C18         2.3470   -0.1300    1.1140 c3        1 HC3     -0.203000
      2 C13         0.6210   -0.0770    1.0440 c3        1 HC3     -0.038000
      3 C12        -0.0500   -0.1140    2.5600 c3        1 HC3     -0.148000
      4 C11        -0.0730   -0.1150    2.5590 c3        1 HC3     -0.149000
      5 C9         -0.6300   -1.3590    1.5960 c3        1 HC3     -0.087000
      6 C10        -0.6770   -2.8620    2.4860 c3        1 HC3     -0.005000
      7 C19         0.7910   -3.1720    3.0020 c3        1 HC3     -0.200000
      8 C1         -1.5840   -2.5790    3.7470 c3        1 HC3     -0.145000
      9 C2         -1.8180   -3.8010    4.6240 c3        1 HC3     -0.188000
     10 C3         -2.3060   -4.9770    3.8600 c3        1 HC3      0.031000
     11 O1         -2.3800   -6.0720    4.7070 oh        1 HC3     -0.324000
     12 C4         -1.3700   -5.3450    2.5840 c3        1 HC3     -0.155000
     13 C5         -1.1660   -4.0420    1.7200 c2        1 HC3     -0.101000
     14 C6         -0.7510   -4.1070   -0.1210 c1        1 HC3     -0.161000
     15 C7         -0.5880   -2.5700   -0.8700 c2        1 HC3     -0.127000
     16 C8          0.0740   -1.4090    0.2320 c3        1 HC3     -0.091000
     17 C14         0.0690   -1.2130    0.1340 c3        1 HC3     -0.094000
     18 C15        -1.1110   -0.8830   -0.1910 c3        1 HC3     -0.157000
     19 C16        -1.1210    0.7320   -0.1780 c3        1 HC3     -0.156000
     20 C17         0.1330    1.1360    0.4710 c3        1 HC3     -0.095000
     21 C20         1.0620    1.7320   -0.6130 c3        1 HC3     -0.094000
     22 C21         1.7830    2.8260   -0.0580 c3        1 HC3     -0.211000
     23 C22         0.1210    2.2870   -1.8650 c3        1 HC3     -0.156000
     24 C23         1.0250    2.9470   -2.9750 c3        1 HC3     -0.158000
     25 C24         0.0950    4.1850   -3.8180 c3        1 HC3     -0.143000
     26 C25         0.9410    4.8020   -4.9300 c3        1 HC3      0.076000
     27 C26         0.5000    4.2220   -6.2910 c3        1 HC3     -0.241000
     28 C27         0.7440    6.3310   -4.9330 c3        1 HC3     -0.241000
     29 O2          2.2530    4.5100   -4.7100 oh        1 HC3     -0.325000
     30 H181        2.6280   -0.9210    1.6290 hc        1 HC3      0.074333
     31 H182        2.6840   -0.1910    0.2500 hc        1 HC3      0.074333
     32 H183        2.7170    0.7370    1.5790 hc        1 HC3      0.074333
     33 H121        0.2630   -0.9140    3.0450 hc        1 HC3      0.080500
     34 H122        0.2150    0.6740    3.0590 hc        1 HC3      0.080500
     35 H111       -0.3550    0.6630    2.2000 hc        1 HC3      0.079500
     36 H112       -0.4530   -0.1950    3.4720 hc        1 HC3      0.079500
     37 H9         -1.5330   -1.1480    1.4080 hc        1 HC3      0.088000
     38 H191        1.4200   -3.2160    2.2230 hc        1 HC3      0.075667
     39 H192        0.8030   -4.0410    3.4820 hc        1 HC3      0.075667
     40 H193        1.0740   -2.4540    3.6150 hc        1 HC3      0.075667
     41 H11        -2.4680   -2.2520    3.4280 hc        1 HC3      0.084500
     42 H12        -1.1390   -1.8360    4.3280 hc        1 HC3      0.084500
     43 H21        -0.9740   -4.0430    5.0930 hc        1 HC3      0.086000
     44 H22        -2.5160   -3.5590    5.3130 hc        1 HC3      0.086000
     45 H3         -3.2570   -4.7620    3.5120 h1        1 HC3      0.119000
     46 HO1        -1.6090   -6.3900    4.8250 ho        1 HC3      0.194000
     47 H41        -0.6780   -5.7520    2.9070 hc        1 HC3      0.091000
     48 H42        -1.7560   -6.0690    1.9670 hc        1 HC3      0.091000
     49 H6         -1.0520   -4.8200   -0.6250 ha        1 HC3      0.121000
     50 H71        -1.3410   -2.3220   -1.3310 ha        1 HC3      0.089000
     51 H72         0.0450   -2.6460   -1.6120 ha        1 HC3      0.089000
     52 H8          1.0560   -1.6540    0.3900 hc        1 HC3      0.092000
     53 H14         0.5940   -1.2590   -0.6590 hc        1 HC3      0.085000
     54 H151       -1.7660   -1.2440    0.4670 hc        1 HC3      0.082000
     55 H152       -1.3100   -1.2110   -1.0780 hc        1 HC3      0.082000
     56 H161       -1.8830    1.0560    0.3380 hc        1 HC3      0.081500
     57 H162       -1.1580    1.0810   -1.0930 hc        1 HC3      0.081500
     58 H17        -0.0480    1.8040    1.1730 hc        1 HC3      0.088000
     59 H20         1.6670    1.0690   -0.9330 hc        1 HC3      0.088000
     60 H211        1.2510    3.7100   -0.2160 hc        1 HC3      0.074667
     61 H212        1.8920    2.6900    0.8740 hc        1 HC3      0.074667
     62 H213        2.6890    2.8940   -0.4990 hc        1 HC3      0.074667
     63 H221       -0.5100    2.9590   -1.5130 hc        1 HC3      0.079000
     64 H222       -0.3550    1.5890   -2.2350 hc        1 HC3      0.079000
     65 H231        1.7940    3.3460   -2.5690 hc        1 HC3      0.088000
     66 H232        1.3250    2.2270   -3.6440 hc        1 HC3      0.088000
     67 H241       -0.7140    3.7770   -4.2140 hc        1 HC3      0.086500
     68 H242       -0.1640    4.8650   -3.1970 hc        1 HC3      0.086500
     69 H261        0.6100    3.2640   -6.2790 hc        1 HC3      0.081667
     70 H262       -0.4560    4.4470   -6.4530 hc        1 HC3      0.081667
     71 H263        1.0480    4.6040   -7.0050 hc        1 HC3      0.081667
     72 H271        1.0260    6.6890   -4.0850 hc        1 HC3      0.081667
     73 H272       -0.2400    6.5450   -5.0840 hc        1 HC3      0.081667
     74 H273        1.2700    6.7250   -5.6380 hc        1 HC3      0.081667
     75 HO2         2.7300    4.6000   -5.4990 ho        1 HC3      0.196000
@<TRIPOS>BOND
     1    1    2 1   
     2    1   30 1   
     3    1   31 1   
     4    1   32 1   
     5    2    3 1   
     6    2   17 1   
     7    2   20 1   
     8    3    4 1   
     9    3   33 1   
    10    3   34 1   
    11    4    5 1   
    12    4   35 1   
    13    4   36 1   
    14    5    6 1   
    15    5   16 1   
    16    5   37 1   
    17    6    7 1   
    18    6    8 1   
    19    6   13 1   
    20    7   38 1   
    21    7   39 1   
    22    7   40 1   
    23    8    9 1   
    24    8   41 1   
    25    8   42 1   
    26    9   10 1   
    27    9   43 1   
    28    9   44 1   
    29   10   11 1   
    30   10   12 1   
    31   10   45 1   
    32   11   46 1   
    33   12   13 1   
    34   12   47 1   
    35   12   48 1   
    36   13   14 1   
    37   14   49 1   
    38   15   16 1   
    39   15   50 1   
    40   15   51 1   
    41   16   17 1   
    42   16   52 1   
    43   17   18 1   
    44   17   53 1   
    45   18   19 1   
    46   18   54 1   
    47   18   55 1   
    48   19   20 1   
    49   19   56 1   
    50   19   57 1   
    51   20   21 1   
    52   20   58 1   
    53   21   22 1   
    54   21   23 1   
    55   21   59 1   
    56   22   60 1   
    57   22   61 1   
    58   22   62 1   
    59   23   24 1   
    60   23   63 1   
    61   23   64 1   
    62   24   25 1   
    63   24   65 1   
    64   24   66 1   
    65   25   26 1   
    66   25   67 1   
    67   25   68 1   
    68   26   27 1   
    69   26   28 1   
    70   26   29 1   
    71   27   69 1   
    72   27   70 1   
    73   27   71 1   
    74   28   72 1   
    75   28   73 1   
    76   28   74 1   
    77   29   75 1   
@<TRIPOS>SUBSTRUCTURE
     1 HC3         1 TEMP              0 ****  ****    0 ROOT
