@<TRIPOS>MOLECULE
HC3
   75    78     1     0     0
SMALL
bcc


@<TRIPOS>ATOM
      1 C18         2.0130    0.1680    0.2370 c3        1 HC3     -0.083100
      2 C13         0.5030    0.0350    0.1420 c3        1 HC3     -0.045000
      3 C12        -0.1190   -0.0610    1.5260 c3        1 HC3     -0.065400
      4 C11         0.3350   -1.3270    2.2350 c3        1 HC3     -0.075400
      5 C9          0.0930   -2.6080    1.4430 c3        1 HC3     -0.048700
      6 C10         0.6610   -3.8510    2.1660 c3        1 HC3      0.000200
      7 C19         2.1180   -3.6380    2.5690 c3        1 HC3     -0.084100
      8 C1         -0.1860   -4.0880    3.4270 c3        1 HC3     -0.066400
      9 C2          0.1240   -5.3960    4.1150 c3        1 HC3     -0.113400
     10 C3         -0.0790   -6.5640    3.1590 c3        1 HC3      0.145100
     11 O1          0.3190   -7.7940    3.7550 oh        1 HC3     -0.602800
     12 C4          0.7840   -6.3940    1.9120 c3        1 HC3     -0.038200
     13 C5          0.5740   -5.0630    1.2720 c2        1 HC3     -0.110400
     14 C6          0.3630   -4.9850   -0.0510 c2        1 HC3     -0.165200
     15 C7          0.1730   -3.7230   -0.7960 c3        1 HC3     -0.043200
     16 C8          0.6170   -2.5070    0.0040 c3        1 HC3     -0.046700
     17 C14         0.0650   -1.2420   -0.6190 c3        1 HC3     -0.065700
     18 C15         0.3910   -0.9360   -2.0730 c3        1 HC3     -0.074400
     19 C16         0.1560    0.5700   -2.2060 c3        1 HC3     -0.079400
     20 C17        -0.0690    1.1360   -0.7870 c3        1 HC3     -0.053700
     21 C20         0.5080    2.5390   -0.6340 c3        1 HC3     -0.055700
     22 C21         0.3080    3.0750    0.7710 c3        1 HC3     -0.090100
     23 C22        -0.1430    3.4910   -1.6360 c3        1 HC3     -0.079400
     24 C23         0.7370    4.6880   -1.9320 c3        1 HC3     -0.079400
     25 C24         0.0460    5.6440   -2.8810 c3        1 HC3     -0.064400
     26 C25         0.9620    6.7750   -3.3600 c3        1 HC3      0.147800
     27 C26         0.1830    7.7010   -4.2910 c3        1 HC3     -0.123100
     28 C27         1.5320    7.5740   -2.1950 c3        1 HC3     -0.123100
     29 O2          2.0210    6.1460   -4.0860 oh        1 HC3     -0.597800
     30 H181        2.4710   -0.7200    0.7340 hc        1 HC3      0.036033
     31 H182        2.2840    1.0730    0.8330 hc        1 HC3      0.036033
     32 H183        2.4570    0.2660   -0.7830 hc        1 HC3      0.036033
     33 H121        0.1710    0.8250    2.1490 hc        1 HC3      0.040700
     34 H122       -1.2370   -0.0550    1.4350 hc        1 HC3      0.040700
     35 H111        1.4260   -1.2280    2.4740 hc        1 HC3      0.040700
     36 H112       -0.2140   -1.3990    3.2110 hc        1 HC3      0.040700
     37 H9         -1.0250   -2.7510    1.3700 hc        1 HC3      0.047700
     38 H191        2.1860   -2.9390    3.4370 hc        1 HC3      0.037367
     39 H192        2.5870   -4.6060    2.8690 hc        1 HC3      0.037367
     40 H193        2.7020   -3.2120    1.7190 hc        1 HC3      0.037367
     41 H11        -1.2720   -4.0710    3.1440 hc        1 HC3      0.043700
     42 H12        -0.0110   -3.2480    4.1490 hc        1 HC3      0.043700
     43 H21        -0.5440   -5.5200    5.0070 hc        1 HC3      0.046200
     44 H22         1.1830   -5.4010    4.4840 hc        1 HC3      0.046200
     45 H3         -1.1660   -6.6330    2.8680 h1        1 HC3      0.035700
     46 HO1        -0.1730   -7.8730    4.5800 ho        1 HC3      0.398000
     47 H41         0.5460   -7.2240    1.1960 hc        1 HC3      0.060200
     48 H42         1.8640   -6.5080    2.2000 hc        1 HC3      0.060200
     49 H6          0.3070   -5.9000   -0.6640 ha        1 HC3      0.121000
     50 H71         0.7500   -3.7580   -1.7600 hc        1 HC3      0.049200
     51 H72        -0.9140   -3.6260   -1.0680 hc        1 HC3      0.049200
     52 H8          1.7400   -2.4760    0.0100 hc        1 HC3      0.058700
     53 H14        -1.0620   -1.3030   -0.5410 hc        1 HC3      0.045700
     54 H151       -0.2650   -1.5180   -2.7660 hc        1 HC3      0.041700
     55 H152        1.4520   -1.1990   -2.3080 hc        1 HC3      0.041700
     56 H161        1.0400    1.0580   -2.6870 hc        1 HC3      0.043200
     57 H162       -0.7380    0.7710   -2.8450 hc        1 HC3      0.043200
     58 H17        -1.1760    1.2000   -0.5960 hc        1 HC3      0.045700
     59 H20         1.6130    2.4980   -0.8520 hc        1 HC3      0.052700
     60 H211        0.4810    4.1780    0.7970 hc        1 HC3      0.033033
     61 H212       -0.7320    2.8730    1.1250 hc        1 HC3      0.033033
     62 H213        1.0240    2.5990    1.4840 hc        1 HC3      0.033033
     63 H221       -0.3510    2.9550   -2.5990 hc        1 HC3      0.040700
     64 H222       -1.1310    3.8360   -1.2320 hc        1 HC3      0.040700
     65 H231        0.9910    5.2210   -0.9780 hc        1 HC3      0.048700
     66 H232        1.7030    4.3480   -2.3920 hc        1 HC3      0.048700
     67 H241       -0.3120    5.0790   -3.7810 hc        1 HC3      0.047200
     68 H242       -0.8450    6.1040   -2.3820 hc        1 HC3      0.047200
     69 H261       -0.2110    7.1240   -5.1600 hc        1 HC3      0.042367
     70 H262        0.8470    8.5120   -4.6740 hc        1 HC3      0.042367
     71 H263       -0.6700    8.1640   -3.7420 hc        1 HC3      0.042367
     72 H271        2.0660    8.4790   -2.5700 hc        1 HC3      0.042367
     73 H272        0.7100    7.8960   -1.5140 hc        1 HC3      0.042367
     74 H273        2.2570    6.9470   -1.6210 hc        1 HC3      0.042367
     75 HO2         2.6020    6.8510   -4.3930 ho        1 HC3      0.397000
@<TRIPOS>BOND
     1    1    2 1   
     2    1   30 1   
     3    1   31 1   
     4    1   32 1   
     5    2    3 1   
     6    2   17 1   
     7    2   20 1   
     8    3    4 1   
     9    3   33 1   
    10    3   34 1   
    11    4    5 1   
    12    4   35 1   
    13    4   36 1   
    14    5    6 1   
    15    5   16 1   
    16    5   37 1   
    17    6    7 1   
    18    6    8 1   
    19    6   13 1   
    20    7   38 1   
    21    7   39 1   
    22    7   40 1   
    23    8    9 1   
    24    8   41 1   
    25    8   42 1   
    26    9   10 1   
    27    9   43 1   
    28    9   44 1   
    29   10   11 1   
    30   10   12 1   
    31   10   45 1   
    32   11   46 1   
    33   12   13 1   
    34   12   47 1   
    35   12   48 1   
    36   13   14 2   
    37   14   15 1   
    38   14   49 1   
    39   15   16 1   
    40   15   50 1   
    41   15   51 1   
    42   16   17 1   
    43   16   52 1   
    44   17   18 1   
    45   17   53 1   
    46   18   19 1   
    47   18   54 1   
    48   18   55 1   
    49   19   20 1   
    50   19   56 1   
    51   19   57 1   
    52   20   21 1   
    53   20   58 1   
    54   21   22 1   
    55   21   23 1   
    56   21   59 1   
    57   22   60 1   
    58   22   61 1   
    59   22   62 1   
    60   23   24 1   
    61   23   63 1   
    62   23   64 1   
    63   24   25 1   
    64   24   65 1   
    65   24   66 1   
    66   25   26 1   
    67   25   67 1   
    68   25   68 1   
    69   26   27 1   
    70   26   28 1   
    71   26   29 1   
    72   27   69 1   
    73   27   70 1   
    74   27   71 1   
    75   28   72 1   
    76   28   73 1   
    77   28   74 1   
    78   29   75 1   
@<TRIPOS>SUBSTRUCTURE
     1 HC3         1 TEMP              0 ****  ****    0 ROOT
