@<TRIPOS>MOLECULE
HC3
   75    78     1     0     0
SMALL
bcc


@<TRIPOS>ATOM
      1 C18         2.0080    0.1770    0.2600 c3        1 HC3     -0.083100
      2 C13         0.4980    0.0440    0.1590 c3        1 HC3     -0.045000
      3 C12        -0.1310   -0.0410    1.5410 c3        1 HC3     -0.065400
      4 C11         0.3190   -1.3030    2.2610 c3        1 HC3     -0.075400
      5 C9          0.0800   -2.5890    1.4780 c3        1 HC3     -0.048700
      6 C10         0.6440   -3.8270    2.2130 c3        1 HC3      0.000200
      7 C19         2.0990   -3.6130    2.6190 c3        1 HC3     -0.083100
      8 C1         -0.2080   -4.0530    3.4730 c3        1 HC3     -0.070400
      9 C2          0.0980   -5.3550    4.1770 c3        1 HC3     -0.075400
     10 C3         -0.1110   -6.5270    3.2280 c3        1 HC3      0.144100
     11 O1          0.2430   -7.7040    3.9450 oh        1 HC3     -0.600800
     12 C4          0.7570   -6.3700    1.9820 c3        1 HC3     -0.075200
     13 C5          0.5590   -5.0450    1.3270 c2        1 HC3     -0.106400
     14 C6          0.3550   -4.9780    0.0030 c2        1 HC3     -0.167200
     15 C7          0.1720   -3.7210   -0.7530 c3        1 HC3     -0.042200
     16 C8          0.6110   -2.4990    0.0400 c3        1 HC3     -0.046700
     17 C14         0.0630   -1.2380   -0.5950 c3        1 HC3     -0.065700
     18 C15         0.3960   -0.9440   -2.0500 c3        1 HC3     -0.074400
     19 C16         0.1630    0.5610   -2.1950 c3        1 HC3     -0.079400
     20 C17        -0.0680    1.1380   -0.7810 c3        1 HC3     -0.053700
     21 C20         0.5080    2.5420   -0.6350 c3        1 HC3     -0.055700
     22 C21         0.3020    3.0880    0.7640 c3        1 HC3     -0.091100
     23 C22        -0.1370    3.4860   -1.6480 c3        1 HC3     -0.079400
     24 C23         0.7450    4.6810   -1.9490 c3        1 HC3     -0.079400
     25 C24         0.0590    5.6300   -2.9080 c3        1 HC3     -0.064400
     26 C25         0.9780    6.7570   -3.3910 c3        1 HC3      0.147800
     27 C26         0.2040    7.6770   -4.3320 c3        1 HC3     -0.123100
     28 C27         1.5430    7.5640   -2.2290 c3        1 HC3     -0.123100
     29 O2          2.0390    6.1230   -4.1070 oh        1 HC3     -0.597800
     30 H181        2.4620   -0.7080    0.7670 hc        1 HC3      0.035700
     31 H182        2.4570    0.2670   -0.7590 hc        1 HC3      0.035700
     32 H183        2.2770    1.0860    0.8500 hc        1 HC3      0.035700
     33 H121       -1.2480   -0.0360    1.4440 hc        1 HC3      0.040700
     34 H122        0.1570    0.8490    2.1580 hc        1 HC3      0.040700
     35 H111       -0.2350   -1.3670    3.2350 hc        1 HC3      0.041200
     36 H112        1.4090   -1.2020    2.5050 hc        1 HC3      0.041200
     37 H9         -1.0370   -2.7320    1.4000 hc        1 HC3      0.047700
     38 H191        2.1650   -2.9050    3.4800 hc        1 HC3      0.037367
     39 H192        2.6890   -3.1980    1.7670 hc        1 HC3      0.037367
     40 H193        2.5650   -4.5790    2.9330 hc        1 HC3      0.037367
     41 H11        -1.2930   -4.0370    3.1860 hc        1 HC3      0.044700
     42 H12        -0.0340   -3.2080    4.1880 hc        1 HC3      0.044700
     43 H21         1.1550   -5.3640    4.5480 hc        1 HC3      0.055200
     44 H22        -0.5720   -5.4760    5.0670 hc        1 HC3      0.055200
     45 H3         -1.1960   -6.5920    2.9290 h1        1 HC3      0.035700
     46 HO1         0.1610   -8.4400    3.3290 ho        1 HC3      0.398000
     47 H41         1.8360   -6.4820    2.2770 hc        1 HC3      0.051200
     48 H42         0.5240   -7.2020    1.2660 hc        1 HC3      0.051200
     49 H6          0.3020   -5.8960   -0.6050 ha        1 HC3      0.119000
     50 H71         0.7530   -3.7630   -1.7130 hc        1 HC3      0.049200
     51 H72        -0.9140   -3.6240   -1.0320 hc        1 HC3      0.049200
     52 H8          1.7340   -2.4690    0.0520 hc        1 HC3      0.058700
     53 H14        -1.0640   -1.2990   -0.5220 hc        1 HC3      0.045700
     54 H151        1.4580   -1.2080   -2.2780 hc        1 HC3      0.041200
     55 H152       -0.2560   -1.5300   -2.7410 hc        1 HC3      0.041200
     56 H161       -0.7280    0.7580   -2.8400 hc        1 HC3      0.043200
     57 H162        1.0490    1.0460   -2.6750 hc        1 HC3      0.043200
     58 H17        -1.1760    1.2040   -0.5960 hc        1 HC3      0.045700
     59 H20         1.6140    2.4990   -0.8480 hc        1 HC3      0.052700
     60 H211        1.0140    2.6180    1.4840 hc        1 HC3      0.033033
     61 H212        0.4750    4.1920    0.7830 hc        1 HC3      0.033033
     62 H213       -0.7400    2.8900    1.1150 hc        1 HC3      0.033033
     63 H221       -1.1270    3.8350   -1.2510 hc        1 HC3      0.040200
     64 H222       -0.3410    2.9440   -2.6080 hc        1 HC3      0.040200
     65 H231        0.9940    5.2210   -0.9980 hc        1 HC3      0.048200
     66 H232        1.7120    4.3370   -2.4010 hc        1 HC3      0.048200
     67 H241       -0.8350    6.0940   -2.4160 hc        1 HC3      0.047200
     68 H242       -0.2950    5.0590   -3.8060 hc        1 HC3      0.047200
     69 H261       -0.6510    8.1450   -3.7910 hc        1 HC3      0.042367
     70 H262       -0.1870    7.0940   -5.1990 hc        1 HC3      0.042367
     71 H263        0.8700    8.4840   -4.7180 hc        1 HC3      0.042367
     72 H271        0.7180    7.8920   -1.5540 hc        1 HC3      0.042367
     73 H272        2.2650    6.9410   -1.6470 hc        1 HC3      0.042367
     74 H273        2.0790    8.4660   -2.6080 hc        1 HC3      0.042367
     75 HO2         2.6230    6.8250   -4.4160 ho        1 HC3      0.397000
@<TRIPOS>BOND
     1    1    2 1   
     2    1   30 1   
     3    1   31 1   
     4    1   32 1   
     5    2    3 1   
     6    2   17 1   
     7    2   20 1   
     8    3    4 1   
     9    3   33 1   
    10    3   34 1   
    11    4    5 1   
    12    4   35 1   
    13    4   36 1   
    14    5    6 1   
    15    5   16 1   
    16    5   37 1   
    17    6    7 1   
    18    6    8 1   
    19    6   13 1   
    20    7   38 1   
    21    7   39 1   
    22    7   40 1   
    23    8    9 1   
    24    8   41 1   
    25    8   42 1   
    26    9   10 1   
    27    9   43 1   
    28    9   44 1   
    29   10   11 1   
    30   10   12 1   
    31   10   45 1   
    32   11   46 1   
    33   12   13 1   
    34   12   47 1   
    35   12   48 1   
    36   13   14 2   
    37   14   15 1   
    38   14   49 1   
    39   15   16 1   
    40   15   50 1   
    41   15   51 1   
    42   16   17 1   
    43   16   52 1   
    44   17   18 1   
    45   17   53 1   
    46   18   19 1   
    47   18   54 1   
    48   18   55 1   
    49   19   20 1   
    50   19   56 1   
    51   19   57 1   
    52   20   21 1   
    53   20   58 1   
    54   21   22 1   
    55   21   23 1   
    56   21   59 1   
    57   22   60 1   
    58   22   61 1   
    59   22   62 1   
    60   23   24 1   
    61   23   63 1   
    62   23   64 1   
    63   24   25 1   
    64   24   65 1   
    65   24   66 1   
    66   25   26 1   
    67   25   67 1   
    68   25   68 1   
    69   26   27 1   
    70   26   28 1   
    71   26   29 1   
    72   27   69 1   
    73   27   70 1   
    74   27   71 1   
    75   28   72 1   
    76   28   73 1   
    77   28   74 1   
    78   29   75 1   
@<TRIPOS>SUBSTRUCTURE
     1 HC3         1 TEMP              0 ****  ****    0 ROOT
