@<TRIPOS>MOLECULE
HC3
   75    78     1     0     0
SMALL
bcc


@<TRIPOS>ATOM
      1 C18        -0.3660    0.7140   -1.3240 c3        1 HC3     -0.083100
      2 C13        -0.2400    0.2210    0.1070 c3        1 HC3     -0.044000
      3 C12         0.4580    1.2560    0.9760 c3        1 HC3     -0.065400
      4 C11         1.8910    1.4680    0.5150 c3        1 HC3     -0.075400
      5 C9          2.7170    0.1900    0.4290 c3        1 HC3     -0.048700
      6 C10         4.1320    0.4520   -0.1370 c3        1 HC3      0.000200
      7 C19         4.0670    1.2340   -1.4460 c3        1 HC3     -0.083100
      8 C1          4.9110    1.2690    0.9060 c3        1 HC3     -0.070400
      9 C2          6.3780    1.4180    0.5760 c3        1 HC3     -0.075400
     10 C3          7.0280    0.0470    0.4430 c3        1 HC3      0.145100
     11 O1          8.3870    0.2710    0.0850 oh        1 HC3     -0.600800
     12 C4          6.3160   -0.7820   -0.6220 c3        1 HC3     -0.075200
     13 C5          4.8460   -0.8540   -0.3850 c2        1 HC3     -0.105400
     14 C6          4.2170   -2.0380   -0.4340 c2        1 HC3     -0.167200
     15 C7          2.7640   -2.2230   -0.2390 c3        1 HC3     -0.042200
     16 C8          1.9940   -0.9150   -0.3550 c3        1 HC3     -0.047700
     17 C14         0.6010   -1.0760    0.2180 c3        1 HC3     -0.064700
     18 C15        -0.3060   -2.1560   -0.3490 c3        1 HC3     -0.074400
     19 C16        -1.7170   -1.7120    0.0440 c3        1 HC3     -0.078400
     20 C17        -1.6140   -0.2820    0.6180 c3        1 HC3     -0.053700
     21 C20        -2.8340    0.5630    0.2670 c3        1 HC3     -0.055700
     22 C21        -2.7110    1.9740    0.8090 c3        1 HC3     -0.091100
     23 C22        -4.1020   -0.0830    0.8220 c3        1 HC3     -0.079400
     24 C23        -5.3380    0.3540    0.0620 c3        1 HC3     -0.080400
     25 C24        -6.5880   -0.2460    0.6660 c3        1 HC3     -0.104400
     26 C25        -7.8310   -0.0230   -0.2030 c3        1 HC3      0.147800
     27 C26        -9.0260   -0.7220    0.4410 c3        1 HC3     -0.103600
     28 C27        -8.1270    1.4600   -0.3880 c3        1 HC3     -0.103600
     29 O2         -7.6240   -0.5410   -1.5180 oh        1 HC3     -0.596800
     30 H181        0.6350    0.8960   -1.7820 hc        1 HC3      0.036033
     31 H182       -0.9040   -0.0420   -1.9470 hc        1 HC3      0.036033
     32 H183       -0.9380    1.6730   -1.3530 hc        1 HC3      0.036033
     33 H121        0.4480    0.9150    2.0440 hc        1 HC3      0.041200
     34 H122       -0.0850    2.2350    0.9310 hc        1 HC3      0.041200
     35 H111        2.3900    2.1710    1.2340 hc        1 HC3      0.041700
     36 H112        1.8700    1.9760   -0.4850 hc        1 HC3      0.041700
     37 H9          2.8490   -0.1960    1.4820 hc        1 HC3      0.047700
     38 H191        5.0570    1.2150   -1.9630 hc        1 HC3      0.037700
     39 H192        3.3030    0.7930   -2.1310 hc        1 HC3      0.037700
     40 H193        3.8010    2.3010   -1.2520 hc        1 HC3      0.037700
     41 H11         4.8080    0.7730    1.9070 hc        1 HC3      0.044700
     42 H12         4.4550    2.2900    0.9850 hc        1 HC3      0.044700
     43 H21         6.8960    1.9960    1.3850 hc        1 HC3      0.055200
     44 H22         6.5120    1.9850   -0.3810 hc        1 HC3      0.055200
     45 H3          6.9930   -0.4930    1.4320 h1        1 HC3      0.035700
     46 HO1         8.7850   -0.5960   -0.0500 ho        1 HC3      0.398000
     47 H41         6.7630   -1.8120   -0.6420 hc        1 HC3      0.051200
     48 H42         6.5090   -0.3210   -1.6290 hc        1 HC3      0.051200
     49 H6          4.7820   -2.9670   -0.6190 ha        1 HC3      0.119000
     50 H71         2.5920   -2.6780    0.7750 hc        1 HC3      0.049200
     51 H72         2.3650   -2.9500   -0.9960 hc        1 HC3      0.049200
     52 H8          1.9340   -0.6330   -1.4410 hc        1 HC3      0.058700
     53 H14         0.7250   -1.2970    1.3210 hc        1 HC3      0.045700
     54 H151       -0.0580   -3.1590    0.0760 hc        1 HC3      0.041700
     55 H152       -0.2030   -2.2220   -1.4610 hc        1 HC3      0.041700
     56 H161       -2.1450   -2.4030    0.8100 hc        1 HC3      0.041200
     57 H162       -2.3900   -1.7280   -0.8490 hc        1 HC3      0.041200
     58 H17        -1.5570   -0.3470    1.7400 hc        1 HC3      0.045700
     59 H20        -2.9250    0.6140   -0.8550 hc        1 HC3      0.052700
     60 H211       -1.9980    2.5750    0.1950 hc        1 HC3      0.034033
     61 H212       -3.7010    2.4900    0.7870 hc        1 HC3      0.034033
     62 H213       -2.3450    1.9600    1.8650 hc        1 HC3      0.034033
     63 H221       -4.0240   -1.2000    0.7650 hc        1 HC3      0.039700
     64 H222       -4.2100    0.1830    1.9060 hc        1 HC3      0.039700
     65 H231       -5.4180    1.4730    0.0710 hc        1 HC3      0.049700
     66 H232       -5.2580    0.0380   -1.0130 hc        1 HC3      0.049700
     67 H241       -6.4420   -1.3510    0.8040 hc        1 HC3      0.042700
     68 H242       -6.7750    0.1970    1.6780 hc        1 HC3      0.042700
     69 H261       -9.2570   -0.2530    1.4250 hc        1 HC3      0.043367
     70 H262       -9.9180   -0.6350   -0.2240 hc        1 HC3      0.043367
     71 H263       -8.8050   -1.8040    0.5990 hc        1 HC3      0.043367
     72 H271       -7.3280    1.9350   -1.0040 hc        1 HC3      0.043367
     73 H272       -9.1030    1.5900   -0.9140 hc        1 HC3      0.043367
     74 H273       -8.1750    1.9590    0.6080 hc        1 HC3      0.043367
     75 HO2        -7.4110   -1.4760   -1.4180 ho        1 HC3      0.397000
@<TRIPOS>BOND
     1    1    2 1   
     2    1   30 1   
     3    1   31 1   
     4    1   32 1   
     5    2    3 1   
     6    2   17 1   
     7    2   20 1   
     8    3    4 1   
     9    3   33 1   
    10    3   34 1   
    11    4    5 1   
    12    4   35 1   
    13    4   36 1   
    14    5    6 1   
    15    5   16 1   
    16    5   37 1   
    17    6    7 1   
    18    6    8 1   
    19    6   13 1   
    20    7   38 1   
    21    7   39 1   
    22    7   40 1   
    23    8    9 1   
    24    8   41 1   
    25    8   42 1   
    26    9   10 1   
    27    9   43 1   
    28    9   44 1   
    29   10   11 1   
    30   10   12 1   
    31   10   45 1   
    32   11   46 1   
    33   12   13 1   
    34   12   47 1   
    35   12   48 1   
    36   13   14 2   
    37   14   15 1   
    38   14   49 1   
    39   15   16 1   
    40   15   50 1   
    41   15   51 1   
    42   16   17 1   
    43   16   52 1   
    44   17   18 1   
    45   17   53 1   
    46   18   19 1   
    47   18   54 1   
    48   18   55 1   
    49   19   20 1   
    50   19   56 1   
    51   19   57 1   
    52   20   21 1   
    53   20   58 1   
    54   21   22 1   
    55   21   23 1   
    56   21   59 1   
    57   22   60 1   
    58   22   61 1   
    59   22   62 1   
    60   23   24 1   
    61   23   63 1   
    62   23   64 1   
    63   24   25 1   
    64   24   65 1   
    65   24   66 1   
    66   25   26 1   
    67   25   67 1   
    68   25   68 1   
    69   26   27 1   
    70   26   28 1   
    71   26   29 1   
    72   27   69 1   
    73   27   70 1   
    74   27   71 1   
    75   28   72 1   
    76   28   73 1   
    77   28   74 1   
    78   29   75 1   
@<TRIPOS>SUBSTRUCTURE
     1 HC3         1 TEMP              0 ****  ****    0 ROOT
