@<TRIPOS>MOLECULE
HC4
   19    19     1     0     0
SMALL
bcc


@<TRIPOS>ATOM
      1 C1          0.0450   -0.0360    3.4630 c         1 HC4      0.889800
      2 O1         -1.1600   -0.1850    3.8140 o         1 HC4     -0.832800
      3 O2          1.0140    0.0510    4.2720 o         1 HC4     -0.832800
      4 C2          0.3780    0.0470    1.9870 ce        1 HC4     -0.160200
      5 C3         -0.5490   -0.0660    1.0270 cf        1 HC4     -0.183200
      6 C1'        -0.3120   -0.0010   -0.4020 ca        1 HC4     -0.027800
      7 C2'        -1.4110    0.0200   -1.2810 ca        1 HC4     -0.111000
      8 C3'        -1.2370    0.0820   -2.6580 ca        1 HC4     -0.183000
      9 C4'         0.0650    0.1230   -3.1790 ca        1 HC4      0.081100
     10 C5'         1.1750    0.1010   -2.3270 ca        1 HC4     -0.183000
     11 C6'         0.9800    0.0390   -0.9500 ca        1 HC4     -0.111000
     12 O4'         0.1840    0.1830   -4.5550 oh        1 HC4     -0.515100
     13 H2          1.4450    0.2090    1.7720 ha        1 HC4      0.098000
     14 H3         -1.6010   -0.2190    1.3330 ha        1 HC4      0.144000
     15 H2'        -2.4300   -0.0120   -0.8640 ha        1 HC4      0.137000
     16 H3'        -2.0960    0.0990   -3.3420 ha        1 HC4      0.124500
     17 H5'         2.1920    0.1310   -2.7420 ha        1 HC4      0.124500
     18 H6'         1.8540    0.0190   -0.2810 ha        1 HC4      0.137000
     19 HO4'        1.1280    0.2080   -4.7610 ho        1 HC4      0.405000
@<TRIPOS>BOND
     1    1    2 1   
     2    1    3 1   
     3    1    4 1   
     4    4    5 2   
     5    4   13 1   
     6    5    6 1   
     7    5   14 1   
     8    6    7 ar  
     9    6   11 ar  
    10    7    8 ar  
    11    7   15 1   
    12    8    9 ar  
    13    8   16 1   
    14    9   10 ar  
    15    9   12 1   
    16   10   11 ar  
    17   10   17 1   
    18   11   18 1   
    19   12   19 1   
@<TRIPOS>SUBSTRUCTURE
     1 HC4         1 TEMP              0 ****  ****    0 ROOT
