@<TRIPOS>MOLECULE
HC4
   19    19     1     0     0
SMALL
bcc


@<TRIPOS>ATOM
      1 C1         -0.7700    0.4320   -0.5720 c         1 HC4      0.895800
      2 O1         -0.0840    1.4280   -0.2090 o         1 HC4     -0.833800
      3 O2         -2.0180    0.3260   -0.3770 o         1 HC4     -0.833800
      4 C2         -0.0360   -0.7210   -1.2140 ce        1 HC4     -0.147200
      5 C3         -0.0040   -1.1120   -2.4920 cf        1 HC4     -0.181200
      6 C1'        -0.7070   -0.5490   -3.6310 ca        1 HC4     -0.032800
      7 C2'        -0.1950   -0.7690   -4.9210 ca        1 HC4     -0.101000
      8 C3'        -0.8370   -0.2710   -6.0510 ca        1 HC4     -0.192500
      9 C4'        -2.0190    0.4620   -5.8890 ca        1 HC4      0.084100
     10 C5'        -2.5500    0.6920   -4.6120 ca        1 HC4     -0.192500
     11 C6'        -1.8960    0.1870   -3.4930 ca        1 HC4     -0.101000
     12 O4'        -2.6270    0.9320   -7.0400 oh        1 HC4     -0.521100
     13 H2          0.5750   -1.2760   -0.4800 ha        1 HC4      0.097000
     14 H3          0.6420   -1.9700   -2.7640 ha        1 HC4      0.082000
     15 H2'         0.7360   -1.3430   -5.0430 ha        1 HC4      0.162500
     16 H3'        -0.4330   -0.4410   -7.0570 ha        1 HC4      0.123500
     17 H5'        -3.4760    1.2710   -4.4940 ha        1 HC4      0.123500
     18 H6'        -2.3060    0.3670   -2.4780 ha        1 HC4      0.162500
     19 HO4'       -3.3910    1.4560   -6.7650 ho        1 HC4      0.406000
@<TRIPOS>BOND
     1    1    2 1   
     2    1    3 1   
     3    1    4 1   
     4    4    5 2   
     5    4   13 1   
     6    5    6 1   
     7    5   14 1   
     8    6    7 ar  
     9    6   11 ar  
    10    7    8 ar  
    11    7   15 1   
    12    8    9 ar  
    13    8   16 1   
    14    9   10 ar  
    15    9   12 1   
    16   10   11 ar  
    17   10   17 1   
    18   11   18 1   
    19   12   19 1   
@<TRIPOS>SUBSTRUCTURE
     1 HC4         1 TEMP              0 ****  ****    0 ROOT
