@<TRIPOS>MOLECULE
HC5
   43    42     1     0     0
SMALL
bcc


@<TRIPOS>ATOM
      1 CAC        -0.2510    0.2500   -0.4380 c3        1 HC5     -0.094100
      2 CAD         1.1800   -0.1990   -0.2860 c3        1 HC5     -0.079400
      3 CAE         1.7860    0.3110    1.0040 c3        1 HC5     -0.079400
      4 CAF         3.2240   -0.1390    1.1470 c3        1 HC5     -0.079400
      5 CAG         3.8150    0.3590    2.4480 c3        1 HC5     -0.132400
      6 CAH         5.2770    0.0450    2.5380 c         1 HC5      0.642100
      7 OAI         6.1050   -0.0370    1.6290 o         1 HC5     -0.542000
      8 OAK         5.6760   -0.2090    3.8240 os        1 HC5     -0.476900
      9 CAP         7.0610   -0.1130    4.1900 c3        1 HC5      0.174100
     10 CAQ         7.7030    1.2140    3.8400 c3        1 HC5     -0.245400
     11 CAR         9.0400    1.3670    4.6040 c         1 HC5      0.921600
     12 OAL         9.5420    2.5080    4.6910 o         1 HC5     -0.835800
     13 OAS         9.5490    0.3070    5.0960 o         1 HC5     -0.835800
     14 CAO         7.8790   -1.2650    3.5860 c3        1 HC5      0.088800
     15 NAN         8.0030   -2.4940    4.4560 n4        1 HC5     -0.589800
     16 CAT         6.6580   -2.9730    4.8700 c3        1 HC5      0.092767
     17 CAJ         8.6780   -3.5590    3.6560 c3        1 HC5      0.092767
     18 CAM         8.8360   -2.2060    5.6640 c3        1 HC5      0.092767
     19 HAC1       -0.3160    1.3650   -0.4480 hc        1 HC5      0.034700
     20 HAC2       -0.8750   -0.1300    0.4060 hc        1 HC5      0.034700
     21 HAC3       -0.6780   -0.1370   -1.3950 hc        1 HC5      0.034700
     22 HAD1        1.2280   -1.3200   -0.3050 hc        1 HC5      0.040700
     23 HAD2        1.7860    0.1720   -1.1550 hc        1 HC5      0.040700
     24 HAE1        1.1840   -0.0620    1.8750 hc        1 HC5      0.042700
     25 HAE2        1.7370    1.4320    1.0240 hc        1 HC5      0.042700
     26 HAF1        3.2760   -1.2590    1.1130 hc        1 HC5      0.054700
     27 HAF2        3.8340    0.2470    0.2870 hc        1 HC5      0.054700
     28 HAG1        3.2780   -0.0880    3.3260 hc        1 HC5      0.082200
     29 HAG2        3.7150    1.4760    2.5210 hc        1 HC5      0.082200
     30 HAP         6.9990   -0.1820    5.3180 h1        1 HC5      0.091700
     31 HAQ1        7.0200    2.0490    4.1330 hc        1 HC5      0.068700
     32 HAQ2        7.9000    1.2890    2.7420 hc        1 HC5      0.068700
     33 HAO1        8.9370   -0.8830    3.4260 hx        1 HC5      0.127700
     34 HAO2        7.4240   -1.5850    2.6080 hx        1 HC5      0.127700
     35 HAT1        6.1510   -2.1760    5.4770 hx        1 HC5      0.095256
     36 HAT2        6.7630   -3.9060    5.4820 hx        1 HC5      0.095256
     37 HAT3        6.0410   -3.1810    3.9570 hx        1 HC5      0.095256
     38 HAJ1        8.0480   -3.8160    2.7650 hx        1 HC5      0.095256
     39 HAJ2        9.6770   -3.1800    3.3140 hx        1 HC5      0.095256
     40 HAJ3        8.8190   -4.4690    4.2950 hx        1 HC5      0.095256
     41 HAM1        9.8690   -1.8940    5.3370 hx        1 HC5      0.095256
     42 HAM2        8.4080   -1.3290    6.2240 hx        1 HC5      0.095256
     43 HAM3        8.8710   -3.1210    6.3070 hx        1 HC5      0.095256
@<TRIPOS>BOND
     1    1    2 1   
     2    1   19 1   
     3    1   20 1   
     4    1   21 1   
     5    2    3 1   
     6    2   22 1   
     7    2   23 1   
     8    3    4 1   
     9    3   24 1   
    10    3   25 1   
    11    4    5 1   
    12    4   26 1   
    13    4   27 1   
    14    5    6 1   
    15    5   28 1   
    16    5   29 1   
    17    6    7 2   
    18    6    8 1   
    19    8    9 1   
    20    9   10 1   
    21    9   14 1   
    22    9   30 1   
    23   10   11 1   
    24   10   31 1   
    25   10   32 1   
    26   11   12 1   
    27   11   13 1   
    28   14   15 1   
    29   14   33 1   
    30   14   34 1   
    31   15   16 1   
    32   15   17 1   
    33   15   18 1   
    34   16   35 1   
    35   16   36 1   
    36   16   37 1   
    37   17   38 1   
    38   17   39 1   
    39   17   40 1   
    40   18   41 1   
    41   18   42 1   
    42   18   43 1   
@<TRIPOS>SUBSTRUCTURE
     1 HC5         1 TEMP              0 ****  ****    0 ROOT
