@<TRIPOS>MOLECULE
HC5
   43    42     1     0     0
SMALL
bcc


@<TRIPOS>ATOM
      1 CAC        -0.2400    0.2640   -0.4520 c3        1 HC5     -0.094100
      2 CAD         1.1900   -0.1860   -0.2970 c3        1 HC5     -0.079400
      3 CAE         1.7920    0.3200    0.9970 c3        1 HC5     -0.079400
      4 CAF         3.2290   -0.1320    1.1430 c3        1 HC5     -0.079400
      5 CAG         3.8170    0.3620    2.4470 c3        1 HC5     -0.132400
      6 CAH         5.2790    0.0470    2.5400 c         1 HC5      0.642100
      7 OAI         6.1090   -0.0320    1.6340 o         1 HC5     -0.542000
      8 OAK         5.6740   -0.2130    3.8260 os        1 HC5     -0.476900
      9 CAP         7.0570   -0.1190    4.1970 c3        1 HC5      0.174100
     10 CAQ         7.7010    1.2100    3.8550 c3        1 HC5     -0.245400
     11 CAR         9.0350    1.3590    4.6250 c         1 HC5      0.921600
     12 OAL         9.5360    2.5000    4.7190 o         1 HC5     -0.835800
     13 OAS         9.5420    0.2970    5.1130 o         1 HC5     -0.835800
     14 CAO         7.8770   -1.2680    3.5910 c3        1 HC5      0.088800
     15 NAN         7.9980   -2.5010    4.4550 n4        1 HC5     -0.589800
     16 CAT         6.6510   -2.9820    4.8630 c3        1 HC5      0.092767
     17 CAJ         8.6750   -3.5620    3.6540 c3        1 HC5      0.092767
     18 CAM         8.8270   -2.2190    5.6670 c3        1 HC5      0.092767
     19 HAC1       -0.8680   -0.1170    0.3900 hc        1 HC5      0.034700
     20 HAC2       -0.6650   -0.1190   -1.4110 hc        1 HC5      0.034700
     21 HAC3       -0.3040    1.3790   -0.4590 hc        1 HC5      0.034700
     22 HAD1        1.7990    0.1870   -1.1630 hc        1 HC5      0.040700
     23 HAD2        1.2370   -1.3070   -0.3190 hc        1 HC5      0.040700
     24 HAE1        1.7450    1.4410    1.0200 hc        1 HC5      0.042700
     25 HAE2        1.1880   -0.0550    1.8650 hc        1 HC5      0.042700
     26 HAF1        3.8430    0.2560    0.2860 hc        1 HC5      0.054700
     27 HAF2        3.2800   -1.2520    1.1050 hc        1 HC5      0.054700
     28 HAG1        3.2780   -0.0880    3.3220 hc        1 HC5      0.082200
     29 HAG2        3.7170    1.4790    2.5230 hc        1 HC5      0.082200
     30 HAP         6.9920   -0.1920    5.3250 h1        1 HC5      0.091700
     31 HAQ1        7.9010    1.2900    2.7580 hc        1 HC5      0.068700
     32 HAQ2        7.0160    2.0430    4.1490 hc        1 HC5      0.068700
     33 HAO1        7.4250   -1.5830    2.6100 hx        1 HC5      0.127700
     34 HAO2        8.9360   -0.8860    3.4360 hx        1 HC5      0.127700
     35 HAT1        6.7550   -3.9170    5.4720 hx        1 HC5      0.095256
     36 HAT2        6.1420   -2.1870    5.4710 hx        1 HC5      0.095256
     37 HAT3        6.0370   -3.1860    3.9470 hx        1 HC5      0.095256
     38 HAJ1        8.8150   -4.4750    4.2890 hx        1 HC5      0.095256
     39 HAJ2        8.0490   -3.8150    2.7590 hx        1 HC5      0.095256
     40 HAJ3        9.6760   -3.1810    3.3160 hx        1 HC5      0.095256
     41 HAM1        8.8600   -3.1360    6.3070 hx        1 HC5      0.095256
     42 HAM2        9.8610   -1.9050    5.3460 hx        1 HC5      0.095256
     43 HAM3        8.3970   -1.3450    6.2300 hx        1 HC5      0.095256
@<TRIPOS>BOND
     1    1    2 1   
     2    1   19 1   
     3    1   20 1   
     4    1   21 1   
     5    2    3 1   
     6    2   22 1   
     7    2   23 1   
     8    3    4 1   
     9    3   24 1   
    10    3   25 1   
    11    4    5 1   
    12    4   26 1   
    13    4   27 1   
    14    5    6 1   
    15    5   28 1   
    16    5   29 1   
    17    6    7 2   
    18    6    8 1   
    19    8    9 1   
    20    9   10 1   
    21    9   14 1   
    22    9   30 1   
    23   10   11 1   
    24   10   31 1   
    25   10   32 1   
    26   11   12 1   
    27   11   13 1   
    28   14   15 1   
    29   14   33 1   
    30   14   34 1   
    31   15   16 1   
    32   15   17 1   
    33   15   18 1   
    34   16   35 1   
    35   16   36 1   
    36   16   37 1   
    37   17   38 1   
    38   17   39 1   
    39   17   40 1   
    40   18   41 1   
    41   18   42 1   
    42   18   43 1   
@<TRIPOS>SUBSTRUCTURE
     1 HC5         1 TEMP              0 ****  ****    0 ROOT
