@<TRIPOS>MOLECULE
HC5
   43    42     1     0     0
SMALL
bcc


@<TRIPOS>ATOM
      1 CAC         7.1790    0.1710   -0.0780 c3        1 HC5     -0.094100
      2 CAD         5.8230    0.4730   -0.6610 c3        1 HC5     -0.079400
      3 CAE         4.7120   -0.0860    0.2030 c3        1 HC5     -0.079400
      4 CAF         3.3540    0.2160   -0.3920 c3        1 HC5     -0.079400
      5 CAG         2.2490   -0.3290    0.4880 c3        1 HC5     -0.132400
      6 CAH         0.9070   -0.1660   -0.1570 c         1 HC5      0.642100
      7 OAI         0.6210   -0.1800   -1.3550 o         1 HC5     -0.542000
      8 OAK        -0.0860    0.0620    0.7600 os        1 HC5     -0.476900
      9 CAP        -1.4600   -0.1710    0.4180 c3        1 HC5      0.174100
     10 CAQ        -1.7380   -1.5610   -0.1170 c3        1 HC5     -0.245400
     11 CAR        -3.2600   -1.8400   -0.0840 c         1 HC5      0.921600
     12 OAL        -3.6440   -3.0260   -0.1800 o         1 HC5     -0.835800
     13 OAS        -4.0300   -0.8320    0.0360 o         1 HC5     -0.835800
     14 CAO        -1.9760    0.8840   -0.5740 c3        1 HC5      0.088800
     15 NAN        -2.6080    2.1040    0.0520 n4        1 HC5     -0.589800
     16 CAT        -1.6790    2.7240    1.0340 c3        1 HC5      0.092767
     17 CAJ        -2.8960    3.0840   -1.0360 c3        1 HC5      0.092767
     18 CAM        -3.8950    1.7480    0.7240 c3        1 HC5      0.092767
     19 HAC1        7.9830    0.5920   -0.7300 hc        1 HC5      0.034700
     20 HAC2        7.2800    0.6180    0.9400 hc        1 HC5      0.034700
     21 HAC3        7.3360   -0.9320    0.0070 hc        1 HC5      0.034700
     22 HAD1        5.6940    1.5830   -0.7630 hc        1 HC5      0.040700
     23 HAD2        5.7490    0.0350   -1.6920 hc        1 HC5      0.040700
     24 HAE1        4.8400   -1.1960    0.3060 hc        1 HC5      0.042700
     25 HAE2        4.7800    0.3520    1.2340 hc        1 HC5      0.042700
     26 HAF1        3.2300    1.3240   -0.5100 hc        1 HC5      0.054700
     27 HAF2        3.2730   -0.2370   -1.4160 hc        1 HC5      0.054700
     28 HAG1        2.3970   -1.4300    0.6640 hc        1 HC5      0.082200
     29 HAG2        2.2520    0.1770    1.4890 hc        1 HC5      0.082200
     30 HAP        -1.9600   -0.0820    1.4300 h1        1 HC5      0.091700
     31 HAQ1       -1.3710   -1.6690   -1.1670 hc        1 HC5      0.068700
     32 HAQ2       -1.2160   -2.3180    0.5190 hc        1 HC5      0.068700
     33 HAO1       -1.1310    1.2360   -1.2290 hx        1 HC5      0.127700
     34 HAO2       -2.7870    0.3940   -1.2000 hx        1 HC5      0.127700
     35 HAT1       -0.7160    2.9820    0.5200 hx        1 HC5      0.095256
     36 HAT2       -2.1450    3.6490    1.4620 hx        1 HC5      0.095256
     37 HAT3       -1.4650    1.9900    1.8570 hx        1 HC5      0.095256
     38 HAJ1       -3.5680    2.6000   -1.7940 hx        1 HC5      0.095256
     39 HAJ2       -3.4060    3.9830   -0.6010 hx        1 HC5      0.095256
     40 HAJ3       -1.9370    3.3930   -1.5280 hx        1 HC5      0.095256
     41 HAM1       -3.7210    0.9270    1.4740 hx        1 HC5      0.095256
     42 HAM2       -4.3140    2.6620    1.2140 hx        1 HC5      0.095256
     43 HAM3       -4.6090    1.3270   -0.0400 hx        1 HC5      0.095256
@<TRIPOS>BOND
     1    1    2 1   
     2    1   19 1   
     3    1   20 1   
     4    1   21 1   
     5    2    3 1   
     6    2   22 1   
     7    2   23 1   
     8    3    4 1   
     9    3   24 1   
    10    3   25 1   
    11    4    5 1   
    12    4   26 1   
    13    4   27 1   
    14    5    6 1   
    15    5   28 1   
    16    5   29 1   
    17    6    7 2   
    18    6    8 1   
    19    8    9 1   
    20    9   10 1   
    21    9   14 1   
    22    9   30 1   
    23   10   11 1   
    24   10   31 1   
    25   10   32 1   
    26   11   12 1   
    27   11   13 1   
    28   14   15 1   
    29   14   33 1   
    30   14   34 1   
    31   15   16 1   
    32   15   17 1   
    33   15   18 1   
    34   16   35 1   
    35   16   36 1   
    36   16   37 1   
    37   17   38 1   
    38   17   39 1   
    39   17   40 1   
    40   18   41 1   
    41   18   42 1   
    42   18   43 1   
@<TRIPOS>SUBSTRUCTURE
     1 HC5         1 TEMP              0 ****  ****    0 ROOT
