@<TRIPOS>MOLECULE
HC5
   43    42     1     0     0
SMALL
bcc


@<TRIPOS>ATOM
      1 CAC        -0.2590    0.1600   -0.4460 c3        1 HC5     -0.094100
      2 CAD         1.1670   -0.2990   -0.2810 c3        1 HC5     -0.079400
      3 CAE         1.7870    0.2670    0.9790 c3        1 HC5     -0.079400
      4 CAF         3.2200   -0.1940    1.1360 c3        1 HC5     -0.079400
      5 CAG         3.8260    0.3600    2.4070 c3        1 HC5     -0.132400
      6 CAH         5.2850    0.0330    2.5040 c         1 HC5      0.642100
      7 OAI         6.1060   -0.1000    1.5950 o         1 HC5     -0.542000
      8 OAK         5.6880   -0.1680    3.7980 os        1 HC5     -0.476900
      9 CAP         7.0760   -0.0720    4.1520 c3        1 HC5      0.174100
     10 CAQ         7.7320    1.2310    3.7390 c3        1 HC5     -0.245400
     11 CAR         9.0750    1.4010    4.4890 c         1 HC5      0.921600
     12 OAL         9.5900    2.5390    4.5230 o         1 HC5     -0.835800
     13 OAS         9.5740    0.3580    5.0250 o         1 HC5     -0.835800
     14 CAO         7.8770   -1.2600    3.5960 c3        1 HC5      0.088800
     15 NAN         7.9910   -2.4500    4.5200 n4        1 HC5     -0.589800
     16 CAT         6.6430   -2.8940    4.9630 c3        1 HC5      0.092767
     17 CAJ         8.6490   -3.5570    3.7660 c3        1 HC5      0.092767
     18 CAM         8.8340   -2.1180    5.7090 c3        1 HC5      0.092767
     19 HAC1       -0.6980   -0.2680   -1.3800 hc        1 HC5      0.034700
     20 HAC2       -0.8830   -0.1690    0.4200 hc        1 HC5      0.034700
     21 HAC3       -0.3100    1.2740   -0.5110 hc        1 HC5      0.034700
     22 HAD1        1.2000   -1.4200   -0.2440 hc        1 HC5      0.040700
     23 HAD2        1.7720    0.0210   -1.1700 hc        1 HC5      0.040700
     24 HAE1        1.1870   -0.0540    1.8710 hc        1 HC5      0.042700
     25 HAE2        1.7530    1.3880    0.9430 hc        1 HC5      0.042700
     26 HAF1        3.8300    0.1410    0.2540 hc        1 HC5      0.054700
     27 HAF2        3.2580   -1.3140    1.1570 hc        1 HC5      0.054700
     28 HAG1        3.2900   -0.0370    3.3090 hc        1 HC5      0.082200
     29 HAG2        3.7400    1.4810    2.4260 hc        1 HC5      0.082200
     30 HAP         7.0200   -0.0890    5.2820 h1        1 HC5      0.091700
     31 HAQ1        7.0600    2.0860    3.9970 hc        1 HC5      0.068700
     32 HAQ2        7.9240    1.2530    2.6380 hc        1 HC5      0.068700
     33 HAO1        8.9390   -0.8980    3.4140 hx        1 HC5      0.127700
     34 HAO2        7.4130   -1.6180    2.6360 hx        1 HC5      0.127700
     35 HAT1        6.1480   -2.0630    5.5350 hx        1 HC5      0.095256
     36 HAT2        6.7400   -3.7990    5.6150 hx        1 HC5      0.095256
     37 HAT3        6.0180   -3.1350    4.0630 hx        1 HC5      0.095256
     38 HAJ1        8.7840   -4.4390    4.4440 hx        1 HC5      0.095256
     39 HAJ2        9.6510   -3.2060    3.4010 hx        1 HC5      0.095256
     40 HAJ3        8.0120   -3.8470    2.8900 hx        1 HC5      0.095256
     41 HAM1        9.8690   -1.8330    5.3640 hx        1 HC5      0.095256
     42 HAM2        8.8620   -3.0030    6.3930 hx        1 HC5      0.095256
     43 HAM3        8.4190   -1.2120    6.2320 hx        1 HC5      0.095256
@<TRIPOS>BOND
     1    1    2 1   
     2    1   19 1   
     3    1   20 1   
     4    1   21 1   
     5    2    3 1   
     6    2   22 1   
     7    2   23 1   
     8    3    4 1   
     9    3   24 1   
    10    3   25 1   
    11    4    5 1   
    12    4   26 1   
    13    4   27 1   
    14    5    6 1   
    15    5   28 1   
    16    5   29 1   
    17    6    7 2   
    18    6    8 1   
    19    8    9 1   
    20    9   10 1   
    21    9   14 1   
    22    9   30 1   
    23   10   11 1   
    24   10   31 1   
    25   10   32 1   
    26   11   12 1   
    27   11   13 1   
    28   14   15 1   
    29   14   33 1   
    30   14   34 1   
    31   15   16 1   
    32   15   17 1   
    33   15   18 1   
    34   16   35 1   
    35   16   36 1   
    36   16   37 1   
    37   17   38 1   
    38   17   39 1   
    39   17   40 1   
    40   18   41 1   
    41   18   42 1   
    42   18   43 1   
@<TRIPOS>SUBSTRUCTURE
     1 HC5         1 TEMP              0 ****  ****    0 ROOT
