@<TRIPOS>MOLECULE
HC6
   64    67     1     0     0
SMALL
bcc


@<TRIPOS>ATOM
      1 CAC         0.1230   -0.0090    0.0950 c3        1 HC6      0.097800
      2 NAA         1.6220    0.0410    0.1990 n4        1 HC6     -0.596800
      3 CBA         2.2580   -0.6520   -0.9610 c3        1 HC6      0.087600
      4 CBB         2.0570    1.4730    0.1940 c3        1 HC6      0.087600
      5 CAB         2.0590   -0.5960    1.4930 c3        1 HC6      0.076800
      6 CAF         1.4200   -1.9650    1.7320 c3        1 HC6      0.114400
      7 OAE         0.0030   -1.8760    1.6970 os        1 HC6     -0.412600
      8 CAD        -0.5080   -1.3800    0.4650 c3        1 HC6      0.395900
      9 OBC        -0.0980   -2.3070   -0.5120 oh        1 HC6     -0.632800
     10 CAG        -2.0020   -1.2380    0.5830 ca        1 HC6     -0.150300
     11 CAL        -2.7920   -1.3650   -0.5660 ca        1 HC6     -0.093000
     12 CAK        -4.1770   -1.2720   -0.4730 ca        1 HC6     -0.112500
     13 CAH        -2.6060   -1.0120    1.8230 ca        1 HC6     -0.093000
     14 CAI        -3.9930   -0.9180    1.9140 ca        1 HC6     -0.112500
     15 CAJ        -4.7920   -1.0540    0.7700 cp        1 HC6     -0.017000
     16 CAM        -6.2500   -0.9980    0.8780 cp        1 HC6     -0.017000
     17 CAR        -6.8670   -0.0620    1.7220 ca        1 HC6     -0.112500
     18 CAQ        -8.2530   -0.0370    1.8540 ca        1 HC6     -0.093000
     19 CAN        -7.0480   -1.8990    0.1570 ca        1 HC6     -0.112500
     20 CAO        -8.4350   -1.8770    0.2890 ca        1 HC6     -0.093000
     21 CAP        -9.0400   -0.9480    1.1390 ca        1 HC6     -0.150300
     22 CAS       -10.5340   -0.9280    1.3250 c3        1 HC6      0.395900
     23 OBD       -10.9420   -0.5930    2.6300 oh        1 HC6     -0.632800
     24 CAX       -11.1710    0.1090    0.3600 c3        1 HC6      0.097800
     25 OAT       -11.0410   -2.2380    1.0930 os        1 HC6     -0.412600
     26 CAU       -12.4570   -2.3200    1.1540 c3        1 HC6      0.114400
     27 CAV       -13.1020   -1.3950    0.1200 c3        1 HC6      0.076800
     28 NAW       -12.6700    0.0420    0.2650 n4        1 HC6     -0.596800
     29 CAZ       -13.3060    0.6560    1.4700 c3        1 HC6      0.087600
     30 CAY       -13.1110    0.8030   -0.9450 c3        1 HC6      0.087600
     31 HAC        -0.3010    0.7550    0.8070 hx        1 HC6      0.115700
     32 HACA       -0.1700    0.2450   -0.9620 hx        1 HC6      0.115700
     33 HBA         1.9420   -1.7310   -0.9800 hx        1 HC6      0.105533
     34 HBAA        1.9310   -0.1550   -1.9130 hx        1 HC6      0.105533
     35 HBAB        3.3740   -0.5840   -0.8650 hx        1 HC6      0.105533
     36 HBB         1.6010    2.0130    1.0650 hx        1 HC6      0.105533
     37 HBBA        1.7240    1.9550   -0.7640 hx        1 HC6      0.105533
     38 HBBB        3.1760    1.5170    0.2700 hx        1 HC6      0.105533
     39 HAB         3.1800   -0.6990    1.4780 hx        1 HC6      0.109700
     40 HABA        1.7640    0.1010    2.3290 hx        1 HC6      0.109700
     41 HAF         1.7790   -2.7240    0.9860 h1        1 HC6      0.101700
     42 HAFA        1.6510   -2.3100    2.7780 h1        1 HC6      0.101700
     43 HAL        -2.3160   -1.5510   -1.5430 ha        1 HC6      0.155000
     44 HAK        -4.7930   -1.3730   -1.3810 ha        1 HC6      0.153500
     45 HAH        -1.9870   -0.9350    2.7310 ha        1 HC6      0.155000
     46 HAI        -4.4630   -0.7560    2.8970 ha        1 HC6      0.153500
     47 HAR        -6.2530    0.6560    2.2880 ha        1 HC6      0.153500
     48 HAQ        -8.7300    0.6900    2.5310 ha        1 HC6      0.155000
     49 HAN        -6.5760   -2.6450   -0.5020 ha        1 HC6      0.153500
     50 HAO        -9.0520   -2.6090   -0.2570 ha        1 HC6      0.155000
     51 HAX       -10.7490   -0.0870   -0.6670 hx        1 HC6      0.115700
     52 HAXA      -10.8820    1.1410    0.7040 hx        1 HC6      0.115700
     53 HAU       -12.6850   -3.3910    0.8920 h1        1 HC6      0.101700
     54 HAUA      -12.8140   -2.0920    2.1930 h1        1 HC6      0.101700
     55 HAV       -12.8080   -1.7340   -0.9140 hx        1 HC6      0.109700
     56 HAVA      -14.2230   -1.4400    0.2180 hx        1 HC6      0.109700
     57 HAZ       -12.9850    0.1010    2.3930 hx        1 HC6      0.105533
     58 HAZA      -12.9830    1.7280    1.5520 hx        1 HC6      0.105533
     59 HAZB      -14.4220    0.6060    1.3630 hx        1 HC6      0.105533
     60 HAY       -12.7820    1.8720   -0.8470 hx        1 HC6      0.105533
     61 HAYA      -12.6550    0.3530   -1.8660 hx        1 HC6      0.105533
     62 HAYB      -14.2300    0.7580   -1.0200 hx        1 HC6      0.105533
     63 H33        -0.6060   -3.1230   -0.3890 ho        1 HC6      0.458000
     64 H34       -10.4310   -1.1280    3.2550 ho        1 HC6      0.458000
@<TRIPOS>BOND
     1    1    2 1   
     2    1    8 1   
     3    1   31 1   
     4    1   32 1   
     5    2    3 1   
     6    2    4 1   
     7    2    5 1   
     8    3   33 1   
     9    3   34 1   
    10    3   35 1   
    11    4   36 1   
    12    4   37 1   
    13    4   38 1   
    14    5    6 1   
    15    5   39 1   
    16    5   40 1   
    17    6    7 1   
    18    6   41 1   
    19    6   42 1   
    20    7    8 1   
    21    8    9 1   
    22    8   10 1   
    23    9   63 1   
    24   10   11 ar  
    25   10   13 ar  
    26   11   12 ar  
    27   11   43 1   
    28   12   15 ar  
    29   12   44 1   
    30   13   14 ar  
    31   13   45 1   
    32   14   15 ar  
    33   14   46 1   
    34   15   16 1   
    35   16   17 ar  
    36   16   19 ar  
    37   17   18 ar  
    38   17   47 1   
    39   18   21 ar  
    40   18   48 1   
    41   19   20 ar  
    42   19   49 1   
    43   20   21 ar  
    44   20   50 1   
    45   21   22 1   
    46   22   23 1   
    47   22   24 1   
    48   22   25 1   
    49   23   64 1   
    50   24   28 1   
    51   24   51 1   
    52   24   52 1   
    53   25   26 1   
    54   26   27 1   
    55   26   53 1   
    56   26   54 1   
    57   27   28 1   
    58   27   55 1   
    59   27   56 1   
    60   28   29 1   
    61   28   30 1   
    62   29   57 1   
    63   29   58 1   
    64   29   59 1   
    65   30   60 1   
    66   30   61 1   
    67   30   62 1   
@<TRIPOS>SUBSTRUCTURE
     1 HC6         1 TEMP              0 ****  ****    0 ROOT
