@<TRIPOS>MOLECULE
HC6
   64    67     1     0     0
SMALL
bcc


@<TRIPOS>ATOM
      1 CAC        -5.6490    0.1700   -1.0230 c3        1 HC6      0.097800
      2 NAA        -7.1460    0.0350   -1.0260 n4        1 HC6     -0.596800
      3 CBA        -7.8000    1.3670   -0.8520 c3        1 HC6      0.087600
      4 CBB        -7.5740   -0.5360   -2.3410 c3        1 HC6      0.087600
      5 CAB        -7.5700   -0.9040    0.0740 c3        1 HC6      0.076800
      6 CAF        -6.9330   -0.5690    1.4240 c3        1 HC6      0.114400
      7 OAE        -5.5170   -0.5540    1.3270 os        1 HC6     -0.412600
      8 CAD        -5.0190    0.3860    0.3810 c3        1 HC6      0.395900
      9 OBC        -5.4450    1.6450    0.8430 oh        1 HC6     -0.632800
     10 CAG        -3.5230    0.2410    0.2970 ca        1 HC6     -0.150300
     11 CAL        -2.7480    1.3550   -0.0460 ca        1 HC6     -0.093000
     12 CAK        -1.3610    1.2510   -0.0950 ca        1 HC6     -0.112500
     13 CAH        -2.9030   -0.9790    0.5830 ca        1 HC6     -0.093000
     14 CAI        -1.5140   -1.0820    0.5310 ca        1 HC6     -0.112500
     15 CAJ        -0.7300    0.0320    0.2000 cp        1 HC6     -0.017000
     16 CAM         0.7300   -0.0700    0.1900 cp        1 HC6     -0.017000
     17 CAR         1.3610   -1.2090   -0.3330 ca        1 HC6     -0.112500
     18 CAQ         2.7480   -1.3210   -0.3040 ca        1 HC6     -0.093000
     19 CAN         1.5140    0.9610    0.7290 ca        1 HC6     -0.112500
     20 CAO         2.9030    0.8500    0.7590 ca        1 HC6     -0.093000
     21 CAP         3.5230   -0.2930    0.2450 ca        1 HC6     -0.150300
     22 CAS         5.0190   -0.4510    0.2990 c3        1 HC6      0.395900
     23 OBD         5.4450   -1.7760    0.5120 oh        1 HC6     -0.632800
     24 CAX         5.6490    0.0290   -1.0370 c3        1 HC6      0.097800
     25 OAT         5.5170    0.2910    1.4080 os        1 HC6     -0.412600
     26 CAU         6.9340    0.2860    1.5060 c3        1 HC6      0.114400
     27 CAV         7.5700    0.8730    0.2440 c3        1 HC6      0.076800
     28 NAW         7.1460    0.1630   -1.0140 n4        1 HC6     -0.596800
     29 CAZ         7.8000   -1.1780   -1.0990 c3        1 HC6      0.087600
     30 CAY         7.5740    0.9740   -2.1960 c3        1 HC6      0.087600
     31 HAC        -5.2130   -0.7810   -1.4420 hx        1 HC6      0.115700
     32 HACA       -5.3680    1.0420   -1.6770 hx        1 HC6      0.115700
     33 HBA        -7.4820    2.0460   -1.6870 hx        1 HC6      0.105533
     34 HBAA       -8.9140    1.2370   -0.8750 hx        1 HC6      0.105533
     35 HBAB       -7.4880    1.8180    0.1300 hx        1 HC6      0.105533
     36 HBB        -7.1060   -1.5440   -2.4900 hx        1 HC6      0.105533
     37 HBBA       -8.6930   -0.6380   -2.3500 hx        1 HC6      0.105533
     38 HBBB       -7.2520    0.1550   -3.1650 hx        1 HC6      0.105533
     39 HAB        -8.6920   -0.8640    0.1630 hx        1 HC6      0.109700
     40 HABA       -7.2610   -1.9440   -0.2320 hx        1 HC6      0.109700
     41 HAF        -7.3050    0.4120    1.8240 h1        1 HC6      0.101700
     42 HAFA       -7.1530   -1.3940    2.1570 h1        1 HC6      0.101700
     43 HAL        -3.2370    2.3190   -0.2640 ha        1 HC6      0.155000
     44 HAK        -0.7570    2.1310   -0.3650 ha        1 HC6      0.153500
     45 HAH        -3.5100   -1.8510    0.8740 ha        1 HC6      0.155000
     46 HAI        -1.0310   -2.0420    0.7740 ha        1 HC6      0.153500
     47 HAR         0.7570   -2.0220   -0.7660 ha        1 HC6      0.153500
     48 HAQ         3.2370   -2.2250   -0.7030 ha        1 HC6      0.155000
     49 HAN         1.0310    1.8570    1.1500 ha        1 HC6      0.153500
     50 HAO         3.5100    1.6500    1.2120 ha        1 HC6      0.155000
     51 HAX         5.3670   -0.7010   -1.8460 hx        1 HC6      0.115700
     52 HAXA        5.2120    1.0430   -1.2660 hx        1 HC6      0.115700
     53 HAU         7.1540    0.9560    2.3830 h1        1 HC6      0.101700
     54 HAUA        7.3050   -0.7530    1.7100 h1        1 HC6      0.101700
     55 HAV         7.2610    1.9540    0.1430 hx        1 HC6      0.109700
     56 HAVA        8.6920    0.8170    0.3240 hx        1 HC6      0.109700
     57 HAZ         7.4820   -1.6850   -2.0480 hx        1 HC6      0.105533
     58 HAZA        8.9140   -1.0460   -1.0960 hx        1 HC6      0.105533
     59 HAZB        7.4880   -1.8080   -0.2210 hx        1 HC6      0.105533
     60 HAY         7.1050    1.9930   -2.1490 hx        1 HC6      0.105533
     61 HAYA        8.6920    1.0770   -2.1860 hx        1 HC6      0.105533
     62 HAYB        7.2520    0.4540   -3.1370 hx        1 HC6      0.105533
     63 H33        -4.9390    1.8630    1.6390 ho        1 HC6      0.458000
     64 H34         4.9390   -2.1420    1.2520 ho        1 HC6      0.458000
@<TRIPOS>BOND
     1    1    2 1   
     2    1    8 1   
     3    1   31 1   
     4    1   32 1   
     5    2    3 1   
     6    2    4 1   
     7    2    5 1   
     8    3   33 1   
     9    3   34 1   
    10    3   35 1   
    11    4   36 1   
    12    4   37 1   
    13    4   38 1   
    14    5    6 1   
    15    5   39 1   
    16    5   40 1   
    17    6    7 1   
    18    6   41 1   
    19    6   42 1   
    20    7    8 1   
    21    8    9 1   
    22    8   10 1   
    23    9   63 1   
    24   10   11 ar  
    25   10   13 ar  
    26   11   12 ar  
    27   11   43 1   
    28   12   15 ar  
    29   12   44 1   
    30   13   14 ar  
    31   13   45 1   
    32   14   15 ar  
    33   14   46 1   
    34   15   16 1   
    35   16   17 ar  
    36   16   19 ar  
    37   17   18 ar  
    38   17   47 1   
    39   18   21 ar  
    40   18   48 1   
    41   19   20 ar  
    42   19   49 1   
    43   20   21 ar  
    44   20   50 1   
    45   21   22 1   
    46   22   23 1   
    47   22   24 1   
    48   22   25 1   
    49   23   64 1   
    50   24   28 1   
    51   24   51 1   
    52   24   52 1   
    53   25   26 1   
    54   26   27 1   
    55   26   53 1   
    56   26   54 1   
    57   27   28 1   
    58   27   55 1   
    59   27   56 1   
    60   28   29 1   
    61   28   30 1   
    62   29   57 1   
    63   29   58 1   
    64   29   59 1   
    65   30   60 1   
    66   30   61 1   
    67   30   62 1   
@<TRIPOS>SUBSTRUCTURE
     1 HC6         1 TEMP              0 ****  ****    0 ROOT
