@<TRIPOS>MOLECULE
HC6
   64    61     1     0     0
SMALL
bcc


@<TRIPOS>ATOM
      1 CAC        -2.1100    4.7950    3.2220 c3        1 HC6     -0.153000
      2 NAA        -2.9400    4.9460    2.0900 n4        1 HC6      0.036000
      3 CBA        -2.9540    3.6910    1.3500 c3        1 HC6     -0.188500
      4 CBB        -4.2880    5.2390    2.5290 c3        1 HC6     -0.188500
      5 CAB        -2.5000    5.9800    1.2350 c3        1 HC6     -0.162000
      6 CAF        -0.9970    5.8400    0.8580 c3        1 HC6     -0.032000
      7 OAE        -0.1770    5.6860    1.9800 os        1 HC6     -0.273000
      8 CAD        -0.6200    4.6520    2.8460 c3        1 HC6      0.251000
      9 OBC         0.1660    4.6910    4.0580 oh        1 HC6     -0.303000
     10 CAG        -0.4160    3.3090    2.1770 c2        1 HC6     -0.170000
     11 CAL        -0.8500    2.1490    2.8270 c2        1 HC6     -0.103000
     12 CAK        -0.5180    0.9010    2.3230 c1        1 HC6     -0.111000
     13 CAH         0.3520    3.2120    1.0180 c1        1 HC6     -0.106000
     14 CAI         0.6860    1.9660    0.5110 c1        1 HC6     -0.113500
     15 CAJ         0.2460    0.7970    1.1700 c1        1 HC6     -0.018500
     16 CAM         0.4250   -0.4550    0.5660 c1        1 HC6     -0.018500
     17 CAR         1.4780   -1.2740    0.9630 c1        1 HC6     -0.097000
     18 CAQ         1.7310   -2.4630    0.2810 c1        1 HC6     -0.097000
     19 CAN        -0.3740   -0.8220   -0.5080 c1        1 HC6     -0.113500
     20 CAO        -0.1290   -1.9950   -1.1840 c1        1 HC6     -0.102000
     21 CAP         0.9320   -2.8250   -0.7890 c1        1 HC6     -0.143000
     22 CAS         1.2080   -4.0870   -1.5270 c3        1 HC6      0.247000
     23 OBD         0.0110   -4.5670   -2.0560 oh        1 HC6     -0.362000
     24 CAX         2.2080   -3.7760   -2.7290 c3        1 HC6     -0.141000
     25 OAT         1.7270   -5.0580   -0.6040 os        1 HC6     -0.272000
     26 CAU         2.7000   -5.7690   -1.1330 c3        1 HC6     -0.036000
     27 CAV         2.7350   -6.2350   -2.4400 c3        1 HC6     -0.161000
     28 NAW         2.2240   -5.2650   -3.3490 n4        1 HC6      0.036000
     29 CAZ         0.8830   -5.6310   -3.7160 c3        1 HC6     -0.188000
     30 CAY         3.0290   -5.2620   -4.5270 c3        1 HC6     -0.188000
     31 HAC        -2.3900    4.0050    3.7120 hx        1 HC6      0.163000
     32 HACA       -2.2180    5.6020    3.8160 hx        1 HC6      0.163000
     33 HBA        -2.0890    3.5660    0.8980 hx        1 HC6      0.143833
     34 HBAA       -3.6470    3.7110    0.7070 hx        1 HC6      0.143833
     35 HBAB       -3.1050    2.9560    1.9660 hx        1 HC6      0.143833
     36 HBB        -4.8410    5.3230    1.7890 hx        1 HC6      0.143833
     37 HBBA       -4.2910    6.0930    3.0470 hx        1 HC6      0.143833
     38 HBBB       -4.6180    4.4940    3.1100 hx        1 HC6      0.143833
     39 HAB        -2.6390    6.8670    1.7010 hx        1 HC6      0.155500
     40 HABA       -3.0490    5.9650    0.3900 hx        1 HC6      0.155500
     41 HAF        -0.8790    4.9960    0.2250 h1        1 HC6      0.133000
     42 HAFA       -0.7120    6.6610    0.3630 h1        1 HC6      0.133000
     43 HAL        -1.3640    2.2160    3.6020 ha        1 HC6      0.150000
     44 HAK        -0.8170    0.1130    2.7710 ha        1 HC6      0.156000
     45 HAH         0.6770    4.0760    0.5330 ha        1 HC6      0.151000
     46 HAI         1.2350    1.8940   -0.3190 ha        1 HC6      0.151500
     47 HAR         2.0280   -1.0200    1.7090 ha        1 HC6      0.155000
     48 HAQ         2.4810   -3.0510    0.5620 ha        1 HC6      0.155000
     49 HAN        -1.1280   -0.2360   -0.7870 ha        1 HC6      0.151500
     50 HAO        -0.6810   -2.2440   -1.9210 ha        1 HC6      0.152000
     51 HAX         1.8170   -3.0910   -3.3830 hx        1 HC6      0.157500
     52 HAXA        3.0870   -3.5150   -2.4050 hx        1 HC6      0.157500
     53 HAU         2.8040   -6.5620   -0.5560 h1        1 HC6      0.132000
     54 HAUA        3.5430   -5.2100   -1.0180 h1        1 HC6      0.132000
     55 HAV         2.1680   -7.0910   -2.5070 hx        1 HC6      0.161500
     56 HAVA        3.7320   -6.4620   -2.7000 hx        1 HC6      0.161500
     57 HAZ         0.9010   -6.1440   -4.5170 hx        1 HC6      0.145000
     58 HAZA        0.3820   -4.8630   -3.8540 hx        1 HC6      0.145000
     59 HAZB        0.4700   -6.1730   -2.9820 hx        1 HC6      0.145000
     60 HAY         3.9070   -4.8300   -4.3300 hx        1 HC6      0.145000
     61 HAYA        3.1820   -6.2200   -4.8380 hx        1 HC6      0.145000
     62 HAYB        2.5590   -4.7500   -5.2510 hx        1 HC6      0.145000
     63 H33         0.1200    5.4900    4.4120 ho        1 HC6      0.259000
     64 H34        -0.4900   -4.9330   -1.3880 ho        1 HC6      0.259000
@<TRIPOS>BOND
     1    1    2 1   
     2    1    8 1   
     3    1   31 1   
     4    1   32 1   
     5    2    3 1   
     6    2    4 1   
     7    2    5 1   
     8    3   33 1   
     9    3   34 1   
    10    3   35 1   
    11    4   36 1   
    12    4   37 1   
    13    4   38 1   
    14    5    6 1   
    15    5   39 1   
    16    5   40 1   
    17    6    7 1   
    18    6   41 1   
    19    6   42 1   
    20    7    8 1   
    21    8    9 1   
    22    8   10 1   
    23    9   63 1   
    24   10   11 1   
    25   10   13 1   
    26   11   12 1   
    27   11   43 1   
    28   12   44 1   
    29   13   45 1   
    30   14   15 1   
    31   14   46 1   
    32   16   19 1   
    33   17   18 1   
    34   17   47 1   
    35   18   48 1   
    36   19   49 1   
    37   20   21 1   
    38   20   50 1   
    39   21   22 1   
    40   22   23 1   
    41   22   24 1   
    42   22   25 1   
    43   23   64 1   
    44   24   28 1   
    45   24   51 1   
    46   24   52 1   
    47   25   26 1   
    48   26   27 1   
    49   26   53 1   
    50   26   54 1   
    51   27   28 1   
    52   27   55 1   
    53   27   56 1   
    54   28   29 1   
    55   28   30 1   
    56   29   57 1   
    57   29   58 1   
    58   29   59 1   
    59   30   60 1   
    60   30   61 1   
    61   30   62 1   
@<TRIPOS>SUBSTRUCTURE
     1 HC6         1 TEMP              0 ****  ****    0 ROOT
