@<TRIPOS>MOLECULE
HC6
   64    67     1     0     0
SMALL
bcc


@<TRIPOS>ATOM
      1 CAC         0.1230   -0.0170    0.0820 c3        1 HC6      0.097800
      2 NAA         1.6220    0.0320    0.1830 n4        1 HC6     -0.596800
      3 CBA         2.2550   -0.6650   -0.9780 c3        1 HC6      0.087600
      4 CBB         2.0580    1.4630    0.1730 c3        1 HC6      0.087600
      5 CAB         2.0610   -0.6020    1.4770 c3        1 HC6      0.076800
      6 CAF         1.4210   -1.9710    1.7200 c3        1 HC6      0.114400
      7 OAE         0.0040   -1.8790    1.6890 os        1 HC6     -0.412600
      8 CAD        -0.5090   -1.3860    0.4560 c3        1 HC6      0.395900
      9 OBC        -0.1030   -2.3160   -0.5190 oh        1 HC6     -0.632800
     10 CAG        -2.0030   -1.2430    0.5770 ca        1 HC6     -0.150300
     11 CAL        -2.7950   -1.3710   -0.5700 ca        1 HC6     -0.093000
     12 CAK        -4.1800   -1.2760   -0.4740 ca        1 HC6     -0.112500
     13 CAH        -2.6030   -1.0130    1.8170 ca        1 HC6     -0.093000
     14 CAI        -3.9910   -0.9170    1.9110 ca        1 HC6     -0.112500
     15 CAJ        -4.7930   -1.0550    0.7690 cp        1 HC6     -0.017000
     16 CAM        -6.2500   -0.9970    0.8800 cp        1 HC6     -0.017000
     17 CAR        -6.8640   -0.0580    1.7240 ca        1 HC6     -0.112500
     18 CAQ        -8.2490   -0.0320    1.8580 ca        1 HC6     -0.093000
     19 CAN        -7.0500   -1.8980    0.1630 ca        1 HC6     -0.112500
     20 CAO        -8.4370   -1.8740    0.2970 ca        1 HC6     -0.093000
     21 CAP        -9.0400   -0.9430    1.1470 ca        1 HC6     -0.150300
     22 CAS       -10.5330   -0.9210    1.3360 c3        1 HC6      0.395900
     23 OBD       -10.9380   -0.5830    2.6410 oh        1 HC6     -0.632800
     24 CAX       -11.1710    0.1150    0.3700 c3        1 HC6      0.097800
     25 OAT       -11.0410   -2.2310    1.1070 os        1 HC6     -0.412600
     26 CAU       -12.4580   -2.3110    1.1720 c3        1 HC6      0.114400
     27 CAV       -13.1040   -1.3870    0.1380 c3        1 HC6      0.076800
     28 NAW       -12.6700    0.0490    0.2790 n4        1 HC6     -0.596800
     29 CAZ       -13.3030    0.6670    1.4830 c3        1 HC6      0.087600
     30 CAY       -13.1120    0.8090   -0.9320 c3        1 HC6      0.087600
     31 HAC        -0.1720    0.2350   -0.9750 hx        1 HC6      0.115700
     32 HACA       -0.2990    0.7500    0.7920 hx        1 HC6      0.115700
     33 HBA         3.3720   -0.5980   -0.8830 hx        1 HC6      0.105533
     34 HBAA        1.9260   -0.1700   -1.9300 hx        1 HC6      0.105533
     35 HBAB        1.9370   -1.7430   -0.9930 hx        1 HC6      0.105533
     36 HBB         3.1780    1.5060    0.2470 hx        1 HC6      0.105533
     37 HBBA        1.7250    1.9430   -0.7850 hx        1 HC6      0.105533
     38 HBBB        1.6050    2.0060    1.0440 hx        1 HC6      0.105533
     39 HAB         1.7680    0.0960    2.3120 hx        1 HC6      0.109700
     40 HABA        3.1820   -0.7070    1.4600 hx        1 HC6      0.109700
     41 HAF         1.6540   -2.3130    2.7670 h1        1 HC6      0.101700
     42 HAFA        1.7770   -2.7320    0.9760 h1        1 HC6      0.101700
     43 HAL        -2.3210   -1.5600   -1.5470 ha        1 HC6      0.155000
     44 HAK        -4.7980   -1.3770   -1.3810 ha        1 HC6      0.153500
     45 HAH        -1.9830   -0.9340    2.7250 ha        1 HC6      0.155000
     46 HAI        -4.4590   -0.7520    2.8950 ha        1 HC6      0.153500
     47 HAR        -6.2480    0.6610    2.2860 ha        1 HC6      0.153500
     48 HAQ        -8.7250    0.6980    2.5340 ha        1 HC6      0.155000
     49 HAN        -6.5810   -2.6460   -0.4960 ha        1 HC6      0.153500
     50 HAO        -9.0560   -2.6070   -0.2460 ha        1 HC6      0.155000
     51 HAX       -10.8790    1.1470    0.7110 hx        1 HC6      0.115700
     52 HAXA      -10.7510   -0.0840   -0.6570 hx        1 HC6      0.115700
     53 HAU       -12.6880   -3.3820    0.9120 h1        1 HC6      0.101700
     54 HAUA      -12.8130   -2.0800    2.2110 h1        1 HC6      0.101700
     55 HAV       -14.2250   -1.4310    0.2380 hx        1 HC6      0.109700
     56 HAVA      -12.8120   -1.7280   -0.8970 hx        1 HC6      0.109700
     57 HAZ       -14.4190    0.6170    1.3790 hx        1 HC6      0.105533
     58 HAZA      -12.9810    0.1130    2.4070 hx        1 HC6      0.105533
     59 HAZB      -12.9780    1.7380    1.5630 hx        1 HC6      0.105533
     60 HAY       -14.2320    0.7650   -1.0050 hx        1 HC6      0.105533
     61 HAYA      -12.6590    0.3560   -1.8530 hx        1 HC6      0.105533
     62 HAYB      -12.7820    1.8780   -0.8370 hx        1 HC6      0.105533
     63 H33        -0.6110   -3.1310   -0.3930 ho        1 HC6      0.458000
     64 H34       -10.4260   -1.1170    3.2660 ho        1 HC6      0.458000
@<TRIPOS>BOND
     1    1    2 1   
     2    1    8 1   
     3    1   31 1   
     4    1   32 1   
     5    2    3 1   
     6    2    4 1   
     7    2    5 1   
     8    3   33 1   
     9    3   34 1   
    10    3   35 1   
    11    4   36 1   
    12    4   37 1   
    13    4   38 1   
    14    5    6 1   
    15    5   39 1   
    16    5   40 1   
    17    6    7 1   
    18    6   41 1   
    19    6   42 1   
    20    7    8 1   
    21    8    9 1   
    22    8   10 1   
    23    9   63 1   
    24   10   11 ar  
    25   10   13 ar  
    26   11   12 ar  
    27   11   43 1   
    28   12   15 ar  
    29   12   44 1   
    30   13   14 ar  
    31   13   45 1   
    32   14   15 ar  
    33   14   46 1   
    34   15   16 1   
    35   16   17 ar  
    36   16   19 ar  
    37   17   18 ar  
    38   17   47 1   
    39   18   21 ar  
    40   18   48 1   
    41   19   20 ar  
    42   19   49 1   
    43   20   21 ar  
    44   20   50 1   
    45   21   22 1   
    46   22   23 1   
    47   22   24 1   
    48   22   25 1   
    49   23   64 1   
    50   24   28 1   
    51   24   51 1   
    52   24   52 1   
    53   25   26 1   
    54   26   27 1   
    55   26   53 1   
    56   26   54 1   
    57   27   28 1   
    58   27   55 1   
    59   27   56 1   
    60   28   29 1   
    61   28   30 1   
    62   29   57 1   
    63   29   58 1   
    64   29   59 1   
    65   30   60 1   
    66   30   61 1   
    67   30   62 1   
@<TRIPOS>SUBSTRUCTURE
     1 HC6         1 TEMP              0 ****  ****    0 ROOT
