@<TRIPOS>MOLECULE
HC6
   64    67     1     0     0
SMALL
bcc


@<TRIPOS>ATOM
      1 CAC         0.1220   -0.0160    0.0840 c3        1 HC6      0.097800
      2 NAA         1.6220    0.0330    0.1850 n4        1 HC6     -0.596800
      3 CBA         2.2540   -0.6600   -0.9780 c3        1 HC6      0.087600
      4 CBB         2.0580    1.4640    0.1790 c3        1 HC6      0.087600
      5 CAB         2.0610   -0.6050    1.4770 c3        1 HC6      0.076800
      6 CAF         1.4210   -1.9740    1.7160 c3        1 HC6      0.114400
      7 OAE         0.0040   -1.8830    1.6850 os        1 HC6     -0.412600
      8 CAD        -0.5090   -1.3860    0.4540 c3        1 HC6      0.395900
      9 OBC        -0.1030   -2.3130   -0.5240 oh        1 HC6     -0.632800
     10 CAG        -2.0030   -1.2430    0.5760 ca        1 HC6     -0.150300
     11 CAL        -2.7950   -1.3670   -0.5720 ca        1 HC6     -0.093000
     12 CAK        -4.1800   -1.2730   -0.4750 ca        1 HC6     -0.112500
     13 CAH        -2.6030   -1.0190    1.8170 ca        1 HC6     -0.093000
     14 CAI        -3.9910   -0.9230    1.9120 ca        1 HC6     -0.112500
     15 CAJ        -4.7930   -1.0570    0.7690 cp        1 HC6     -0.017000
     16 CAM        -6.2500   -0.9990    0.8800 cp        1 HC6     -0.017000
     17 CAR        -6.8640   -0.0640    1.7270 ca        1 HC6     -0.112500
     18 CAQ        -8.2490   -0.0380    1.8610 ca        1 HC6     -0.093000
     19 CAN        -7.0500   -1.8980    0.1590 ca        1 HC6     -0.112500
     20 CAO        -8.4370   -1.8740    0.2930 ca        1 HC6     -0.093000
     21 CAP        -9.0400   -0.9450    1.1460 ca        1 HC6     -0.150300
     22 CAS       -10.5330   -0.9240    1.3340 c3        1 HC6      0.395900
     23 OBD       -10.9380   -0.5920    2.6410 oh        1 HC6     -0.632800
     24 CAX       -11.1700    0.1170    0.3730 c3        1 HC6      0.097800
     25 OAT       -11.0420   -2.2330    1.1000 os        1 HC6     -0.412600
     26 CAU       -12.4590   -2.3130    1.1630 c3        1 HC6      0.114400
     27 CAV       -13.1040   -1.3830    0.1330 c3        1 HC6      0.076800
     28 NAW       -12.6700    0.0520    0.2810 n4        1 HC6     -0.596800
     29 CAZ       -13.3030    0.6640    1.4880 c3        1 HC6      0.087600
     30 CAY       -13.1110    0.8180   -0.9260 c3        1 HC6      0.087600
     31 HAC        -0.1730    0.2390   -0.9720 hx        1 HC6      0.115700
     32 HACA       -0.2990    0.7490    0.7970 hx        1 HC6      0.115700
     33 HBA         1.9250   -0.1620   -1.9290 hx        1 HC6      0.105533
     34 HBAA        1.9370   -1.7380   -0.9960 hx        1 HC6      0.105533
     35 HBAB        3.3710   -0.5930   -0.8840 hx        1 HC6      0.105533
     36 HBB         1.7230    1.9470   -0.7770 hx        1 HC6      0.105533
     37 HBBA        1.6050    2.0050    1.0520 hx        1 HC6      0.105533
     38 HBBB        3.1770    1.5080    0.2520 hx        1 HC6      0.105533
     39 HAB         1.7690    0.0910    2.3140 hx        1 HC6      0.109700
     40 HABA        3.1820   -0.7090    1.4590 hx        1 HC6      0.109700
     41 HAF         1.6550   -2.3190    2.7620 h1        1 HC6      0.101700
     42 HAFA        1.7780   -2.7320    0.9700 h1        1 HC6      0.101700
     43 HAL        -2.3210   -1.5520   -1.5500 ha        1 HC6      0.155000
     44 HAK        -4.7980   -1.3710   -1.3820 ha        1 HC6      0.153500
     45 HAH        -1.9830   -0.9440    2.7250 ha        1 HC6      0.155000
     46 HAI        -4.4590   -0.7630    2.8960 ha        1 HC6      0.153500
     47 HAR        -6.2480    0.6530    2.2930 ha        1 HC6      0.153500
     48 HAQ        -8.7250    0.6890    2.5400 ha        1 HC6      0.155000
     49 HAN        -6.5810   -2.6430   -0.5030 ha        1 HC6      0.153500
     50 HAO        -9.0560   -2.6040   -0.2540 ha        1 HC6      0.155000
     51 HAX       -10.7500   -0.0770   -0.6540 hx        1 HC6      0.115700
     52 HAXA      -10.8780    1.1470    0.7190 hx        1 HC6      0.115700
     53 HAU       -12.8140   -2.0870    2.2030 h1        1 HC6      0.101700
     54 HAUA      -12.6890   -3.3820    0.8980 h1        1 HC6      0.101700
     55 HAV       -14.2250   -1.4270    0.2330 hx        1 HC6      0.109700
     56 HAVA      -12.8120   -1.7200   -0.9030 hx        1 HC6      0.109700
     57 HAZ       -12.9810    0.1060    2.4100 hx        1 HC6      0.105533
     58 HAZA      -14.4190    0.6160    1.3840 hx        1 HC6      0.105533
     59 HAZB      -12.9770    1.7350    1.5730 hx        1 HC6      0.105533
     60 HAY       -14.2300    0.7750   -1.0000 hx        1 HC6      0.105533
     61 HAYA      -12.7800    1.8860   -0.8260 hx        1 HC6      0.105533
     62 HAYB      -12.6580    0.3690   -1.8490 hx        1 HC6      0.105533
     63 H33        -0.6110   -3.1280   -0.4000 ho        1 HC6      0.458000
     64 H34       -10.4270   -1.1290    3.2640 ho        1 HC6      0.458000
@<TRIPOS>BOND
     1    1    2 1   
     2    1    8 1   
     3    1   31 1   
     4    1   32 1   
     5    2    3 1   
     6    2    4 1   
     7    2    5 1   
     8    3   33 1   
     9    3   34 1   
    10    3   35 1   
    11    4   36 1   
    12    4   37 1   
    13    4   38 1   
    14    5    6 1   
    15    5   39 1   
    16    5   40 1   
    17    6    7 1   
    18    6   41 1   
    19    6   42 1   
    20    7    8 1   
    21    8    9 1   
    22    8   10 1   
    23    9   63 1   
    24   10   11 ar  
    25   10   13 ar  
    26   11   12 ar  
    27   11   43 1   
    28   12   15 ar  
    29   12   44 1   
    30   13   14 ar  
    31   13   45 1   
    32   14   15 ar  
    33   14   46 1   
    34   15   16 1   
    35   16   17 ar  
    36   16   19 ar  
    37   17   18 ar  
    38   17   47 1   
    39   18   21 ar  
    40   18   48 1   
    41   19   20 ar  
    42   19   49 1   
    43   20   21 ar  
    44   20   50 1   
    45   21   22 1   
    46   22   23 1   
    47   22   24 1   
    48   22   25 1   
    49   23   64 1   
    50   24   28 1   
    51   24   51 1   
    52   24   52 1   
    53   25   26 1   
    54   26   27 1   
    55   26   53 1   
    56   26   54 1   
    57   27   28 1   
    58   27   55 1   
    59   27   56 1   
    60   28   29 1   
    61   28   30 1   
    62   29   57 1   
    63   29   58 1   
    64   29   59 1   
    65   30   60 1   
    66   30   61 1   
    67   30   62 1   
@<TRIPOS>SUBSTRUCTURE
     1 HC6         1 TEMP              0 ****  ****    0 ROOT
