@<TRIPOS>MOLECULE
HC8
   37    38     1     0     0
SMALL
bcc


@<TRIPOS>ATOM
      1 O21        -3.8020    1.1340   -0.1980 o         1 HC8     -0.542100
      2 C19        -2.8800    1.3480    0.5990 c         1 HC8      0.605700
      3 C20        -2.9990    2.3480    1.7030 c3        1 HC8     -0.198100
      4 C18        -1.5900    0.6180    0.5250 ca        1 HC8     -0.220600
      5 C5         -1.5440   -0.7880    0.7240 ca        1 HC8      0.001700
      6 C4         -2.7780   -1.5610    1.0500 c3        1 HC8     -0.152100
      7 C2         -3.1190   -2.5380   -0.0530 c         1 HC8      0.579100
      8 O3         -2.5920   -3.6540   -0.1070 o         1 HC8     -0.538100
      9 C1         -4.1380   -2.0700   -1.0360 c3        1 HC8     -0.207100
     10 C16        -0.4120    1.3090    0.2450 ca        1 HC8      0.204100
     11 O17        -0.5420    2.6670    0.0840 oh        1 HC8     -0.511100
     12 C15         0.8480    0.6380    0.1700 ca        1 HC8     -0.138000
     13 C7          0.8670   -0.7720    0.3520 ca        1 HC8      0.058000
     14 C6         -0.3450   -1.4580    0.6290 ca        1 HC8     -0.163000
     15 C13         2.1030    1.2810   -0.0640 ca        1 HC8      0.182100
     16 O14         2.0860    2.6510   -0.1980 oh        1 HC8     -0.519100
     17 C12         3.2930    0.5770   -0.1420 ca        1 HC8     -0.289000
     18 C9          3.2700   -0.8290    0.0190 ca        1 HC8      0.173100
     19 C8          2.0810   -1.4960    0.2660 ca        1 HC8     -0.194000
     20 O10         4.3960   -1.6220   -0.0480 os        1 HC8     -0.318900
     21 C11         5.6280   -0.9600   -0.3120 c3        1 HC8      0.112700
     22 H20        -4.0260    2.7860    1.7310 hc        1 HC8      0.070367
     23 H20A       -2.7780    1.8610    2.6830 hc        1 HC8      0.070367
     24 H20B       -2.2550    3.1680    1.5370 hc        1 HC8      0.070367
     25 H4         -2.6040   -2.1350    2.0020 hc        1 HC8      0.077200
     26 H4A        -3.6530   -0.8780    1.2160 hc        1 HC8      0.077200
     27 H1         -3.9750   -0.9890   -1.2780 hc        1 HC8      0.074033
     28 H1A        -4.0930   -2.6750   -1.9730 hc        1 HC8      0.074033
     29 H1B        -5.1560   -2.1800   -0.5860 hc        1 HC8      0.074033
     30 HO17        0.1450    2.9910   -0.5160 ho        1 HC8      0.448000
     31 H6         -0.3170   -2.5540    0.7570 ha        1 HC8      0.161000
     32 HO14        2.9910    2.9600   -0.3490 ho        1 HC8      0.435000
     33 H12         4.2390    1.1060   -0.3210 ha        1 HC8      0.143000
     34 H8          2.0750   -2.5880    0.3970 ha        1 HC8      0.162000
     35 H11         5.5950   -0.4430   -1.3010 h1        1 HC8      0.046700
     36 H11A        5.8700   -0.2370    0.5040 h1        1 HC8      0.046700
     37 H11B        6.3710   -1.7980   -0.3300 h1        1 HC8      0.046700
@<TRIPOS>BOND
     1    1    2 2   
     2    2    3 1   
     3    2    4 1   
     4    3   22 1   
     5    3   23 1   
     6    3   24 1   
     7    4    5 ar  
     8    4   10 ar  
     9    5    6 1   
    10    5   14 ar  
    11    6    7 1   
    12    6   25 1   
    13    6   26 1   
    14    7    8 2   
    15    7    9 1   
    16    9   27 1   
    17    9   28 1   
    18    9   29 1   
    19   10   11 1   
    20   10   12 ar  
    21   11   30 1   
    22   12   13 ar  
    23   12   15 ar  
    24   13   14 ar  
    25   13   19 ar  
    26   14   31 1   
    27   15   16 1   
    28   15   17 ar  
    29   16   32 1   
    30   17   18 ar  
    31   17   33 1   
    32   18   19 ar  
    33   18   20 1   
    34   19   34 1   
    35   20   21 1   
    36   21   35 1   
    37   21   36 1   
    38   21   37 1   
@<TRIPOS>SUBSTRUCTURE
     1 HC8         1 TEMP              0 ****  ****    0 ROOT
