@<TRIPOS>MOLECULE
HC8
   37    38     1     0     0
SMALL
bcc


@<TRIPOS>ATOM
      1 O21         0.2440   -0.8170    0.4090 o         1 HC8     -0.542100
      2 C19         1.3900   -0.3740    0.2650 c         1 HC8      0.605700
      3 C20         2.2190    0.0830    1.4210 c3        1 HC8     -0.198100
      4 C18         2.0340   -0.2760   -1.0690 ca        1 HC8     -0.220600
      5 C5          2.3020   -1.4470   -1.8290 ca        1 HC8      0.001700
      6 C4          1.9830   -2.8020   -1.2940 c3        1 HC8     -0.152100
      7 C2          0.9170   -3.4810   -2.1250 c         1 HC8      0.579100
      8 O3          1.2020   -4.0980   -3.1560 o         1 HC8     -0.538100
      9 C1         -0.4750   -3.3700   -1.6010 c3        1 HC8     -0.207100
     10 C16         2.3680    0.9720   -1.5930 ca        1 HC8      0.204100
     11 O17         2.0910    2.0500   -0.7860 oh        1 HC8     -0.511100
     12 C15         2.9910    1.1030   -2.8730 ca        1 HC8     -0.138000
     13 C7          3.2320   -0.0800   -3.6240 ca        1 HC8      0.058000
     14 C6          2.8770   -1.3410   -3.0760 ca        1 HC8     -0.163000
     15 C13         3.4070    2.3410   -3.4560 ca        1 HC8      0.182100
     16 O14         3.2110    3.4790   -2.7070 oh        1 HC8     -0.519100
     17 C12         3.9940    2.4090   -4.7080 ca        1 HC8     -0.289000
     18 C9          4.1940    1.2130   -5.4380 ca        1 HC8      0.173100
     19 C8          3.8250   -0.0130   -4.9080 ca        1 HC8     -0.194000
     20 O10         4.7620    1.1720   -6.6940 os        1 HC8     -0.318900
     21 C11         5.1390    2.4210   -7.2640 c3        1 HC8      0.112700
     22 H20         1.6880   -0.1030    2.3860 hc        1 HC8      0.070367
     23 H20A        2.4180    1.1800    1.3180 hc        1 HC8      0.070367
     24 H20B        3.1960   -0.4580    1.4270 hc        1 HC8      0.070367
     25 H4          1.6360   -2.7470   -0.2290 hc        1 HC8      0.077200
     26 H4A         2.9160   -3.4300   -1.3200 hc        1 HC8      0.077200
     27 H1         -1.2200   -3.5890   -2.4030 hc        1 HC8      0.074033
     28 H1A        -0.6120   -4.1090   -0.7720 hc        1 HC8      0.074033
     29 H1B        -0.6550   -2.3440   -1.1910 hc        1 HC8      0.074033
     30 HO17        1.9170    2.8290   -1.3330 ho        1 HC8      0.448000
     31 H6          3.0590   -2.2500   -3.6740 ha        1 HC8      0.161000
     32 HO14        3.5350    4.2410   -3.2100 ho        1 HC8      0.435000
     33 H12         4.3020    3.3770   -5.1230 ha        1 HC8      0.143000
     34 H8          3.9910   -0.9380   -5.4800 ha        1 HC8      0.162000
     35 H11         5.5530    2.1320   -8.2640 h1        1 HC8      0.046700
     36 H11A        4.2500    3.0860   -7.3830 h1        1 HC8      0.046700
     37 H11B        5.9230    2.9180   -6.6420 h1        1 HC8      0.046700
@<TRIPOS>BOND
     1    1    2 2   
     2    2    3 1   
     3    2    4 1   
     4    3   22 1   
     5    3   23 1   
     6    3   24 1   
     7    4    5 ar  
     8    4   10 ar  
     9    5    6 1   
    10    5   14 ar  
    11    6    7 1   
    12    6   25 1   
    13    6   26 1   
    14    7    8 2   
    15    7    9 1   
    16    9   27 1   
    17    9   28 1   
    18    9   29 1   
    19   10   11 1   
    20   10   12 ar  
    21   11   30 1   
    22   12   13 ar  
    23   12   15 ar  
    24   13   14 ar  
    25   13   19 ar  
    26   14   31 1   
    27   15   16 1   
    28   15   17 ar  
    29   16   32 1   
    30   17   18 ar  
    31   17   33 1   
    32   18   19 ar  
    33   18   20 1   
    34   19   34 1   
    35   20   21 1   
    36   21   35 1   
    37   21   36 1   
    38   21   37 1   
@<TRIPOS>SUBSTRUCTURE
     1 HC8         1 TEMP              0 ****  ****    0 ROOT
