@<TRIPOS>MOLECULE
HC8
   37    33     1     0     0
SMALL
bcc


@<TRIPOS>ATOM
      1 O21        -2.7410   -0.5740    2.8050 o         1 HC8     -0.297000
      2 C19        -1.5450   -0.3610    2.8300 c1        1 HC8      0.289000
      3 C20        -0.8330   -0.1950    4.1560 c2        1 HC8     -0.267000
      4 C18        -0.7700   -0.2440    1.5360 c2        1 HC8     -0.167000
      5 C5         -0.3730   -1.2810    0.6970 c2        1 HC8     -0.012000
      6 C4         -0.4920   -2.7700    0.9340 c3        1 HC8     -0.187000
      7 C2         -1.6560   -3.3150    0.1380 c2        1 HC8      0.239000
      8 O3         -2.4720   -2.5560   -0.3430 o         1 HC8     -0.298000
      9 C1         -1.8150   -4.8080   -0.0410 c3        1 HC8     -0.275000
     10 C16        -0.4650    1.0700    1.2070 c1        1 HC8      0.111000
     11 O17        -0.8940    2.2560    1.8330 o         1 HC8     -0.282500
     12 C15         0.2460    1.3540    0.0260 c2        1 HC8     -0.149000
     13 C7          0.6380    0.3290   -0.8030 c1        1 HC8      0.041000
     14 C6          0.3280   -1.0020   -0.4690 c1        1 HC8     -0.136000
     15 C13         0.5660    2.6850   -0.3020 c1        1 HC8      0.106000
     16 O14         0.4680    3.9850    0.2230 o         1 HC8     -0.282500
     17 C12         1.2780    2.9620   -1.4620 c2        1 HC8     -0.210000
     18 C9          1.6740    1.9250   -2.3000 c1        1 HC8      0.111000
     19 C8          1.3590    0.6120   -1.9780 c1        1 HC8     -0.180000
     20 O10         2.6280    1.8130   -3.3260 os        1 HC8     -0.205000
     21 C11         2.4540    2.7430   -4.3710 c3        1 HC8     -0.078000
     22 H20        -1.1630    0.6120    4.6050 ha        1 HC8      0.111000
     23 H20A       -1.0070   -0.9770    4.7200 ha        1 HC8      0.111000
     24 H20B        0.1310   -0.1120    4.0010 ha        1 HC8      0.111000
     25 H4          0.3330   -3.2120    0.6510 hc        1 HC8      0.116000
     26 H4A        -0.6420   -2.9370    1.8860 hc        1 HC8      0.116000
     27 H1         -2.5020   -4.9840   -0.7170 hc        1 HC8      0.113333
     28 H1A        -0.9630   -5.1950   -0.3330 hc        1 HC8      0.113333
     29 H1B        -2.0830   -5.2120    0.8110 hc        1 HC8      0.113333
     30 HO17       -1.7650    2.3660    1.6950 ho        1 HC8      0.239000
     31 H6          0.6060   -1.7300   -1.0570 ha        1 HC8      0.163000
     32 HO14        1.0950    4.1030    0.8420 ho        1 HC8      0.239000
     33 H12         1.5000    3.8850   -1.6880 ha        1 HC8      0.159000
     34 H8          1.6370   -0.1150   -2.5660 ha        1 HC8      0.161000
     35 H11         1.4960    2.8550   -4.5540 h1        1 HC8      0.088000
     36 H11A        2.9060    2.4160   -5.1790 h1        1 HC8      0.088000
     37 H11B        2.8400    3.6070   -4.1080 h1        1 HC8      0.088000
@<TRIPOS>BOND
     1    1    2 1   
     2    2    4 1   
     3    3   22 1   
     4    3   23 1   
     5    3   24 1   
     6    4    5 1   
     7    4   10 1   
     8    5    6 1   
     9    5   14 1   
    10    6    7 1   
    11    6   25 1   
    12    6   26 1   
    13    7    8 1   
    14    7    9 1   
    15    9   27 1   
    16    9   28 1   
    17    9   29 1   
    18   10   12 1   
    19   11   30 1   
    20   12   13 1   
    21   12   15 1   
    22   13   19 1   
    23   14   31 1   
    24   15   17 1   
    25   16   32 1   
    26   17   18 1   
    27   17   33 1   
    28   18   20 1   
    29   19   34 1   
    30   20   21 1   
    31   21   35 1   
    32   21   36 1   
    33   21   37 1   
@<TRIPOS>SUBSTRUCTURE
     1 HC8         1 TEMP              0 ****  ****    0 ROOT
