@<TRIPOS>MOLECULE
HC8
   37    38     1     0     0
SMALL
bcc


@<TRIPOS>ATOM
      1 O21         0.2080   -0.7910    0.3880 o         1 HC8     -0.542100
      2 C19         1.3500   -0.3350    0.2520 c         1 HC8      0.605700
      3 C20         2.1530    0.1570    1.4120 c3        1 HC8     -0.198100
      4 C18         2.0130   -0.2540   -1.0740 ca        1 HC8     -0.220600
      5 C5          2.3090   -1.4350   -1.8060 ca        1 HC8      0.001700
      6 C4          2.0010   -2.7840   -1.2500 c3        1 HC8     -0.152100
      7 C2          0.9580   -3.4940   -2.0830 c         1 HC8      0.579100
      8 O3          1.2680   -4.1260   -3.0980 o         1 HC8     -0.538100
      9 C1         -0.4430   -3.3930   -1.5830 c3        1 HC8     -0.207100
     10 C16         2.3370    0.9890   -1.6160 ca        1 HC8      0.204100
     11 O17         2.0320    2.0780   -0.8360 oh        1 HC8     -0.511100
     12 C15         2.9790    1.1040   -2.8890 ca        1 HC8     -0.138000
     13 C7          3.2480   -0.0900   -3.6130 ca        1 HC8      0.058000
     14 C6          2.9030   -1.3450   -3.0460 ca        1 HC8     -0.163000
     15 C13         3.3860    2.3360   -3.4890 ca        1 HC8      0.182100
     16 O14         3.1620    3.4860   -2.7660 oh        1 HC8     -0.519100
     17 C12         3.9910    2.3880   -4.7340 ca        1 HC8     -0.289000
     18 C9          4.2200    1.1810   -5.4370 ca        1 HC8      0.173100
     19 C8          3.8600   -0.0390   -4.8880 ca        1 HC8     -0.194000
     20 O10         4.8080    1.1250   -6.6830 os        1 HC8     -0.318900
     21 C11         5.1760    2.3680   -7.2710 c3        1 HC8      0.112700
     22 H20         1.6100   -0.0190    2.3720 hc        1 HC8      0.070367
     23 H20A        2.3390    1.2540    1.2910 hc        1 HC8      0.070367
     24 H20B        3.1380   -0.3700    1.4430 hc        1 HC8      0.070367
     25 H4          1.6370   -2.7130   -0.1910 hc        1 HC8      0.077200
     26 H4A         2.9440   -3.3990   -1.2490 hc        1 HC8      0.077200
     27 H1         -1.1730   -3.6390   -2.3920 hc        1 HC8      0.074033
     28 H1A        -0.5830   -4.1170   -0.7420 hc        1 HC8      0.074033
     29 H1B        -0.6440   -2.3620   -1.1960 hc        1 HC8      0.074033
     30 HO17        1.8550    2.8440   -1.4000 ho        1 HC8      0.448000
     31 H6          3.1070   -2.2620   -3.6230 ha        1 HC8      0.161000
     32 HO14        3.4820    4.2420   -3.2790 ho        1 HC8      0.435000
     33 H12         4.2920    3.3530   -5.1620 ha        1 HC8      0.143000
     34 H8          4.0480   -0.9720   -5.4400 ha        1 HC8      0.162000
     35 H11         5.6100    2.0660   -8.2590 h1        1 HC8      0.046700
     36 H11A        4.2800    3.0180   -7.4180 h1        1 HC8      0.046700
     37 H11B        5.9430    2.8880   -6.6470 h1        1 HC8      0.046700
@<TRIPOS>BOND
     1    1    2 2   
     2    2    3 1   
     3    2    4 1   
     4    3   22 1   
     5    3   23 1   
     6    3   24 1   
     7    4    5 ar  
     8    4   10 ar  
     9    5    6 1   
    10    5   14 ar  
    11    6    7 1   
    12    6   25 1   
    13    6   26 1   
    14    7    8 2   
    15    7    9 1   
    16    9   27 1   
    17    9   28 1   
    18    9   29 1   
    19   10   11 1   
    20   10   12 ar  
    21   11   30 1   
    22   12   13 ar  
    23   12   15 ar  
    24   13   14 ar  
    25   13   19 ar  
    26   14   31 1   
    27   15   16 1   
    28   15   17 ar  
    29   16   32 1   
    30   17   18 ar  
    31   17   33 1   
    32   18   19 ar  
    33   18   20 1   
    34   19   34 1   
    35   20   21 1   
    36   21   35 1   
    37   21   36 1   
    38   21   37 1   
@<TRIPOS>SUBSTRUCTURE
     1 HC8         1 TEMP              0 ****  ****    0 ROOT
