@<TRIPOS>MOLECULE
HC9
   75    78     1     0     0
SMALL
bcc


@<TRIPOS>ATOM
      1 C1          0.0080   -0.0060   -0.0270 c3        1 HC9     -0.066400
      2 O1          3.1960    0.9130    1.7300 oh        1 HC9     -0.602800
      3 C2          1.4500    0.4230    0.1090 c3        1 HC9     -0.113400
      4 O2         -8.2410   -4.4530    1.0640 oh        1 HC9     -0.598800
      5 C3          1.8120    0.6200    1.5750 c3        1 HC9      0.145100
      6 C4          1.5540   -0.6580    2.3680 c3        1 HC9     -0.038200
      7 C5          0.1650   -1.1630    2.1660 c2        1 HC9     -0.111400
      8 C6         -0.5790   -1.5130    3.2260 c2        1 HC9     -0.164200
      9 C7         -1.9520   -2.0520    3.1450 c3        1 HC9     -0.043200
     10 C8         -2.3040   -2.5320    1.7440 c3        1 HC9     -0.047700
     11 C9         -1.8470   -1.4980    0.7060 c3        1 HC9     -0.048700
     12 C10        -0.3140   -1.2980    0.7410 c3        1 HC9      0.000200
     13 C11        -2.3470   -1.8350   -0.6930 c3        1 HC9     -0.075400
     14 C12        -3.8370   -2.1270   -0.7700 c3        1 HC9     -0.065400
     15 C13        -4.2280   -3.2200    0.2140 c3        1 HC9     -0.047000
     16 C14        -3.8020   -2.7120    1.6160 c3        1 HC9     -0.064700
     17 C15        -4.5090   -3.6540    2.5780 c3        1 HC9     -0.077400
     18 C16        -5.8230   -3.9950    1.8740 c3        1 HC9     -0.067400
     19 C17        -5.7490   -3.4370    0.4370 c3        1 HC9     -0.042700
     20 C18        -3.5620   -4.5370   -0.1460 c3        1 HC9     -0.083100
     21 C19         0.4100   -2.4710    0.0860 c3        1 HC9     -0.084100
     22 C20        -6.4670   -4.3200   -0.5770 c3        1 HC9     -0.047700
     23 C21        -6.2690   -3.7980   -1.9920 c3        1 HC9     -0.098100
     24 C22        -7.9880   -4.4030   -0.3340 c3        1 HC9      0.143100
     25 C23        -8.5800   -5.6440   -1.0100 c3        1 HC9     -0.122400
     26 C24       -10.0580   -5.4730   -1.2880 c3        1 HC9     -0.077400
     27 C25       -10.6840   -6.7300   -1.8760 c3        1 HC9     -0.067700
     28 C26       -12.1940   -6.6630   -1.7570 c3        1 HC9     -0.090600
     29 C27       -10.2840   -6.9210   -3.3240 c3        1 HC9     -0.090600
     30 H1         -0.2240   -0.1600   -1.1140 hc        1 HC9      0.043700
     31 H1A        -0.6570    0.8160    0.3490 hc        1 HC9      0.043700
     32 HO1         3.3800    1.6790    1.1750 ho        1 HC9      0.398000
     33 H2          1.6110    1.3820   -0.4500 hc        1 HC9      0.046200
     34 H2A         2.1300   -0.3460   -0.3400 hc        1 HC9      0.046200
     35 H3          1.2080    1.4680    2.0060 h1        1 HC9      0.035700
     36 H4          2.2910   -1.4420    2.0440 hc        1 HC9      0.059700
     37 H4A         1.7510   -0.4520    3.4530 hc        1 HC9      0.059700
     38 H6         -0.1850   -1.3960    4.2500 ha        1 HC9      0.121000
     39 H7         -2.6730   -1.2500    3.4660 hc        1 HC9      0.049700
     40 H7A        -2.0710   -2.9070    3.8650 hc        1 HC9      0.049700
     41 H8         -1.7800   -3.5090    1.5620 hc        1 HC9      0.057700
     42 H9         -2.3150   -0.5140    1.0030 hc        1 HC9      0.047700
     43 H11        -1.7910   -2.7250   -1.0910 hc        1 HC9      0.039700
     44 H11A       -2.1240   -0.9710   -1.3740 hc        1 HC9      0.039700
     45 H12        -4.4210   -1.1970   -0.5440 hc        1 HC9      0.040200
     46 H12A       -4.0860   -2.4330   -1.8190 hc        1 HC9      0.040200
     47 H14        -4.2680   -1.6910    1.7520 hc        1 HC9      0.045700
     48 H15        -4.6870   -3.1650    3.5660 hc        1 HC9      0.039700
     49 H15A       -3.8990   -4.5730    2.7590 hc        1 HC9      0.039700
     50 H16        -5.9880   -5.1000    1.8550 hc        1 HC9      0.052700
     51 H16A       -6.6890   -3.5360    2.4140 hc        1 HC9      0.052700
     52 H17        -6.2460   -2.4280    0.4170 hc        1 HC9      0.046700
     53 H18        -3.8420   -4.8480   -1.1810 hc        1 HC9      0.035033
     54 H18A       -3.8820   -5.3380    0.5640 hc        1 HC9      0.035033
     55 H18B       -2.4490   -4.4560   -0.1040 hc        1 HC9      0.035033
     56 H19         1.5020   -2.4370    0.3210 hc        1 HC9      0.037033
     57 H19A        0.0010   -3.4410    0.4550 hc        1 HC9      0.037033
     58 H19B        0.2950   -2.4300   -1.0240 hc        1 HC9      0.037033
     59 H20        -6.0500   -5.3620   -0.5000 hc        1 HC9      0.056700
     60 H21        -5.2570   -4.0720   -2.3760 hc        1 HC9      0.036367
     61 H21A       -7.0250   -4.2290   -2.6930 hc        1 HC9      0.036367
     62 H21B       -6.3700   -2.6850   -2.0140 hc        1 HC9      0.036367
     63 H22        -8.4730   -3.4720   -0.7500 h1        1 HC9      0.031700
     64 H23        -8.4170   -6.5280   -0.3380 hc        1 HC9      0.055200
     65 H23A       -8.0400   -5.8510   -1.9690 hc        1 HC9      0.055200
     66 H24       -10.5880   -5.2170   -0.3310 hc        1 HC9      0.037700
     67 H24A      -10.2140   -4.6150   -1.9920 hc        1 HC9      0.037700
     68 H25       -10.3210   -7.6190   -1.2860 hc        1 HC9      0.048700
     69 H26       -12.4990   -6.5930   -0.6860 hc        1 HC9      0.034033
     70 H26A      -12.5900   -5.7700   -2.2970 hc        1 HC9      0.034033
     71 H26B      -12.6570   -7.5780   -2.1990 hc        1 HC9      0.034033
     72 H27       -10.7510   -7.8490   -3.7340 hc        1 HC9      0.034033
     73 H27A      -10.6200   -6.0540   -3.9430 hc        1 HC9      0.034033
     74 H27B       -9.1750   -7.0130   -3.4170 hc        1 HC9      0.034033
     75 HO2        -9.1920   -4.5790    1.1680 ho        1 HC9      0.397000
@<TRIPOS>BOND
     1    1    3 1   
     2    1   12 1   
     3    1   30 1   
     4    1   31 1   
     5    2    5 1   
     6    2   32 1   
     7    3    5 1   
     8    3   33 1   
     9    3   34 1   
    10    4   24 1   
    11    4   75 1   
    12    5    6 1   
    13    5   35 1   
    14    6    7 1   
    15    6   36 1   
    16    6   37 1   
    17    7    8 2   
    18    7   12 1   
    19    8    9 1   
    20    8   38 1   
    21    9   10 1   
    22    9   39 1   
    23    9   40 1   
    24   10   11 1   
    25   10   16 1   
    26   10   41 1   
    27   11   12 1   
    28   11   13 1   
    29   11   42 1   
    30   12   21 1   
    31   13   14 1   
    32   13   43 1   
    33   13   44 1   
    34   14   15 1   
    35   14   45 1   
    36   14   46 1   
    37   15   16 1   
    38   15   19 1   
    39   15   20 1   
    40   16   17 1   
    41   16   47 1   
    42   17   18 1   
    43   17   48 1   
    44   17   49 1   
    45   18   19 1   
    46   18   50 1   
    47   18   51 1   
    48   19   22 1   
    49   19   52 1   
    50   20   53 1   
    51   20   54 1   
    52   20   55 1   
    53   21   56 1   
    54   21   57 1   
    55   21   58 1   
    56   22   23 1   
    57   22   24 1   
    58   22   59 1   
    59   23   60 1   
    60   23   61 1   
    61   23   62 1   
    62   24   25 1   
    63   24   63 1   
    64   25   26 1   
    65   25   64 1   
    66   25   65 1   
    67   26   27 1   
    68   26   66 1   
    69   26   67 1   
    70   27   28 1   
    71   27   29 1   
    72   27   68 1   
    73   28   69 1   
    74   28   70 1   
    75   28   71 1   
    76   29   72 1   
    77   29   73 1   
    78   29   74 1   
@<TRIPOS>SUBSTRUCTURE
     1 HC9         1 TEMP              0 ****  ****    0 ROOT
