@<TRIPOS>MOLECULE
HC9
   75    78     1     0     0
SMALL
bcc


@<TRIPOS>ATOM
      1 C1         -4.7040    1.3370   -1.0100 c3        1 HC9     -0.070400
      2 O1         -8.2470    0.4390   -0.3820 oh        1 HC9     -0.600800
      3 C2         -6.1840    1.5270   -0.7680 c3        1 HC9     -0.075400
      4 O2          4.3090   -1.5370   -0.6730 oh        1 HC9     -0.595800
      5 C3         -6.8760    0.1760   -0.6590 c3        1 HC9      0.145100
      6 C4         -6.2490   -0.6590    0.4550 c3        1 HC9     -0.075200
      7 C5         -4.7700   -0.7710    0.3050 c2        1 HC9     -0.106400
      8 C6         -4.1760   -1.9690    0.4040 c2        1 HC9     -0.167200
      9 C7         -2.7190   -2.1930    0.2950 c3        1 HC9     -0.042200
     10 C8         -1.9230   -0.9050    0.4410 c3        1 HC9     -0.047700
     11 C9         -2.5700    0.2090   -0.3930 c3        1 HC9     -0.048700
     12 C10        -4.0090    0.5130    0.0860 c3        1 HC9      0.000200
     13 C11        -1.7060    1.4630   -0.4380 c3        1 HC9     -0.075400
     14 C12        -0.2560    1.2100   -0.8190 c3        1 HC9     -0.065400
     15 C13         0.3700    0.1630    0.0890 c3        1 HC9     -0.045000
     16 C14        -0.5050   -1.1100   -0.0510 c3        1 HC9     -0.064700
     17 C15         0.3340   -2.2060    0.5860 c3        1 HC9     -0.075400
     18 C16         1.7780   -1.8050    0.2770 c3        1 HC9     -0.078400
     19 C17         1.7530   -0.3930   -0.3450 c3        1 HC9     -0.046700
     20 C18         0.4360    0.6570    1.5240 c3        1 HC9     -0.083100
     21 C19        -4.0000    1.3090    1.3880 c3        1 HC9     -0.083100
     22 C20         2.9760    0.4390    0.0230 c3        1 HC9     -0.083700
     23 C21         2.8360    1.8690   -0.4720 c3        1 HC9     -0.093100
     24 C22         4.2830   -0.1240   -0.5780 c3        1 HC9      0.138100
     25 C23         5.4910    0.3690    0.2230 c3        1 HC9     -0.112400
     26 C24         6.7850    0.0300   -0.4860 c3        1 HC9     -0.077400
     27 C25         8.0110    0.3520    0.3550 c3        1 HC9     -0.067700
     28 C26         9.2340   -0.3230   -0.2330 c3        1 HC9     -0.090100
     29 C27         8.2370    1.8460    0.4570 c3        1 HC9     -0.090100
     30 H1         -4.5560    0.8260   -1.9980 hc        1 HC9      0.044700
     31 H1A        -4.2180    2.3450   -1.0730 hc        1 HC9      0.044700
     32 HO1        -8.6750   -0.4170   -0.2640 ho        1 HC9      0.398000
     33 H2         -6.3580    2.1100    0.1730 hc        1 HC9      0.055200
     34 H2A        -6.6380    2.1080   -1.6120 hc        1 HC9      0.055200
     35 H3         -6.7980   -0.3780   -1.6370 h1        1 HC9      0.035700
     36 H4         -6.4880   -0.1800    1.4440 hc        1 HC9      0.051200
     37 H4A        -6.7230   -1.6770    0.4600 hc        1 HC9      0.051200
     38 H6         -4.7750   -2.8810    0.5650 ha        1 HC9      0.119000
     39 H7         -2.3840   -2.9220    1.0820 hc        1 HC9      0.049700
     40 H7A        -2.5020   -2.6660   -0.7030 hc        1 HC9      0.049700
     41 H8         -1.9170   -0.6120    1.5250 hc        1 HC9      0.057700
     42 H9         -2.6500   -0.1830   -1.4490 hc        1 HC9      0.048700
     43 H11        -2.1450    2.1770   -1.1850 hc        1 HC9      0.041700
     44 H11A       -1.7260    1.9740    0.5610 hc        1 HC9      0.041700
     45 H12        -0.1960    0.8620   -1.8830 hc        1 HC9      0.041200
     46 H12A        0.3020    2.1790   -0.7490 hc        1 HC9      0.041200
     47 H14        -0.5720   -1.3450   -1.1550 hc        1 HC9      0.047700
     48 H15         0.1570   -2.2550    1.6890 hc        1 HC9      0.041200
     49 H15A        0.0860   -3.2070    0.1570 hc        1 HC9      0.041200
     50 H16         2.3870   -1.8100    1.2140 hc        1 HC9      0.044700
     51 H16A        2.2380   -2.5290   -0.4410 hc        1 HC9      0.044700
     52 H17         1.7450   -0.4970   -1.4660 hc        1 HC9      0.054700
     53 H18        -0.5830    0.8700    1.9280 hc        1 HC9      0.035033
     54 H18A        0.9170   -0.1110    2.1770 hc        1 HC9      0.035033
     55 H18B        1.0320    1.5990    1.5880 hc        1 HC9      0.035033
     56 H19        -5.0190    1.3240    1.8450 hc        1 HC9      0.037367
     57 H19A       -3.2920    0.8560    2.1220 hc        1 HC9      0.037367
     58 H19B       -3.6930    2.3660    1.1980 hc        1 HC9      0.037367
     59 H20         3.0780    0.4460    1.1440 hc        1 HC9      0.048700
     60 H21         2.1440    2.4520    0.1810 hc        1 HC9      0.036700
     61 H21A        3.8220    2.3940   -0.4710 hc        1 HC9      0.036700
     62 H21B        2.4380    1.8820   -1.5160 hc        1 HC9      0.036700
     63 H22         4.3660    0.2080   -1.6540 h1        1 HC9      0.074700
     64 H23         5.4180    1.4760    0.3750 hc        1 HC9      0.045200
     65 H23A        5.4780   -0.1100    1.2370 hc        1 HC9      0.045200
     66 H24         6.7810   -1.0650   -0.7360 hc        1 HC9      0.048700
     67 H24A        6.8400    0.5910   -1.4560 hc        1 HC9      0.048700
     68 H25         7.8470   -0.0540    1.3940 hc        1 HC9      0.043700
     69 H26         9.4120    0.0320   -1.2760 hc        1 HC9      0.033533
     70 H26A       10.1370   -0.0880    0.3800 hc        1 HC9      0.033533
     71 H26B        9.0960   -1.4300   -0.2540 hc        1 HC9      0.033533
     72 H27         9.1430    2.0580    1.0740 hc        1 HC9      0.033533
     73 H27A        8.3880    2.2900   -0.5560 hc        1 HC9      0.033533
     74 H27B        7.3600    2.3440    0.9350 hc        1 HC9      0.033533
     75 HO2         4.3510   -1.8870    0.2250 ho        1 HC9      0.397000
@<TRIPOS>BOND
     1    1    3 1   
     2    1   12 1   
     3    1   30 1   
     4    1   31 1   
     5    2    5 1   
     6    2   32 1   
     7    3    5 1   
     8    3   33 1   
     9    3   34 1   
    10    4   24 1   
    11    4   75 1   
    12    5    6 1   
    13    5   35 1   
    14    6    7 1   
    15    6   36 1   
    16    6   37 1   
    17    7    8 2   
    18    7   12 1   
    19    8    9 1   
    20    8   38 1   
    21    9   10 1   
    22    9   39 1   
    23    9   40 1   
    24   10   11 1   
    25   10   16 1   
    26   10   41 1   
    27   11   12 1   
    28   11   13 1   
    29   11   42 1   
    30   12   21 1   
    31   13   14 1   
    32   13   43 1   
    33   13   44 1   
    34   14   15 1   
    35   14   45 1   
    36   14   46 1   
    37   15   16 1   
    38   15   19 1   
    39   15   20 1   
    40   16   17 1   
    41   16   47 1   
    42   17   18 1   
    43   17   48 1   
    44   17   49 1   
    45   18   19 1   
    46   18   50 1   
    47   18   51 1   
    48   19   22 1   
    49   19   52 1   
    50   20   53 1   
    51   20   54 1   
    52   20   55 1   
    53   21   56 1   
    54   21   57 1   
    55   21   58 1   
    56   22   23 1   
    57   22   24 1   
    58   22   59 1   
    59   23   60 1   
    60   23   61 1   
    61   23   62 1   
    62   24   25 1   
    63   24   63 1   
    64   25   26 1   
    65   25   64 1   
    66   25   65 1   
    67   26   27 1   
    68   26   66 1   
    69   26   67 1   
    70   27   28 1   
    71   27   29 1   
    72   27   68 1   
    73   28   69 1   
    74   28   70 1   
    75   28   71 1   
    76   29   72 1   
    77   29   73 1   
    78   29   74 1   
@<TRIPOS>SUBSTRUCTURE
     1 HC9         1 TEMP              0 ****  ****    0 ROOT
