@<TRIPOS>MOLECULE
HC9
   75    77     1     0     0
SMALL
bcc


@<TRIPOS>ATOM
      1 C1          3.1850    0.2520    0.3260 c3        1 HC9     -0.144000
      2 O1          6.5580    0.2800    1.8360 oh        1 HC9     -0.330000
      3 C2          4.6700    0.3120    0.4050 c3        1 HC9     -0.192000
      4 O2         -2.8260   -0.3770    0.7870 oh        1 HC9     -0.332000
      5 C3          5.2050    0.3540    1.8680 c3        1 HC9      0.034000
      6 C4          4.6400   -0.8470    2.8040 c3        1 HC9     -0.121000
      7 C5          3.0710   -0.8710    2.6880 c2        1 HC9     -0.103000
      8 C6          2.2330   -0.0400    3.6350 c1        1 HC9     -0.160000
      9 C7          1.0980    0.0130    3.3630 c2        1 HC9     -0.126000
     10 C8          0.8430   -0.0350    1.5800 c3        1 HC9     -0.090000
     11 C9          1.3610   -0.8520    1.0510 c3        1 HC9     -0.084000
     12 C10         2.5520   -0.9130    1.2030 c3        1 HC9      0.002000
     13 C11         1.1320   -0.8690   -0.3460 c3        1 HC9     -0.146000
     14 C12         1.4760    0.5700   -1.0830 c3        1 HC9     -0.147000
     15 C13         0.9190    1.5230   -0.5250 c3        1 HC9     -0.032000
     16 C14         1.1620    1.5050    0.9280 c3        1 HC9     -0.086000
     17 C15         0.2430    2.3280    1.4720 c3        1 HC9     -0.159000
     18 C16        -1.0100    2.2440    0.4820 c3        1 HC9     -0.167000
     19 C17        -0.5070    1.5470   -0.7100 c3        1 HC9     -0.088000
     20 C18         1.5060    2.8380   -1.1020 c3        1 HC9     -0.209000
     21 C19         3.0150   -2.2290    0.6070 c3        1 HC9     -0.206000
     22 C20        -1.0770    0.1030   -0.7730 c3        1 HC9     -0.096000
     23 C21        -0.8240   -0.4800   -2.1390 c3        1 HC9     -0.212000
     24 C22        -2.5660    0.1390   -0.5060 c3        1 HC9      0.035000
     25 C23        -3.2970   -0.7100   -1.5530 c3        1 HC9     -0.193000
     26 C24        -4.8330   -0.6080   -1.3250 c3        1 HC9     -0.160000
     27 C25        -5.5870   -1.2390   -2.5510 c3        1 HC9     -0.105000
     28 C26        -6.0410   -2.6610   -2.1980 c3        1 HC9     -0.209000
     29 C27        -6.8140   -0.3810   -2.8940 c3        1 HC9     -0.209000
     30 H1          2.9290    0.1160   -0.6020 hc        1 HC9      0.087000
     31 H1A         2.8220    1.1040    0.6300 hc        1 HC9      0.087000
     32 HO1         6.9090    0.8570    2.4510 ho        1 HC9      0.197000
     33 H2          4.9760    1.1120   -0.0640 hc        1 HC9      0.083500
     34 H2A         5.0400   -0.4780   -0.0420 hc        1 HC9      0.083500
     35 HO2        -3.5590   -0.0110    1.1060 ho        1 HC9      0.197000
     36 H3          4.9490    1.2110    2.2700 h1        1 HC9      0.074000
     37 H4          5.0600   -0.8970    3.7030 hc        1 HC9      0.099000
     38 H4A         4.9420   -1.6960    2.4310 hc        1 HC9      0.099000
     39 H6          2.5180    0.0840    4.5560 ha        1 HC9      0.120000
     40 H7          0.5360    0.7290    3.7200 ha        1 HC9      0.087500
     41 H7A         0.6980   -0.7620    3.8140 ha        1 HC9      0.087500
     42 H8         -0.1120   -0.1930    1.4480 hc        1 HC9      0.099000
     43 H9          0.9890   -1.6910    1.4080 hc        1 HC9      0.083000
     44 H11         1.6950   -1.5740   -0.7490 hc        1 HC9      0.079000
     45 H11A        0.1950   -1.0870   -0.5070 hc        1 HC9      0.079000
     46 H12         1.1730    0.5280   -2.0280 hc        1 HC9      0.078000
     47 H12A        2.4340    0.7110   -1.0650 hc        1 HC9      0.078000
     48 H14         2.0660    1.7980    1.1400 hc        1 HC9      0.095000
     49 H15        -0.0100    2.0130    2.3750 hc        1 HC9      0.080500
     50 H15A        0.5870    3.2460    1.5120 hc        1 HC9      0.080500
     51 H16        -1.7460    1.7250    0.9010 hc        1 HC9      0.090000
     52 H16A       -1.3170    3.1430    0.2460 hc        1 HC9      0.090000
     53 H17        -0.7390    2.0430   -1.5190 hc        1 HC9      0.078000
     54 H18         2.3540    3.0270   -0.6740 hc        1 HC9      0.072000
     55 H18A        1.6440    2.7380   -2.0760 hc        1 HC9      0.072000
     56 H18B        0.8720    3.5890   -0.9300 hc        1 HC9      0.072000
     57 H19         3.7190   -2.6120    1.1680 hc        1 HC9      0.075667
     58 H19A        2.2540   -2.8550    0.5600 hc        1 HC9      0.075667
     59 H19B        3.3620   -2.0740   -0.2870 hc        1 HC9      0.075667
     60 H20        -0.6410   -0.4470   -0.1000 hc        1 HC9      0.116000
     61 H21         0.1300   -0.6020   -2.2670 hc        1 HC9      0.074667
     62 H21A       -1.1710    0.1300   -2.8250 hc        1 HC9      0.074667
     63 H21B       -1.2790   -1.3510   -2.2140 hc        1 HC9      0.074667
     64 H22        -2.8830    1.0630   -0.5570 h1        1 HC9      0.072000
     65 H23        -3.0170   -1.6410   -1.4700 hc        1 HC9      0.093000
     66 H23A       -3.0780   -0.3820   -2.4480 hc        1 HC9      0.093000
     67 H24        -5.0730   -1.0910   -0.5110 hc        1 HC9      0.078000
     68 H24A       -5.0890    0.3380   -1.2340 hc        1 HC9      0.078000
     69 H25        -4.9830   -1.2710   -3.3250 hc        1 HC9      0.086000
     70 H26        -5.2580   -3.2100   -1.9760 hc        1 HC9      0.073667
     71 H26A       -6.5120   -3.0560   -2.9680 hc        1 HC9      0.073667
     72 H26B       -6.6440   -2.6290   -1.4290 hc        1 HC9      0.073667
     73 H27        -7.3470   -0.2320   -2.0820 hc        1 HC9      0.073667
     74 H27A       -7.3630   -0.8460   -3.5650 hc        1 HC9      0.073667
     75 H27B       -6.5180    0.4860   -3.2560 hc        1 HC9      0.073667
@<TRIPOS>BOND
     1    1    3 1   
     2    1   12 1   
     3    1   30 1   
     4    1   31 1   
     5    2    5 1   
     6    2   32 1   
     7    3    5 1   
     8    3   33 1   
     9    3   34 1   
    10    4   24 1   
    11    4   35 1   
    12    5    6 1   
    13    5   36 1   
    14    6    7 1   
    15    6   37 1   
    16    6   38 1   
    17    7    8 1   
    18    7   12 1   
    19    8   39 1   
    20    9   10 1   
    21    9   40 1   
    22    9   41 1   
    23   10   11 1   
    24   10   16 1   
    25   10   42 1   
    26   11   12 1   
    27   11   13 1   
    28   11   43 1   
    29   12   21 1   
    30   13   14 1   
    31   13   44 1   
    32   13   45 1   
    33   14   15 1   
    34   14   46 1   
    35   14   47 1   
    36   15   16 1   
    37   15   19 1   
    38   15   20 1   
    39   16   17 1   
    40   16   48 1   
    41   17   18 1   
    42   17   49 1   
    43   17   50 1   
    44   18   19 1   
    45   18   51 1   
    46   18   52 1   
    47   19   22 1   
    48   19   53 1   
    49   20   54 1   
    50   20   55 1   
    51   20   56 1   
    52   21   57 1   
    53   21   58 1   
    54   21   59 1   
    55   22   23 1   
    56   22   24 1   
    57   22   60 1   
    58   23   61 1   
    59   23   62 1   
    60   23   63 1   
    61   24   25 1   
    62   24   64 1   
    63   25   26 1   
    64   25   65 1   
    65   25   66 1   
    66   26   27 1   
    67   26   67 1   
    68   26   68 1   
    69   27   28 1   
    70   27   29 1   
    71   27   69 1   
    72   28   70 1   
    73   28   71 1   
    74   28   72 1   
    75   29   73 1   
    76   29   74 1   
    77   29   75 1   
@<TRIPOS>SUBSTRUCTURE
     1 HC9         1 TEMP              0 ****  ****    0 ROOT
