@<TRIPOS>MOLECULE
HC9
   75    78     1     0     0
SMALL
bcc


@<TRIPOS>ATOM
      1 C1          0.0090   -0.0090   -0.0300 c3        1 HC9     -0.066400
      2 O1          3.2000    0.9050    1.7250 oh        1 HC9     -0.602800
      3 C2          1.4520    0.4200    0.1050 c3        1 HC9     -0.113400
      4 O2         -8.2420   -4.4500    1.0620 oh        1 HC9     -0.598800
      5 C3          1.8160    0.6140    1.5710 c3        1 HC9      0.145100
      6 C4          1.5570   -0.6650    2.3630 c3        1 HC9     -0.038200
      7 C5          0.1680   -1.1690    2.1610 c2        1 HC9     -0.111400
      8 C6         -0.5750   -1.5190    3.2210 c2        1 HC9     -0.164200
      9 C7         -1.9490   -2.0580    3.1410 c3        1 HC9     -0.043200
     10 C8         -2.3020   -2.5350    1.7400 c3        1 HC9     -0.047700
     11 C9         -1.8460   -1.5000    0.7030 c3        1 HC9     -0.048700
     12 C10        -0.3120   -1.3010    0.7370 c3        1 HC9      0.000200
     13 C11        -2.3470   -1.8350   -0.6970 c3        1 HC9     -0.075400
     14 C12        -3.8380   -2.1260   -0.7720 c3        1 HC9     -0.065400
     15 C13        -4.2280   -3.2190    0.2100 c3        1 HC9     -0.047000
     16 C14        -3.8010   -2.7140    1.6120 c3        1 HC9     -0.064700
     17 C15        -4.5080   -3.6560    2.5740 c3        1 HC9     -0.077400
     18 C16        -5.8230   -3.9950    1.8710 c3        1 HC9     -0.067400
     19 C17        -5.7490   -3.4360    0.4340 c3        1 HC9     -0.042700
     20 C18        -3.5630   -4.5370   -0.1520 c3        1 HC9     -0.083100
     21 C19         0.4110   -2.4740    0.0800 c3        1 HC9     -0.084100
     22 C20        -6.4690   -4.3170   -0.5800 c3        1 HC9     -0.047700
     23 C21        -6.2710   -3.7940   -1.9940 c3        1 HC9     -0.098100
     24 C22        -7.9900   -4.3990   -0.3360 c3        1 HC9      0.143100
     25 C23        -8.5830   -5.6400   -1.0120 c3        1 HC9     -0.122400
     26 C24       -10.0610   -5.4680   -1.2880 c3        1 HC9     -0.077400
     27 C25       -10.6890   -6.7240   -1.8760 c3        1 HC9     -0.067700
     28 C26       -12.1980   -6.6570   -1.7560 c3        1 HC9     -0.090600
     29 C27       -10.2900   -6.9160   -3.3240 c3        1 HC9     -0.090600
     30 H1         -0.6540    0.8140    0.3470 hc        1 HC9      0.043700
     31 H1A        -0.2230   -0.1610   -1.1170 hc        1 HC9      0.043700
     32 HO1         3.3840    1.6720    1.1710 ho        1 HC9      0.398000
     33 H2          1.6130    1.3790   -0.4520 hc        1 HC9      0.046200
     34 H2A         2.1320   -0.3500   -0.3450 hc        1 HC9      0.046200
     35 H3          1.2120    1.4620    2.0040 h1        1 HC9      0.035700
     36 H4          1.7550   -0.4610    3.4480 hc        1 HC9      0.059700
     37 H4A         2.2940   -1.4490    2.0370 hc        1 HC9      0.059700
     38 H6         -0.1800   -1.4040    4.2450 ha        1 HC9      0.121000
     39 H7         -2.6690   -1.2560    3.4640 hc        1 HC9      0.049700
     40 H7A        -2.0680   -2.9130    3.8600 hc        1 HC9      0.049700
     41 H8         -1.7800   -3.5120    1.5560 hc        1 HC9      0.057700
     42 H9         -2.3130   -0.5160    1.0020 hc        1 HC9      0.047700
     43 H11        -1.7920   -2.7250   -1.0960 hc        1 HC9      0.039700
     44 H11A       -2.1240   -0.9710   -1.3770 hc        1 HC9      0.039700
     45 H12        -4.0870   -2.4300   -1.8210 hc        1 HC9      0.040200
     46 H12A       -4.4200   -1.1950   -0.5440 hc        1 HC9      0.040200
     47 H14        -4.2660   -1.6920    1.7510 hc        1 HC9      0.045700
     48 H15        -3.8980   -4.5770    2.7530 hc        1 HC9      0.039700
     49 H15A       -4.6840   -3.1680    3.5630 hc        1 HC9      0.039700
     50 H16        -6.6870   -3.5370    2.4120 hc        1 HC9      0.052700
     51 H16A       -5.9880   -5.1000    1.8510 hc        1 HC9      0.052700
     52 H17        -6.2460   -2.4260    0.4160 hc        1 HC9      0.046700
     53 H18        -3.8450   -4.8460   -1.1870 hc        1 HC9      0.035033
     54 H18A       -3.8840   -5.3380    0.5570 hc        1 HC9      0.035033
     55 H18B       -2.4510   -4.4560   -0.1110 hc        1 HC9      0.035033
     56 H19         1.5020   -2.4410    0.3130 hc        1 HC9      0.037033
     57 H19A        0.0000   -3.4450    0.4470 hc        1 HC9      0.037033
     58 H19B        0.2940   -2.4320   -1.0300 hc        1 HC9      0.037033
     59 H20        -6.0520   -5.3600   -0.5050 hc        1 HC9      0.056700
     60 H21        -5.2600   -4.0680   -2.3790 hc        1 HC9      0.036367
     61 H21A       -7.0280   -4.2230   -2.6950 hc        1 HC9      0.036367
     62 H21B       -6.3720   -2.6810   -2.0150 hc        1 HC9      0.036367
     63 H22        -8.4750   -3.4680   -0.7510 h1        1 HC9      0.031700
     64 H23        -8.0440   -5.8460   -1.9720 hc        1 HC9      0.055200
     65 H23A       -8.4190   -6.5240   -0.3410 hc        1 HC9      0.055200
     66 H24       -10.2170   -4.6090   -1.9930 hc        1 HC9      0.037700
     67 H24A      -10.5900   -5.2110   -0.3310 hc        1 HC9      0.037700
     68 H25       -10.3260   -7.6140   -1.2860 hc        1 HC9      0.048700
     69 H26       -12.5030   -6.5860   -0.6840 hc        1 HC9      0.034033
     70 H26A      -12.6620   -7.5710   -2.1970 hc        1 HC9      0.034033
     71 H26B      -12.5940   -5.7630   -2.2960 hc        1 HC9      0.034033
     72 H27        -9.1810   -7.0100   -3.4180 hc        1 HC9      0.034033
     73 H27A      -10.6250   -6.0490   -3.9430 hc        1 HC9      0.034033
     74 H27B      -10.7580   -7.8440   -3.7340 hc        1 HC9      0.034033
     75 HO2        -9.1930   -4.5760    1.1670 ho        1 HC9      0.397000
@<TRIPOS>BOND
     1    1    3 1   
     2    1   12 1   
     3    1   30 1   
     4    1   31 1   
     5    2    5 1   
     6    2   32 1   
     7    3    5 1   
     8    3   33 1   
     9    3   34 1   
    10    4   24 1   
    11    4   75 1   
    12    5    6 1   
    13    5   35 1   
    14    6    7 1   
    15    6   36 1   
    16    6   37 1   
    17    7    8 2   
    18    7   12 1   
    19    8    9 1   
    20    8   38 1   
    21    9   10 1   
    22    9   39 1   
    23    9   40 1   
    24   10   11 1   
    25   10   16 1   
    26   10   41 1   
    27   11   12 1   
    28   11   13 1   
    29   11   42 1   
    30   12   21 1   
    31   13   14 1   
    32   13   43 1   
    33   13   44 1   
    34   14   15 1   
    35   14   45 1   
    36   14   46 1   
    37   15   16 1   
    38   15   19 1   
    39   15   20 1   
    40   16   17 1   
    41   16   47 1   
    42   17   18 1   
    43   17   48 1   
    44   17   49 1   
    45   18   19 1   
    46   18   50 1   
    47   18   51 1   
    48   19   22 1   
    49   19   52 1   
    50   20   53 1   
    51   20   54 1   
    52   20   55 1   
    53   21   56 1   
    54   21   57 1   
    55   21   58 1   
    56   22   23 1   
    57   22   24 1   
    58   22   59 1   
    59   23   60 1   
    60   23   61 1   
    61   23   62 1   
    62   24   25 1   
    63   24   63 1   
    64   25   26 1   
    65   25   64 1   
    66   25   65 1   
    67   26   27 1   
    68   26   66 1   
    69   26   67 1   
    70   27   28 1   
    71   27   29 1   
    72   27   68 1   
    73   28   69 1   
    74   28   70 1   
    75   28   71 1   
    76   29   72 1   
    77   29   73 1   
    78   29   74 1   
@<TRIPOS>SUBSTRUCTURE
     1 HC9         1 TEMP              0 ****  ****    0 ROOT
