@<TRIPOS>MOLECULE
HCA
   21    20     1     0     0
SMALL
bcc


@<TRIPOS>ATOM
      1 C1          0.1810    0.5780   -0.2840 c         1 HCA      0.912600
      2 C2          1.4570   -0.1820    0.0740 c3        1 HCA     -0.184400
      3 C3          1.9840   -0.1800    1.5220 c3        1 HCA      0.066800
      4 C4          3.5250   -0.1150    1.4880 c3        1 HCA     -0.033400
      5 C5          4.1850    0.0890    2.8320 c3        1 HCA     -0.161400
      6 C6          5.6930    0.3270    2.7840 c         1 HCA      0.897600
      7 C7          1.5110   -1.4740    2.2450 c         1 HCA      0.902600
      8 O1         -0.6160    1.0540    0.5790 o         1 HCA     -0.899800
      9 O2         -0.0750    0.7120   -1.5320 o         1 HCA     -0.899800
     10 O3          6.3130    0.5050    1.6880 o         1 HCA     -0.904800
     11 O4          6.3310    0.3630    3.8900 o         1 HCA     -0.904800
     12 O5          0.7850   -1.3710    3.2810 o         1 HCA     -0.884300
     13 O6          1.8440   -2.6090    1.7800 o         1 HCA     -0.884300
     14 O7          1.5370    0.9710    2.2270 oh        1 HCA     -0.629800
     15 H21         2.2540    0.2260   -0.6040 hc        1 HCA      0.026700
     16 H22         1.2900   -1.2520   -0.2220 hc        1 HCA      0.026700
     17 H41         3.8400    0.7240    0.8140 hc        1 HCA      0.027200
     18 H42         3.8850   -1.0750    1.0360 hc        1 HCA      0.027200
     19 H51         3.7200    0.9750    3.3390 hc        1 HCA      0.035700
     20 H52         3.9900   -0.8020    3.4830 hc        1 HCA      0.035700
     21 HO7         0.5810    0.8490    2.3280 ho        1 HCA      0.427000
@<TRIPOS>BOND
     1    1    2 1   
     2    1    8 1   
     3    1    9 1   
     4    2    3 1   
     5    2   15 1   
     6    2   16 1   
     7    3    4 1   
     8    3    7 1   
     9    3   14 1   
    10    4    5 1   
    11    4   17 1   
    12    4   18 1   
    13    5    6 1   
    14    5   19 1   
    15    5   20 1   
    16    6   10 1   
    17    6   11 1   
    18    7   12 1   
    19    7   13 1   
    20   14   21 1   
@<TRIPOS>SUBSTRUCTURE
     1 HCA         1 TEMP              0 ****  ****    0 ROOT
