@<TRIPOS>MOLECULE
HCA
   21    20     1     0     0
SMALL
bcc


@<TRIPOS>ATOM
      1 C1          1.2270    0.2920   -2.7990 c         1 HCA      0.912600
      2 C2          0.9380   -0.4970   -1.5230 c3        1 HCA     -0.184400
      3 C3          0.0390    0.1000   -0.4240 c3        1 HCA      0.066800
      4 C4          0.6100   -0.2930    0.9540 c3        1 HCA     -0.033400
      5 C5         -0.0510    0.3780    2.1350 c3        1 HCA     -0.161400
      6 C6          0.6220    0.1260    3.4830 c         1 HCA      0.897600
      7 C7         -1.4090   -0.4480   -0.5880 c         1 HCA      0.902600
      8 O1          0.5990    1.3430   -3.1290 o         1 HCA     -0.899800
      9 O2          2.1490   -0.1660   -3.5600 o         1 HCA     -0.899800
     10 O3          1.7420   -0.4660    3.5770 o         1 HCA     -0.904800
     11 O4          0.0330    0.5460    4.5360 o         1 HCA     -0.904800
     12 O5         -2.3580    0.3700   -0.7920 o         1 HCA     -0.884300
     13 O6         -1.6150   -1.7010   -0.5300 o         1 HCA     -0.884300
     14 O7          0.0380    1.5210   -0.4810 oh        1 HCA     -0.629800
     15 H21         1.9420   -0.7380   -1.0800 hc        1 HCA      0.026700
     16 H22         0.4790   -1.4700   -1.8420 hc        1 HCA      0.026700
     17 H41         1.7040   -0.0460    0.9790 hc        1 HCA      0.026700
     18 H42         0.5060   -1.4050    1.0470 hc        1 HCA      0.026700
     19 H51        -1.1180    0.0430    2.2050 hc        1 HCA      0.035700
     20 H52        -0.0650    1.4860    1.9660 hc        1 HCA      0.035700
     21 HO7        -0.4240    1.7400   -1.3040 ho        1 HCA      0.427000
@<TRIPOS>BOND
     1    1    2 1   
     2    1    8 1   
     3    1    9 1   
     4    2    3 1   
     5    2   15 1   
     6    2   16 1   
     7    3    4 1   
     8    3    7 1   
     9    3   14 1   
    10    4    5 1   
    11    4   17 1   
    12    4   18 1   
    13    5    6 1   
    14    5   19 1   
    15    5   20 1   
    16    6   10 1   
    17    6   11 1   
    18    7   12 1   
    19    7   13 1   
    20   14   21 1   
@<TRIPOS>SUBSTRUCTURE
     1 HCA         1 TEMP              0 ****  ****    0 ROOT
