@<TRIPOS>MOLECULE
HCA
   21    20     1     0     0
SMALL
bcc


@<TRIPOS>ATOM
      1 C1          0.1690    0.5900   -0.2640 c         1 HCA      0.912600
      2 C2          1.4500   -0.1690    0.0790 c3        1 HCA     -0.184400
      3 C3          1.9840   -0.1830    1.5240 c3        1 HCA      0.066800
      4 C4          3.5250   -0.1090    1.4830 c3        1 HCA     -0.033400
      5 C5          4.1910    0.0820    2.8260 c3        1 HCA     -0.161400
      6 C6          5.6970    0.3280    2.7730 c         1 HCA      0.897600
      7 C7          1.5220   -1.4890    2.2320 c         1 HCA      0.902600
      8 O1         -0.6280    1.0480    0.6100 o         1 HCA     -0.899800
      9 O2         -0.0930    0.7410   -1.5080 o         1 HCA     -0.899800
     10 O3          6.3110    0.5220    1.6770 o         1 HCA     -0.904800
     11 O4          6.3400    0.3550    3.8770 o         1 HCA     -0.904800
     12 O5          0.8010   -1.4030    3.2740 o         1 HCA     -0.884300
     13 O6          1.8590   -2.6160    1.7510 o         1 HCA     -0.884300
     14 O7          1.5340    0.9560    2.2450 oh        1 HCA     -0.629800
     15 H21         1.2860   -1.2360   -0.2300 hc        1 HCA      0.026700
     16 H22         2.2420    0.2500   -0.5980 hc        1 HCA      0.026700
     17 H41         3.8880   -1.0610    1.0160 hc        1 HCA      0.026700
     18 H42         3.8320    0.7410    0.8180 hc        1 HCA      0.026700
     19 H51         3.7230    0.9580    3.3470 hc        1 HCA      0.035700
     20 H52         4.0030   -0.8190    3.4660 hc        1 HCA      0.035700
     21 HO7         0.5800    0.8280    2.3500 ho        1 HCA      0.427000
@<TRIPOS>BOND
     1    1    2 1   
     2    1    8 1   
     3    1    9 1   
     4    2    3 1   
     5    2   15 1   
     6    2   16 1   
     7    3    4 1   
     8    3    7 1   
     9    3   14 1   
    10    4    5 1   
    11    4   17 1   
    12    4   18 1   
    13    5    6 1   
    14    5   19 1   
    15    5   20 1   
    16    6   10 1   
    17    6   11 1   
    18    7   12 1   
    19    7   13 1   
    20   14   21 1   
@<TRIPOS>SUBSTRUCTURE
     1 HCA         1 TEMP              0 ****  ****    0 ROOT
