@<TRIPOS>MOLECULE
HCC
   31    32     1     0     0
SMALL
bcc


@<TRIPOS>ATOM
      1 C1         -1.3650   -0.1870   -4.4960 ca        1 HCC      0.188100
      2 C2         -1.8210   -0.6510   -3.2450 ca        1 HCC     -0.208000
      3 C3         -0.9960   -0.5180   -2.1420 ca        1 HCC     -0.025000
      4 C4          0.2820    0.0620   -2.2350 ca        1 HCC     -0.291600
      5 C5          0.7300    0.4900   -3.5030 ca        1 HCC      0.238100
      6 C6         -0.1000    0.3810   -4.6370 ca        1 HCC     -0.274000
      7 C7          1.1190    0.1880   -1.0310 c         1 HCC      0.595900
      8 C8          0.4240    0.2590    0.2640 ce        1 HCC     -0.269200
      9 C9          1.0590   -0.0090    1.4180 cf        1 HCC     -0.012200
     10 O10         1.9500    1.0500   -3.7540 oh        1 HCC     -0.501100
     11 C11         0.4620    0.0430    2.7380 ca        1 HCC     -0.120800
     12 C12         1.1410   -0.5600    3.8140 ca        1 HCC     -0.067000
     13 C13         0.6120   -0.5390    5.0970 ca        1 HCC     -0.191500
     14 C14        -0.6190    0.1040    5.3180 ca        1 HCC      0.142100
     15 C15        -1.3060    0.7180    4.2610 ca        1 HCC     -0.191500
     16 C16        -0.7620    0.6830    2.9810 ca        1 HCC     -0.067000
     17 O17         2.3620    0.2470   -1.1020 o         1 HCC     -0.583100
     18 O18        -1.0930    0.0940    6.6070 oh        1 HCC     -0.492100
     19 O19        -2.2290   -0.3330   -5.5510 oh        1 HCC     -0.490100
     20 H2         -2.8160   -1.1090   -3.1680 ha        1 HCC      0.156000
     21 H3         -1.3470   -0.8940   -1.1670 ha        1 HCC      0.141000
     22 H6          0.2700    0.7370   -5.6090 ha        1 HCC      0.157000
     23 H8         -0.6340    0.5610    0.2300 ha        1 HCC      0.139000
     24 H9          2.1270   -0.3070    1.3890 ha        1 HCC      0.146000
     25 H10         2.5020    1.0230   -2.9540 ho        1 HCC      0.460000
     26 H12         2.1060   -1.0590    3.6350 ha        1 HCC      0.139000
     27 H13         1.1360   -1.0120    5.9390 ha        1 HCC      0.146500
     28 H15        -2.2650    1.2240    4.4430 ha        1 HCC      0.146500
     29 H16        -1.3000    1.1730    2.1550 ha        1 HCC      0.139000
     30 H18        -1.9360    0.5700    6.6220 ho        1 HCC      0.423000
     31 H19        -1.7980    0.0140   -6.3470 ho        1 HCC      0.427000
@<TRIPOS>BOND
     1    1    2 ar  
     2    1    6 ar  
     3    1   19 1   
     4    2    3 ar  
     5    2   20 1   
     6    3    4 ar  
     7    3   21 1   
     8    4    5 ar  
     9    4    7 1   
    10    5    6 ar  
    11    5   10 1   
    12    6   22 1   
    13    7    8 1   
    14    7   17 2   
    15    8    9 2   
    16    8   23 1   
    17    9   11 1   
    18    9   24 1   
    19   10   25 1   
    20   11   12 ar  
    21   11   16 ar  
    22   12   13 ar  
    23   12   26 1   
    24   13   14 ar  
    25   13   27 1   
    26   14   15 ar  
    27   14   18 1   
    28   15   16 ar  
    29   15   28 1   
    30   16   29 1   
    31   18   30 1   
    32   19   31 1   
@<TRIPOS>SUBSTRUCTURE
     1 HCC         1 TEMP              0 ****  ****    0 ROOT
