@<TRIPOS>MOLECULE
HCC
   31    32     1     0     0
SMALL
bcc


@<TRIPOS>ATOM
      1 C1          1.0620   -0.1150    0.0260 ca        1 HCC      0.188100
      2 C2          2.0580    0.8720    0.1500 ca        1 HCC     -0.201000
      3 C3          2.4950    1.2260    1.4180 ca        1 HCC     -0.025000
      4 C4          1.9840    0.6150    2.5750 ca        1 HCC     -0.235600
      5 C5          0.9790   -0.3590    2.4260 ca        1 HCC      0.209100
      6 C6          0.5130   -0.7310    1.1550 ca        1 HCC     -0.318000
      7 C7          2.5290    1.0450    3.8830 c         1 HCC      0.595900
      8 C8          2.5920    0.0250    4.9440 ce        1 HCC     -0.225200
      9 C9          3.6820   -0.5980    5.4060 cf        1 HCC     -0.061200
     10 O10         0.4490   -0.9250    3.5600 oh        1 HCC     -0.493100
     11 C11         5.0600   -0.4490    4.9710 ca        1 HCC     -0.099800
     12 C12         6.0900   -0.7420    5.8840 ca        1 HCC     -0.075500
     13 C13         7.4240   -0.6310    5.5210 ca        1 HCC     -0.186500
     14 C14         7.7450   -0.2250    4.2140 ca        1 HCC      0.132100
     15 C15         6.7340    0.0640    3.2870 ca        1 HCC     -0.186500
     16 C16         5.4020   -0.0480    3.6730 ca        1 HCC     -0.075500
     17 O17         2.8990    2.2130    4.0600 o         1 HCC     -0.526100
     18 O18         9.0830   -0.1380    3.9080 oh        1 HCC     -0.496100
     19 O19         0.6680   -0.4280   -1.2500 oh        1 HCC     -0.488100
     20 H2          2.4660    1.3490   -0.7520 ha        1 HCC      0.159000
     21 H3          3.2610    2.0110    1.5380 ha        1 HCC      0.158000
     22 H6         -0.2720   -1.4920    1.0520 ha        1 HCC      0.139000
     23 H8          1.5990   -0.2110    5.3700 ha        1 HCC      0.159000
     24 H9          3.5510   -1.3260    6.2310 ha        1 HCC      0.126000
     25 H10        -0.2400   -1.5520    3.2940 ho        1 HCC      0.425000
     26 H12         5.8320   -1.0600    6.9070 ha        1 HCC      0.136000
     27 H13         8.2310   -0.8520    6.2330 ha        1 HCC      0.143000
     28 H15         6.9910    0.3800    2.2660 ha        1 HCC      0.143000
     29 H16         4.6090    0.1830    2.9430 ha        1 HCC      0.136000
     30 H18         9.1610    0.1700    2.9940 ho        1 HCC      0.420000
     31 H19        -0.0190   -1.1090   -1.1980 ho        1 HCC      0.424000
@<TRIPOS>BOND
     1    1    2 ar  
     2    1    6 ar  
     3    1   19 1   
     4    2    3 ar  
     5    2   20 1   
     6    3    4 ar  
     7    3   21 1   
     8    4    5 ar  
     9    4    7 1   
    10    5    6 ar  
    11    5   10 1   
    12    6   22 1   
    13    7    8 1   
    14    7   17 2   
    15    8    9 2   
    16    8   23 1   
    17    9   11 1   
    18    9   24 1   
    19   10   25 1   
    20   11   12 ar  
    21   11   16 ar  
    22   12   13 ar  
    23   12   26 1   
    24   13   14 ar  
    25   13   27 1   
    26   14   15 ar  
    27   14   18 1   
    28   15   16 ar  
    29   15   28 1   
    30   16   29 1   
    31   18   30 1   
    32   19   31 1   
@<TRIPOS>SUBSTRUCTURE
     1 HCC         1 TEMP              0 ****  ****    0 ROOT
