@<TRIPOS>MOLECULE
HCC
   31    32     1     0     0
SMALL
bcc


@<TRIPOS>ATOM
      1 C1          1.0280   -0.0800    0.0130 ca        1 HCC      0.187100
      2 C2          2.0470    0.8840    0.1270 ca        1 HCC     -0.200000
      3 C3          2.4980    1.2340    1.3900 ca        1 HCC     -0.024000
      4 C4          1.9780    0.6420    2.5540 ca        1 HCC     -0.235600
      5 C5          0.9500   -0.3090    2.4150 ca        1 HCC      0.208100
      6 C6          0.4690   -0.6770    1.1480 ca        1 HCC     -0.318000
      7 C7          2.5370    1.0680    3.8570 c         1 HCC      0.595900
      8 C8          2.5970    0.0460    4.9180 ce        1 HCC     -0.224200
      9 C9          3.6850   -0.5870    5.3690 cf        1 HCC     -0.063200
     10 O10         0.4130   -0.8560    3.5550 oh        1 HCC     -0.494100
     11 C11         5.0590   -0.4500    4.9150 ca        1 HCC     -0.098800
     12 C12         6.0980   -0.7090    5.8240 ca        1 HCC     -0.076500
     13 C13         7.4290   -0.6070    5.4340 ca        1 HCC     -0.186000
     14 C14         7.7310   -0.2490    4.1120 ca        1 HCC      0.131100
     15 C15         6.7070    0.0060    3.1870 ca        1 HCC     -0.186000
     16 C16         5.3830   -0.0950    3.5980 ca        1 HCC     -0.076500
     17 O17         2.9200    2.2310    4.0320 o         1 HCC     -0.524100
     18 O18         9.0210   -0.1350    3.6500 oh        1 HCC     -0.496100
     19 O19         0.6190   -0.3910   -1.2590 oh        1 HCC     -0.487100
     20 H2          2.4620    1.3450   -0.7790 ha        1 HCC      0.160000
     21 H3          3.2830    2.0020    1.5020 ha        1 HCC      0.159000
     22 H6         -0.3340   -1.4200    1.0530 ha        1 HCC      0.139000
     23 H8          1.6050   -0.1790    5.3520 ha        1 HCC      0.159000
     24 H9          3.5580   -1.3130    6.1970 ha        1 HCC      0.125000
     25 H10        -0.2930   -1.4670    3.2960 ho        1 HCC      0.425000
     26 H12         5.8570   -0.9900    6.8610 ha        1 HCC      0.136500
     27 H13         8.2360   -0.8030    6.1540 ha        1 HCC      0.143000
     28 H15         6.9640    0.2840    2.1550 ha        1 HCC      0.143000
     29 H16         4.5770    0.1090    2.8730 ha        1 HCC      0.136500
     30 H18         9.6200   -0.3160    4.3890 ho        1 HCC      0.420000
     31 H19        -0.0820   -1.0570   -1.2000 ho        1 HCC      0.424000
@<TRIPOS>BOND
     1    1    2 ar  
     2    1    6 ar  
     3    1   19 1   
     4    2    3 ar  
     5    2   20 1   
     6    3    4 ar  
     7    3   21 1   
     8    4    5 ar  
     9    4    7 1   
    10    5    6 ar  
    11    5   10 1   
    12    6   22 1   
    13    7    8 1   
    14    7   17 2   
    15    8    9 2   
    16    8   23 1   
    17    9   11 1   
    18    9   24 1   
    19   10   25 1   
    20   11   12 ar  
    21   11   16 ar  
    22   12   13 ar  
    23   12   26 1   
    24   13   14 ar  
    25   13   27 1   
    26   14   15 ar  
    27   14   18 1   
    28   15   16 ar  
    29   15   28 1   
    30   16   29 1   
    31   18   30 1   
    32   19   31 1   
@<TRIPOS>SUBSTRUCTURE
     1 HCC         1 TEMP              0 ****  ****    0 ROOT
