@<TRIPOS>MOLECULE
HCC
   31    26     1     0     0
SMALL
bcc


@<TRIPOS>ATOM
      1 C1         -1.9250   -1.0190   -4.1170 c1        1 HCC      0.115500
      2 C2         -0.5400   -1.0780   -4.1100 c1        1 HCC     -0.140500
      3 C3          0.1550   -0.9060   -2.9230 c1        1 HCC     -0.140500
      4 C4         -0.5340   -0.6750   -1.7430 c1        1 HCC     -0.212000
      5 C5         -1.9190   -0.6160   -1.7500 c1        1 HCC      0.170000
      6 C6         -2.6140   -0.7880   -2.9370 c1        1 HCC     -0.213000
      7 C7          0.2250   -0.5140   -0.4420 c2        1 HCC      0.315000
      8 C8          1.7350   -0.6060   -0.4310 c2        1 HCC     -0.227000
      9 C9          2.4300   -0.1730    0.6420 c1        1 HCC     -0.067000
     10 O10        -2.6200   -0.4290   -0.5450 oh        1 HCC     -0.216000
     11 C11         1.6980    0.4060    1.8340 c1        1 HCC     -0.100000
     12 C12         1.5060    1.7750    1.9310 c2        1 HCC     -0.077000
     13 C13         0.9150    2.3140    3.0630 c1        1 HCC     -0.219000
     14 C14         0.5150    1.4840    4.0980 c1        1 HCC      0.115500
     15 C15         0.7070    0.1140    4.0020 c1        1 HCC     -0.213000
     16 C16         1.2980   -0.4250    2.8700 c1        1 HCC     -0.075000
     17 O17        -0.3800   -0.3230    0.5940 o         1 HCC     -0.274000
     18 O18        -0.1110    2.0280    5.2350 oh        1 HCC     -0.247500
     19 O19        -2.6310   -1.1950   -5.3220 oh        1 HCC     -0.247500
     20 H2         -0.0550   -1.2410   -4.9410 ha        1 HCC      0.140500
     21 H3          1.1310   -0.9480   -2.9190 ha        1 HCC      0.140500
     22 H6         -3.5900   -0.7460   -2.9410 ha        1 HCC      0.155500
     23 H8          2.2070   -0.9790   -1.2000 ha        1 HCC      0.142000
     24 H9          3.4040   -0.2320    0.6490 ha        1 HCC      0.125000
     25 H10        -3.1990   -1.0950   -0.4320 ho        1 HCC      0.222000
     26 H12         1.7870    2.3600    1.2020 ha        1 HCC      0.131000
     27 H13         0.7800    3.2780    3.1310 ha        1 HCC      0.133000
     28 H15         0.4260   -0.4700    4.7310 ha        1 HCC      0.155500
     29 H16         1.4330   -1.3890    2.8020 ha        1 HCC      0.162000
     30 H18         0.4810    2.4990    5.7020 ho        1 HCC      0.221500
     31 H19        -2.7170   -0.4100   -5.7320 ho        1 HCC      0.221500
@<TRIPOS>BOND
     1    1    6 1   
     2    1   19 1   
     3    2    3 1   
     4    2   20 1   
     5    3   21 1   
     6    4    5 1   
     7    4    7 1   
     8    5   10 1   
     9    6   22 1   
    10    7    8 1   
    11    7   17 1   
    12    8    9 1   
    13    8   23 1   
    14    9   24 1   
    15   10   25 1   
    16   11   12 1   
    17   11   16 1   
    18   12   13 1   
    19   12   26 1   
    20   13   27 1   
    21   14   15 1   
    22   14   18 1   
    23   15   28 1   
    24   16   29 1   
    25   18   30 1   
    26   19   31 1   
@<TRIPOS>SUBSTRUCTURE
     1 HCC         1 TEMP              0 ****  ****    0 ROOT
