@<TRIPOS>MOLECULE
HCD
   75    77     1     0     0
SMALL
bcc


@<TRIPOS>ATOM
      1 C1          2.8430    2.8020    0.7800 c3        1 HCD     -0.144000
      2 O1          6.4060    2.5490    1.7790 oh        1 HCD     -0.330000
      3 C2          4.3310    2.8400    0.6710 c3        1 HCD     -0.191000
      4 O2          0.2360   -0.0070    0.1000 oh        1 HCD     -0.323000
      5 C3          5.0210    2.6460    1.9990 c3        1 HCD      0.033000
      6 C4          4.5410    1.3580    2.7610 c3        1 HCD     -0.121000
      7 C5          3.0010    1.3700    2.8310 c2        1 HCD     -0.101000
      8 C6          2.1330    0.3750    3.9930 c1        1 HCD     -0.161000
      9 C7          0.5740    0.4230    3.8670 c2        1 HCD     -0.126000
     10 C8          0.0810    0.5930    2.2690 c3        1 HCD     -0.094000
     11 C9          0.7220    1.6600    1.5570 c3        1 HCD     -0.080000
     12 C10         2.3280    1.5670    1.5080 c3        1 HCD     -0.002000
     13 C11         0.1320    1.8290   -0.0080 c3        1 HCD     -0.162000
     14 C12        -1.2260    1.9760   -0.0330 c3        1 HCD     -0.141000
     15 C13        -1.9910    0.8590    0.8090 c3        1 HCD     -0.027000
     16 C14        -1.4430    0.6740    2.2430 c3        1 HCD     -0.088000
     17 C15        -1.7640   -0.8280    2.5920 c3        1 HCD     -0.157000
     18 C16        -2.5030   -1.2200    1.6930 c3        1 HCD     -0.158000
     19 C17        -2.1460   -0.2630    0.3510 c3        1 HCD     -0.072000
     20 C18        -3.4210    1.4170    0.9890 c3        1 HCD     -0.213000
     21 C19         2.6870    0.3440    0.6380 c3        1 HCD     -0.203000
     22 C20        -0.8350   -0.7630   -0.3410 c3        1 HCD      0.094000
     23 C21        -0.6040   -2.2020    0.0060 c3        1 HCD     -0.249000
     24 C22        -0.9690   -0.6230   -1.8350 c3        1 HCD     -0.188000
     25 C23        -1.5220   -1.9710   -2.4450 c3        1 HCD     -0.157000
     26 C24        -1.9710   -1.7310   -3.9040 c3        1 HCD     -0.155000
     27 C25        -2.2450   -3.1110   -4.6040 c3        1 HCD     -0.107000
     28 C26        -3.7700   -3.3040   -4.7770 c3        1 HCD     -0.208000
     29 C27        -1.5580   -3.1330   -6.0010 c3        1 HCD     -0.208000
     30 H1          2.5430    3.5980    1.2620 hc        1 HCD      0.082000
     31 H1A         2.4600    2.8170   -0.1240 hc        1 HCD      0.082000
     32 HO1         6.8250    3.1910    2.2340 ho        1 HCD      0.197000
     33 H2          4.6190    2.1370    0.0630 hc        1 HCD      0.085000
     34 H2A         4.5990    3.7080    0.2990 hc        1 HCD      0.085000
     35 HO2         0.9950   -0.3700   -0.1920 ho        1 HCD      0.194000
     36 H3          4.8450    3.4300    2.5640 h1        1 HCD      0.075000
     37 H4          4.8590    0.5010    2.4130 hc        1 HCD      0.098500
     38 H4A         4.9500    1.3580    3.6570 hc        1 HCD      0.098500
     39 H6          2.5470    0.1470    4.8480 ha        1 HCD      0.119000
     40 H7          0.0740   -0.3340    4.2220 ha        1 HCD      0.085000
     41 H7A         0.2590    1.1450    4.4550 ha        1 HCD      0.085000
     42 H8          0.3250   -0.2270    1.8140 hc        1 HCD      0.116000
     43 H9          0.5020    2.4870    2.0340 hc        1 HCD      0.083000
     44 H11         0.5390    2.6070   -0.4140 hc        1 HCD      0.090000
     45 H11A        0.3720    1.0460   -0.5200 hc        1 HCD      0.090000
     46 H12        -1.5250    1.9320   -0.9490 hc        1 HCD      0.077000
     47 H12A       -1.4540    2.8560    0.3320 hc        1 HCD      0.077000
     48 H14        -1.8120    1.3050    2.8920 hc        1 HCD      0.085000
     49 H15        -2.2240   -0.8850    3.4590 hc        1 HCD      0.080000
     50 H15A       -0.9330   -1.3610    2.6090 hc        1 HCD      0.080000
     51 H16        -2.3190   -2.1710    1.4920 hc        1 HCD      0.086500
     52 H16A       -3.4410   -1.1040    1.9520 hc        1 HCD      0.086500
     53 H17        -2.8950   -0.2720   -0.2850 hc        1 HCD      0.084000
     54 H18        -3.9750    0.7510    1.4280 hc        1 HCD      0.072667
     55 H18A       -3.8030    1.6330    0.1060 hc        1 HCD      0.072667
     56 H18B       -3.3880    2.2410    1.5470 hc        1 HCD      0.072667
     57 H19         2.3960    0.5030   -0.2840 hc        1 HCD      0.077667
     58 H19A        3.6680    0.2030    0.6550 hc        1 HCD      0.077667
     59 H19B        2.2380   -0.4480    0.9890 hc        1 HCD      0.077667
     60 H21        -0.3690   -2.2750    0.9490 hc        1 HCD      0.081667
     61 H21A        0.1310   -2.5590   -0.5440 hc        1 HCD      0.081667
     62 H21B       -1.4230   -2.7160   -0.1680 hc        1 HCD      0.081667
     63 H22        -0.0980   -0.4250   -2.2220 hc        1 HCD      0.086500
     64 H22A       -1.5900    0.1060   -2.0400 hc        1 HCD      0.086500
     65 H23        -0.8170   -2.6510   -2.4280 hc        1 HCD      0.084000
     66 H23A       -2.2880   -2.2790   -1.9150 hc        1 HCD      0.084000
     67 H24        -2.7850   -1.1990   -3.9080 hc        1 HCD      0.079500
     68 H24A       -1.2710   -1.2560   -4.3850 hc        1 HCD      0.079500
     69 H25        -1.8840   -3.8350   -4.0520 hc        1 HCD      0.085000
     70 H26        -4.1460   -2.5300   -5.2450 hc        1 HCD      0.072833
     71 H26A       -4.1900   -3.3890   -3.8950 hc        1 HCD      0.072833
     72 H26B       -3.9410   -4.1230   -5.3040 hc        1 HCD      0.072833
     73 H27        -1.9420   -2.4240   -6.5670 hc        1 HCD      0.072833
     74 H27A       -1.7070   -4.0120   -6.4280 hc        1 HCD      0.072833
     75 H27B       -0.5940   -2.9800   -5.8950 hc        1 HCD      0.072833
@<TRIPOS>BOND
     1    1    3 1   
     2    1   12 1   
     3    1   30 1   
     4    1   31 1   
     5    2    5 1   
     6    2   32 1   
     7    3    5 1   
     8    3   33 1   
     9    3   34 1   
    10    4   22 1   
    11    4   35 1   
    12    5    6 1   
    13    5   36 1   
    14    6    7 1   
    15    6   37 1   
    16    6   38 1   
    17    7    8 1   
    18    7   12 1   
    19    8   39 1   
    20    9   10 1   
    21    9   40 1   
    22    9   41 1   
    23   10   11 1   
    24   10   16 1   
    25   10   42 1   
    26   11   12 1   
    27   11   13 1   
    28   11   43 1   
    29   12   21 1   
    30   13   14 1   
    31   13   44 1   
    32   13   45 1   
    33   14   15 1   
    34   14   46 1   
    35   14   47 1   
    36   15   16 1   
    37   15   19 1   
    38   15   20 1   
    39   16   17 1   
    40   16   48 1   
    41   17   18 1   
    42   17   49 1   
    43   17   50 1   
    44   18   19 1   
    45   18   51 1   
    46   18   52 1   
    47   19   22 1   
    48   19   53 1   
    49   20   54 1   
    50   20   55 1   
    51   20   56 1   
    52   21   57 1   
    53   21   58 1   
    54   21   59 1   
    55   22   23 1   
    56   22   24 1   
    57   23   60 1   
    58   23   61 1   
    59   23   62 1   
    60   24   25 1   
    61   24   63 1   
    62   24   64 1   
    63   25   26 1   
    64   25   65 1   
    65   25   66 1   
    66   26   27 1   
    67   26   67 1   
    68   26   68 1   
    69   27   28 1   
    70   27   29 1   
    71   27   69 1   
    72   28   70 1   
    73   28   71 1   
    74   28   72 1   
    75   29   73 1   
    76   29   74 1   
    77   29   75 1   
@<TRIPOS>SUBSTRUCTURE
     1 HCD         1 TEMP              0 ****  ****    0 ROOT
