@<TRIPOS>MOLECULE
HCD
   75    78     1     0     0
SMALL
bcc


@<TRIPOS>ATOM
      1 C1          0.0260   -0.0020   -0.0080 c3        1 HCD     -0.066400
      2 O1          3.0660    1.0860    1.9090 oh        1 HCD     -0.601800
      3 C2          1.4440    0.4760    0.2020 c3        1 HCD     -0.113400
      4 O2         -5.7910   -5.8360   -0.8150 oh        1 HCD     -0.594800
      5 C3          1.7030    0.7460    1.6780 c3        1 HCD      0.145100
      6 C4          1.4280   -0.5040    2.5090 c3        1 HCD     -0.039200
      7 C5          0.0700   -1.0600    2.2400 c2        1 HCD     -0.109400
      8 C6         -0.7310   -1.3880    3.2640 c2        1 HCD     -0.166200
      9 C7         -2.0800   -1.9740    3.1190 c3        1 HCD     -0.043200
     10 C8         -2.3260   -2.5190    1.7200 c3        1 HCD     -0.046700
     11 C9         -1.8330   -1.5130    0.6710 c3        1 HCD     -0.048700
     12 C10        -0.3110   -1.2680    0.7950 c3        1 HCD      0.000200
     13 C11        -2.2320   -1.9140   -0.7450 c3        1 HCD     -0.075400
     14 C12        -3.7020   -2.2700   -0.9050 c3        1 HCD     -0.065400
     15 C13        -4.1130   -3.3370    0.0990 c3        1 HCD     -0.038000
     16 C14        -3.8070   -2.7490    1.5000 c3        1 HCD     -0.066700
     17 C15        -4.5590   -3.6590    2.4590 c3        1 HCD     -0.073400
     18 C16        -5.8080   -4.0800    1.6810 c3        1 HCD     -0.077400
     19 C17        -5.6340   -3.6000    0.2270 c3        1 HCD     -0.084700
     20 C18        -3.3740   -4.6360   -0.1660 c3        1 HCD     -0.081100
     21 C19         0.4860   -2.4460    0.2400 c3        1 HCD     -0.084100
     22 C20        -6.3220   -4.5140   -0.8050 c3        1 HCD      0.165800
     23 C21        -6.1090   -3.9880   -2.2220 c3        1 HCD     -0.086100
     24 C22        -7.8260   -4.5510   -0.4730 c3        1 HCD     -0.109400
     25 C23        -8.6030   -5.5320   -1.3260 c3        1 HCD     -0.080400
     26 C24        -9.9770   -5.7850   -0.7420 c3        1 HCD     -0.075400
     27 C25       -10.8210   -6.6960   -1.6230 c3        1 HCD     -0.067700
     28 C26       -10.3470   -8.1320   -1.5490 c3        1 HCD     -0.090600
     29 C27       -12.2780   -6.6060   -1.2200 c3        1 HCD     -0.090600
     30 H1         -0.1290   -0.2080   -1.1000 hc        1 HCD      0.043700
     31 H1A        -0.6830    0.8160    0.2870 hc        1 HCD      0.043700
     32 HO1         3.2660    1.8320    1.3320 ho        1 HCD      0.399000
     33 H2          1.6170    1.4140   -0.3880 hc        1 HCD      0.046700
     34 H2A         2.1730   -0.2930   -0.1660 hc        1 HCD      0.046700
     35 HO2        -5.9620   -6.2220    0.0510 ho        1 HCD      0.399000
     36 H3          1.0490    1.5930    2.0300 h1        1 HCD      0.035700
     37 H4          2.2060   -1.2780    2.2690 hc        1 HCD      0.060700
     38 H4A         1.5460   -0.2460    3.5950 hc        1 HCD      0.060700
     39 H6         -0.4090   -1.2170    4.3050 ha        1 HCD      0.121000
     40 H7         -2.2200   -2.8020    3.8650 hc        1 HCD      0.048700
     41 H7A        -2.8440   -1.1830    3.3600 hc        1 HCD      0.048700
     42 H8         -1.7660   -3.4870    1.6110 hc        1 HCD      0.060700
     43 H9         -2.3440   -0.5320    0.8990 hc        1 HCD      0.046700
     44 H11        -1.6170   -2.7900   -1.0800 hc        1 HCD      0.041700
     45 H11A       -2.0020   -1.0620   -1.4380 hc        1 HCD      0.041700
     46 H12        -3.8710   -2.6330   -1.9520 hc        1 HCD      0.040700
     47 H12A       -4.3340   -1.3550   -0.7590 hc        1 HCD      0.040700
     48 H14        -4.3060   -1.7350    1.5520 hc        1 HCD      0.044700
     49 H15        -4.8240   -3.1240    3.4030 hc        1 HCD      0.043700
     50 H15A       -3.9390   -4.5490    2.7330 hc        1 HCD      0.043700
     51 H16        -5.9310   -5.1900    1.7320 hc        1 HCD      0.037700
     52 H16A       -6.7230   -3.6190    2.1270 hc        1 HCD      0.037700
     53 H17        -6.1450   -2.6000    0.1280 hc        1 HCD      0.050700
     54 H18        -3.6190   -5.0140   -1.1890 hc        1 HCD      0.039700
     55 H18A       -2.2680   -4.5020   -0.0950 hc        1 HCD      0.039700
     56 H18B       -3.6850   -5.4130    0.5740 hc        1 HCD      0.039700
     57 H19         1.5570   -2.3740    0.5480 hc        1 HCD      0.038033
     58 H19A        0.0750   -3.4120    0.6190 hc        1 HCD      0.038033
     59 H19B        0.4480   -2.4530   -0.8760 hc        1 HCD      0.038033
     60 H21        -6.2880   -2.8880   -2.2480 hc        1 HCD      0.045367
     61 H21A       -6.8090   -4.4930   -2.9300 hc        1 HCD      0.045367
     62 H21B       -5.0670   -4.2050   -2.5580 hc        1 HCD      0.045367
     63 H22        -8.2440   -3.5200   -0.6050 hc        1 HCD      0.043700
     64 H22A       -7.9520   -4.8320    0.6060 hc        1 HCD      0.043700
     65 H23        -8.7110   -5.1310   -2.3680 hc        1 HCD      0.049700
     66 H23A       -8.0320   -6.4960   -1.4000 hc        1 HCD      0.049700
     67 H24       -10.5080   -4.8040   -0.6150 hc        1 HCD      0.038200
     68 H24A       -9.8790   -6.2430    0.2770 hc        1 HCD      0.038200
     69 H25       -10.7270   -6.3450   -2.6910 hc        1 HCD      0.046700
     70 H26       -10.9760   -8.7800   -2.2060 hc        1 HCD      0.033367
     71 H26A       -9.2850   -8.2130   -1.8840 hc        1 HCD      0.033367
     72 H26B      -10.4180   -8.5160   -0.5030 hc        1 HCD      0.033367
     73 H27       -12.6530   -5.5600   -1.3370 hc        1 HCD      0.033367
     74 H27A      -12.4090   -6.9110   -0.1530 hc        1 HCD      0.033367
     75 H27B      -12.9000   -7.2790   -1.8580 hc        1 HCD      0.033367
@<TRIPOS>BOND
     1    1    3 1   
     2    1   12 1   
     3    1   30 1   
     4    1   31 1   
     5    2    5 1   
     6    2   32 1   
     7    3    5 1   
     8    3   33 1   
     9    3   34 1   
    10    4   22 1   
    11    4   35 1   
    12    5    6 1   
    13    5   36 1   
    14    6    7 1   
    15    6   37 1   
    16    6   38 1   
    17    7    8 2   
    18    7   12 1   
    19    8    9 1   
    20    8   39 1   
    21    9   10 1   
    22    9   40 1   
    23    9   41 1   
    24   10   11 1   
    25   10   16 1   
    26   10   42 1   
    27   11   12 1   
    28   11   13 1   
    29   11   43 1   
    30   12   21 1   
    31   13   14 1   
    32   13   44 1   
    33   13   45 1   
    34   14   15 1   
    35   14   46 1   
    36   14   47 1   
    37   15   16 1   
    38   15   19 1   
    39   15   20 1   
    40   16   17 1   
    41   16   48 1   
    42   17   18 1   
    43   17   49 1   
    44   17   50 1   
    45   18   19 1   
    46   18   51 1   
    47   18   52 1   
    48   19   22 1   
    49   19   53 1   
    50   20   54 1   
    51   20   55 1   
    52   20   56 1   
    53   21   57 1   
    54   21   58 1   
    55   21   59 1   
    56   22   23 1   
    57   22   24 1   
    58   23   60 1   
    59   23   61 1   
    60   23   62 1   
    61   24   25 1   
    62   24   63 1   
    63   24   64 1   
    64   25   26 1   
    65   25   65 1   
    66   25   66 1   
    67   26   27 1   
    68   26   67 1   
    69   26   68 1   
    70   27   28 1   
    71   27   29 1   
    72   27   69 1   
    73   28   70 1   
    74   28   71 1   
    75   28   72 1   
    76   29   73 1   
    77   29   74 1   
    78   29   75 1   
@<TRIPOS>SUBSTRUCTURE
     1 HCD         1 TEMP              0 ****  ****    0 ROOT
