@<TRIPOS>MOLECULE
HCD
   75    78     1     0     0
SMALL
bcc


@<TRIPOS>ATOM
      1 C1         -0.0630    0.1180    0.0400 c3        1 HCD     -0.066400
      2 O1          2.9970    1.2180    1.9180 oh        1 HCD     -0.602800
      3 C2          1.3410    0.6410    0.2320 c3        1 HCD     -0.113400
      4 O2         -5.7090   -5.8990   -0.6990 oh        1 HCD     -0.593800
      5 C3          1.6410    0.8350    1.7120 c3        1 HCD      0.145100
      6 C4          1.4450   -0.4710    2.4760 c3        1 HCD     -0.038200
      7 C5          0.1020   -1.0660    2.2190 c2        1 HCD     -0.110400
      8 C6         -0.6500   -1.4850    3.2470 c2        1 HCD     -0.165200
      9 C7         -1.9800   -2.1160    3.1120 c3        1 HCD     -0.043200
     10 C8         -2.2530   -2.5910    1.6920 c3        1 HCD     -0.046700
     11 C9         -1.8350   -1.5080    0.6880 c3        1 HCD     -0.048700
     12 C10        -0.3210   -1.2060    0.7770 c3        1 HCD      0.000200
     13 C11        -2.2670   -1.8470   -0.7350 c3        1 HCD     -0.074400
     14 C12        -3.7280   -2.2440   -0.8680 c3        1 HCD     -0.066400
     15 C13        -4.0660   -3.3810    0.0850 c3        1 HCD     -0.040000
     16 C14        -3.7300   -2.8690    1.5100 c3        1 HCD     -0.064700
     17 C15        -4.4080   -3.8710    2.4320 c3        1 HCD     -0.072400
     18 C16        -5.6660   -4.2970    1.6730 c3        1 HCD     -0.077400
     19 C17        -5.5720   -3.7040    0.2520 c3        1 HCD     -0.043700
     20 C18        -3.2950   -4.6370   -0.2780 c3        1 HCD     -0.077100
     21 C19         0.5020   -2.3160    0.1280 c3        1 HCD     -0.084100
     22 C20        -6.2660   -4.5900   -0.7980 c3        1 HCD      0.164800
     23 C21        -6.0650   -4.0370   -2.2070 c3        1 HCD     -0.128100
     24 C22        -7.7740   -4.6250   -0.4800 c3        1 HCD     -0.110400
     25 C23        -8.5190   -5.7460   -1.1720 c3        1 HCD     -0.083400
     26 C24       -10.0100   -5.6290   -0.9310 c3        1 HCD     -0.074400
     27 C25       -10.7930   -6.7470   -1.6050 c3        1 HCD     -0.067700
     28 C26       -10.6570   -8.0520   -0.8480 c3        1 HCD     -0.090100
     29 C27       -12.2540   -6.3630   -1.7210 c3        1 HCD     -0.090100
     30 H1         -0.7940    0.8870    0.4060 hc        1 HCD      0.043200
     31 H1A        -0.2480   -0.0310   -1.0560 hc        1 HCD      0.043200
     32 HO1         3.1460    2.0040    1.3810 ho        1 HCD      0.398000
     33 H2          1.4550    1.6180   -0.3060 hc        1 HCD      0.046700
     34 H2A         2.0870   -0.0730   -0.2050 hc        1 HCD      0.046700
     35 HO2        -6.0830   -6.4150   -1.4230 ho        1 HCD      0.398000
     36 H3          0.9670    1.6330    2.1360 h1        1 HCD      0.035700
     37 H4          2.2440   -1.1980    2.1640 hc        1 HCD      0.059700
     38 H4A         1.5920   -0.2720    3.5700 hc        1 HCD      0.059700
     39 H6         -0.2980   -1.3620    4.2850 ha        1 HCD      0.121000
     40 H7         -2.7640   -1.3720    3.4230 hc        1 HCD      0.049200
     41 H7A        -2.0620   -2.9910    3.8120 hc        1 HCD      0.049200
     42 H8         -1.6590   -3.5270    1.5090 hc        1 HCD      0.060700
     43 H9         -2.3780   -0.5630    0.9880 hc        1 HCD      0.046700
     44 H11        -1.6350   -2.6830   -1.1340 hc        1 HCD      0.041200
     45 H11A       -2.0860   -0.9520   -1.3890 hc        1 HCD      0.041200
     46 H12        -3.9210   -2.5520   -1.9280 hc        1 HCD      0.038700
     47 H12A       -4.3840   -1.3620   -0.6470 hc        1 HCD      0.038700
     48 H14        -4.2680   -1.8830    1.6430 hc        1 HCD      0.042700
     49 H15        -4.6600   -3.4080    3.4170 hc        1 HCD      0.042200
     50 H15A       -3.7430   -4.7480    2.6260 hc        1 HCD      0.042200
     51 H16        -5.7320   -5.4120    1.6190 hc        1 HCD      0.049700
     52 H16A       -6.5830   -3.9180    2.1880 hc        1 HCD      0.049700
     53 H17        -6.1270   -2.7240    0.2300 hc        1 HCD      0.044700
     54 H18        -3.5430   -4.9520   -1.3210 hc        1 HCD      0.039033
     55 H18A       -2.1930   -4.4760   -0.2140 hc        1 HCD      0.039033
     56 H18B       -3.5770   -5.4720    0.4090 hc        1 HCD      0.039033
     57 H19         1.5790   -2.2150    0.4020 hc        1 HCD      0.037700
     58 H19A        0.4230   -2.2600   -0.9850 hc        1 HCD      0.037700
     59 H19B        0.1440   -3.3180    0.4630 hc        1 HCD      0.037700
     60 H21        -5.0310   -4.2560   -2.5660 hc        1 HCD      0.044033
     61 H21A       -6.7860   -4.5040   -2.9190 hc        1 HCD      0.044033
     62 H21B       -6.2250   -2.9330   -2.2100 hc        1 HCD      0.044033
     63 H22        -8.2140   -3.6370   -0.7770 hc        1 HCD      0.050200
     64 H22A       -7.9130   -4.7400    0.6270 hc        1 HCD      0.050200
     65 H23        -8.1520   -6.7330   -0.7820 hc        1 HCD      0.041200
     66 H23A       -8.3170   -5.7280   -2.2750 hc        1 HCD      0.041200
     67 H24       -10.2160   -5.6410    0.1710 hc        1 HCD      0.041700
     68 H24A      -10.3680   -4.6410   -1.3250 hc        1 HCD      0.041700
     69 H25       -10.3820   -6.8940   -2.6440 hc        1 HCD      0.044700
     70 H26       -11.0570   -7.9480    0.1900 hc        1 HCD      0.033533
     71 H26A      -11.2280   -8.8600   -1.3660 hc        1 HCD      0.033533
     72 H26B       -9.5860   -8.3610   -0.7840 hc        1 HCD      0.033533
     73 H27       -12.3680   -5.4410   -2.3400 hc        1 HCD      0.033533
     74 H27A      -12.6880   -6.1670   -0.7110 hc        1 HCD      0.033533
     75 H27B      -12.8350   -7.1860   -2.2010 hc        1 HCD      0.033533
@<TRIPOS>BOND
     1    1    3 1   
     2    1   12 1   
     3    1   30 1   
     4    1   31 1   
     5    2    5 1   
     6    2   32 1   
     7    3    5 1   
     8    3   33 1   
     9    3   34 1   
    10    4   22 1   
    11    4   35 1   
    12    5    6 1   
    13    5   36 1   
    14    6    7 1   
    15    6   37 1   
    16    6   38 1   
    17    7    8 2   
    18    7   12 1   
    19    8    9 1   
    20    8   39 1   
    21    9   10 1   
    22    9   40 1   
    23    9   41 1   
    24   10   11 1   
    25   10   16 1   
    26   10   42 1   
    27   11   12 1   
    28   11   13 1   
    29   11   43 1   
    30   12   21 1   
    31   13   14 1   
    32   13   44 1   
    33   13   45 1   
    34   14   15 1   
    35   14   46 1   
    36   14   47 1   
    37   15   16 1   
    38   15   19 1   
    39   15   20 1   
    40   16   17 1   
    41   16   48 1   
    42   17   18 1   
    43   17   49 1   
    44   17   50 1   
    45   18   19 1   
    46   18   51 1   
    47   18   52 1   
    48   19   22 1   
    49   19   53 1   
    50   20   54 1   
    51   20   55 1   
    52   20   56 1   
    53   21   57 1   
    54   21   58 1   
    55   21   59 1   
    56   22   23 1   
    57   22   24 1   
    58   23   60 1   
    59   23   61 1   
    60   23   62 1   
    61   24   25 1   
    62   24   63 1   
    63   24   64 1   
    64   25   26 1   
    65   25   65 1   
    66   25   66 1   
    67   26   27 1   
    68   26   67 1   
    69   26   68 1   
    70   27   28 1   
    71   27   29 1   
    72   27   69 1   
    73   28   70 1   
    74   28   71 1   
    75   28   72 1   
    76   29   73 1   
    77   29   74 1   
    78   29   75 1   
@<TRIPOS>SUBSTRUCTURE
     1 HCD         1 TEMP              0 ****  ****    0 ROOT
