@<TRIPOS>MOLECULE
HCD
   75    78     1     0     0
SMALL
bcc


@<TRIPOS>ATOM
      1 C1         -4.6750    1.3610   -0.9410 c3        1 HCD     -0.070400
      2 O1         -8.1960    0.3100   -0.4430 oh        1 HCD     -0.600800
      3 C2         -6.1610    1.4870   -0.6940 c3        1 HCD     -0.075400
      4 O2          3.2120    0.6370    1.4690 oh        1 HCD     -0.594800
      5 C3         -6.8170    0.1130   -0.7320 c3        1 HCD      0.145100
      6 C4         -6.1750   -0.8150    0.2960 c3        1 HCD     -0.076200
      7 C5         -4.6920   -0.8720    0.1490 c2        1 HCD     -0.104400
      8 C6         -4.0670   -2.0580    0.1320 c2        1 HCD     -0.168200
      9 C7         -2.6040   -2.2320    0.0160 c3        1 HCD     -0.042200
     10 C8         -1.8440   -0.9440    0.2990 c3        1 HCD     -0.046700
     11 C9         -2.5160    0.2310   -0.4260 c3        1 HCD     -0.048700
     12 C10        -3.9650    0.4470    0.0700 c3        1 HCD      0.000200
     13 C11        -1.6880    1.5080   -0.3430 c3        1 HCD     -0.075400
     14 C12        -0.2250    1.3340   -0.7190 c3        1 HCD     -0.065400
     15 C13         0.4130    0.2180    0.0950 c3        1 HCD     -0.037000
     16 C14        -0.4180   -1.0570   -0.1980 c3        1 HCD     -0.066700
     17 C15         0.4510   -2.1950    0.3160 c3        1 HCD     -0.073400
     18 C16         1.8840   -1.7230    0.0610 c3        1 HCD     -0.077400
     19 C17         1.8160   -0.2440   -0.3710 c3        1 HCD     -0.084700
     20 C18         0.4390    0.5760    1.5690 c3        1 HCD     -0.081100
     21 C19        -3.9850    1.1040    1.4480 c3        1 HCD     -0.084100
     22 C20         3.0500    0.5730    0.0550 c3        1 HCD      0.165800
     23 C21         2.9210    2.0260   -0.3980 c3        1 HCD     -0.086100
     24 C22         4.2910   -0.0740   -0.5900 c3        1 HCD     -0.109400
     25 C23         5.5950    0.5470   -0.1360 c3        1 HCD     -0.080400
     26 C24         6.7720   -0.3280   -0.5140 c3        1 HCD     -0.075400
     27 C25         8.1060    0.3100   -0.1550 c3        1 HCD     -0.067700
     28 C26         8.3520    0.2730    1.3390 c3        1 HCD     -0.090600
     29 C27         9.2320   -0.3920   -0.8870 c3        1 HCD     -0.090600
     30 H1         -4.5070    0.9600   -1.9750 hc        1 HCD      0.044200
     31 H1A        -4.2160    2.3840   -0.8950 hc        1 HCD      0.044200
     32 HO1        -8.6010   -0.5650   -0.4160 ho        1 HCD      0.398000
     33 H2         -6.3570    1.9630    0.3010 hc        1 HCD      0.055200
     34 H2A        -6.6260    2.1400   -1.4770 hc        1 HCD      0.055200
     35 HO2         3.3590   -0.2620    1.7830 ho        1 HCD      0.399000
     36 H3         -6.7170   -0.3330   -1.7620 h1        1 HCD      0.035700
     37 H4         -6.4340   -0.4480    1.3270 hc        1 HCD      0.051200
     38 H4A        -6.6210   -1.8400    0.1910 hc        1 HCD      0.051200
     39 H6         -4.6410   -2.9980    0.1940 ha        1 HCD      0.119000
     40 H7         -2.2550   -3.0270    0.7300 hc        1 HCD      0.048200
     41 H7A        -2.3650   -2.5950   -1.0220 hc        1 HCD      0.048200
     42 H8         -1.8520   -0.7610    1.4070 hc        1 HCD      0.060700
     43 H9         -2.5810   -0.0570   -1.5160 hc        1 HCD      0.046700
     44 H11        -2.1370    2.2730   -1.0310 hc        1 HCD      0.042200
     45 H11A       -1.7390    1.9270    0.6970 hc        1 HCD      0.042200
     46 H12        -0.1390    1.0980   -1.8120 hc        1 HCD      0.040700
     47 H12A        0.3090    2.3030   -0.5410 hc        1 HCD      0.040700
     48 H14        -0.4720   -1.1690   -1.3230 hc        1 HCD      0.044700
     49 H15         0.2750   -2.3700    1.4060 hc        1 HCD      0.043200
     50 H15A        0.2310   -3.1490   -0.2220 hc        1 HCD      0.043200
     51 H16         2.4950   -1.8490    0.9880 hc        1 HCD      0.037700
     52 H16A        2.3620   -2.3330   -0.7450 hc        1 HCD      0.037700
     53 H17         1.8110   -0.2120   -1.4990 hc        1 HCD      0.050700
     54 H18        -0.5890    0.7500    1.9680 hc        1 HCD      0.039700
     55 H18A        0.9120   -0.2480    2.1570 hc        1 HCD      0.039700
     56 H18B        1.0410    1.5040    1.7260 hc        1 HCD      0.039700
     57 H19        -5.0060    1.0410    1.8970 hc        1 HCD      0.038033
     58 H19A       -3.2650    0.6000    2.1350 hc        1 HCD      0.038033
     59 H19B       -3.7110    2.1840    1.3700 hc        1 HCD      0.038033
     60 H21         3.9060    2.5430   -0.3190 hc        1 HCD      0.045367
     61 H21A        2.5670    2.0620   -1.4540 hc        1 HCD      0.045367
     62 H21B        2.1970    2.5660    0.2580 hc        1 HCD      0.045367
     63 H22         4.3030   -1.1670   -0.3350 hc        1 HCD      0.044200
     64 H22A        4.1980    0.0120   -1.7030 hc        1 HCD      0.044200
     65 H23         5.7200    1.5580   -0.6040 hc        1 HCD      0.049700
     66 H23A        5.5690    0.6970    0.9760 hc        1 HCD      0.049700
     67 H24         6.6860   -1.3220   -0.0020 hc        1 HCD      0.037700
     68 H24A        6.7440   -0.5210   -1.6200 hc        1 HCD      0.037700
     69 H25         8.0860    1.3870   -0.4860 hc        1 HCD      0.046700
     70 H26         8.3730   -0.7800    1.7080 hc        1 HCD      0.033367
     71 H26A        9.3330    0.7500    1.5800 hc        1 HCD      0.033367
     72 H26B        7.5480    0.8240    1.8830 hc        1 HCD      0.033367
     73 H27         9.0920   -0.3100   -1.9910 hc        1 HCD      0.033367
     74 H27A       10.2140    0.0680   -0.6190 hc        1 HCD      0.033367
     75 H27B        9.2620   -1.4740   -0.6130 hc        1 HCD      0.033367
@<TRIPOS>BOND
     1    1    3 1   
     2    1   12 1   
     3    1   30 1   
     4    1   31 1   
     5    2    5 1   
     6    2   32 1   
     7    3    5 1   
     8    3   33 1   
     9    3   34 1   
    10    4   22 1   
    11    4   35 1   
    12    5    6 1   
    13    5   36 1   
    14    6    7 1   
    15    6   37 1   
    16    6   38 1   
    17    7    8 2   
    18    7   12 1   
    19    8    9 1   
    20    8   39 1   
    21    9   10 1   
    22    9   40 1   
    23    9   41 1   
    24   10   11 1   
    25   10   16 1   
    26   10   42 1   
    27   11   12 1   
    28   11   13 1   
    29   11   43 1   
    30   12   21 1   
    31   13   14 1   
    32   13   44 1   
    33   13   45 1   
    34   14   15 1   
    35   14   46 1   
    36   14   47 1   
    37   15   16 1   
    38   15   19 1   
    39   15   20 1   
    40   16   17 1   
    41   16   48 1   
    42   17   18 1   
    43   17   49 1   
    44   17   50 1   
    45   18   19 1   
    46   18   51 1   
    47   18   52 1   
    48   19   22 1   
    49   19   53 1   
    50   20   54 1   
    51   20   55 1   
    52   20   56 1   
    53   21   57 1   
    54   21   58 1   
    55   21   59 1   
    56   22   23 1   
    57   22   24 1   
    58   23   60 1   
    59   23   61 1   
    60   23   62 1   
    61   24   25 1   
    62   24   63 1   
    63   24   64 1   
    64   25   26 1   
    65   25   65 1   
    66   25   66 1   
    67   26   27 1   
    68   26   67 1   
    69   26   68 1   
    70   27   28 1   
    71   27   29 1   
    72   27   69 1   
    73   28   70 1   
    74   28   71 1   
    75   28   72 1   
    76   29   73 1   
    77   29   74 1   
    78   29   75 1   
@<TRIPOS>SUBSTRUCTURE
     1 HCD         1 TEMP              0 ****  ****    0 ROOT
