@<TRIPOS>MOLECULE
HCE
   50    52     1     0     0
SMALL
bcc


@<TRIPOS>ATOM
      1 O           0.3870   -0.7630    4.6390 o         1 HCE     -0.763800
      2 C           1.4750   -0.1420    4.7310 c         1 HCE      0.936600
      3 OXT         1.7340    0.9660    5.2320 o         1 HCE     -0.763800
      4 CA          2.7450   -0.9020    4.1010 c3        1 HCE     -0.074500
      5 N           2.3780   -2.3140    3.7990 n4        1 HCE     -0.838600
      6 CB          3.1950   -0.1210    2.8780 c3        1 HCE     -0.084400
      7 CG          4.5390   -0.5380    2.3430 c3        1 HCE     -0.012300
      8 S5'         4.3430   -2.0110    1.3580 ss        1 HCE     -0.345200
      9 C5'         5.8730   -2.8840    1.5810 c3        1 HCE     -0.004300
     10 C4'         5.6900   -4.1640    2.3570 c3        1 HCE     -0.111700
     11 C1'         6.9580   -5.0440    2.2890 c3        1 HCE      0.160800
     12 C3'         5.4360   -3.9320    3.8620 c3        1 HCE      0.133100
     13 O3'         4.1740   -4.4380    4.2560 oh        1 HCE     -0.638800
     14 C2'         6.5940   -4.6390    4.6010 c3        1 HCE      0.127800
     15 N1'         7.3150   -5.4690    3.6430 n3        1 HCE     -0.721600
     16 C10         8.7540   -5.5460    3.8560 c3        1 HCE      0.247000
     17 C9          9.1390   -6.1410    5.1540 cc        1 HCE     -0.263000
     18 C8          9.3280   -5.4760    6.3680 cd        1 HCE     -0.083100
     19 N7          9.6730   -6.3760    7.3760 na        1 HCE     -0.159400
     20 C5          9.7750   -7.6430    6.8020 ca        1 HCE     -0.327800
     21 C4          9.4270   -7.5450    5.3930 ca        1 HCE      0.466100
     22 N3          9.4290   -8.6290    4.5760 nb        1 HCE     -0.674000
     23 C2          9.7730   -9.7820    5.1870 ca        1 HCE      0.641900
     24 N1         10.0980  -10.0040    6.4970 nb        1 HCE     -0.748000
     25 C6         10.1110   -8.9300    7.3350 ca        1 HCE      0.657200
     26 N6         10.5220   -9.0420    8.6720 nh        1 HCE     -0.917500
     27 H2          3.5580   -0.9110    4.8770 hx        1 HCE      0.080700
     28 H3          2.8810   -2.6640    2.9680 hn        1 HCE      0.452467
     29 H4          1.3520   -2.3300    3.6500 hn        1 HCE      0.452467
     30 H6          3.2460    0.9580    3.2090 hc        1 HCE      0.096200
     31 H7          2.4200   -0.1750    2.0670 hc        1 HCE      0.096200
     32 H8          4.9530    0.2680    1.6880 h1        1 HCE      0.072700
     33 H9          5.2660   -0.7130    3.1720 h1        1 HCE      0.072700
     34 H10         6.2380   -3.1270    0.5490 h1        1 HCE      0.081700
     35 H11         6.6320   -2.2260    2.0670 h1        1 HCE      0.081700
     36 H12         4.8220   -4.7330    1.9240 hc        1 HCE      0.079700
     37 H13         6.7550   -5.9740    1.6910 h1        1 HCE      0.052200
     38 H14         7.7920   -4.4840    1.7790 h1        1 HCE      0.052200
     39 H15         5.3870   -2.8410    4.1230 h1        1 HCE      0.072700
     40 H16         4.2050   -5.4020    4.1870 ho        1 HCE      0.430000
     41 H17         6.1910   -5.3120    5.4080 h1        1 HCE      0.053700
     42 H18         7.2520   -3.8690    5.0920 h1        1 HCE      0.053700
     43 H20         9.2400   -4.5260    3.7720 h1        1 HCE      0.048700
     44 H21         9.1680   -6.1960    3.0290 h1        1 HCE      0.048700
     45 H22         9.2210   -4.4110    6.5880 h4        1 HCE      0.170000
     46 H23        10.0590   -6.1280    8.2500 hn        1 HCE      0.304700
     47 H24         9.7900  -10.6900    4.5470 h5        1 HCE      0.054100
     48 H25        10.7010   -9.9750    8.9800 hn        1 HCE      0.401300
     49 H26         9.9420   -8.5310    9.3020 hn        1 HCE      0.401300
     50 HN3         2.5980   -2.9090    4.5980 hn        1 HCE      0.452467
@<TRIPOS>BOND
     1    1    2 1   
     2    2    3 1   
     3    2    4 1   
     4    4    5 1   
     5    4    6 1   
     6    4   27 1   
     7    5   28 1   
     8    5   29 1   
     9    5   50 1   
    10    6    7 1   
    11    6   30 1   
    12    6   31 1   
    13    7    8 1   
    14    7   32 1   
    15    7   33 1   
    16    8    9 1   
    17    9   10 1   
    18    9   34 1   
    19    9   35 1   
    20   10   11 1   
    21   10   12 1   
    22   10   36 1   
    23   11   15 1   
    24   11   37 1   
    25   11   38 1   
    26   12   13 1   
    27   12   14 1   
    28   12   39 1   
    29   13   40 1   
    30   14   15 1   
    31   14   41 1   
    32   14   42 1   
    33   15   16 1   
    34   16   17 1   
    35   16   43 1   
    36   16   44 1   
    37   17   18 2   
    38   17   21 1   
    39   18   19 1   
    40   18   45 1   
    41   19   20 1   
    42   19   46 1   
    43   20   21 ar  
    44   20   25 ar  
    45   21   22 ar  
    46   22   23 ar  
    47   23   24 ar  
    48   23   47 1   
    49   24   25 ar  
    50   25   26 1   
    51   26   48 1   
    52   26   49 1   
@<TRIPOS>SUBSTRUCTURE
     1 HCE         1 TEMP              0 ****  ****    0 ROOT
