@<TRIPOS>MOLECULE
HCE
   49    51     1     0     0
SMALL
bcc


@<TRIPOS>ATOM
      1 O          -8.3410   -1.4910   -1.0450 o         1 HCE     -0.839300
      2 C          -7.0930   -1.6820   -0.9820 c         1 HCE      0.890600
      3 OXT        -6.5450   -2.7990   -0.7740 o         1 HCE     -0.839300
      4 CA         -6.1520   -0.4500   -1.2080 c3        1 HCE      0.017500
      5 N          -6.8490    0.8080   -1.4430 n3        1 HCE     -0.895800
      6 CB         -5.1610   -0.3840   -0.0420 c3        1 HCE     -0.060400
      7 CG         -4.0300    0.5650   -0.3380 c3        1 HCE      0.020700
      8 S5'        -2.8950    0.5470    1.0350 ss        1 HCE     -0.339200
      9 C5'        -1.6520    1.6490    0.4250 c3        1 HCE     -0.011300
     10 C4'        -0.5850    1.8530    1.4720 c3        1 HCE     -0.069700
     11 C1'         0.1870    0.5540    1.7930 c3        1 HCE      0.147800
     12 C3'         0.4920    2.8310    0.9610 c3        1 HCE      0.117100
     13 O3'         0.6220    3.8660    1.9210 oh        1 HCE     -0.590800
     14 C2'         1.7910    1.9950    0.8290 c3        1 HCE      0.119800
     15 N1'         1.5260    0.6050    1.1920 n3        1 HCE     -0.698600
     16 C10         1.6760   -0.3560    0.1040 c3        1 HCE      0.227000
     17 C9          2.9830   -0.3110   -0.5900 cc        1 HCE     -0.236000
     18 C8          3.2580    0.3230   -1.8010 cd        1 HCE     -0.097100
     19 N7          4.6080    0.1860   -2.1480 na        1 HCE     -0.166400
     20 C5          5.2040   -0.6350   -1.1870 ca        1 HCE     -0.326800
     21 C4          4.2170   -0.9540   -0.1640 ca        1 HCE      0.468100
     22 N3          4.5270   -1.7210    0.9110 nb        1 HCE     -0.653000
     23 C2          5.8080   -2.1440    0.9410 ca        1 HCE      0.630900
     24 N1          6.8240   -1.8940    0.0610 nb        1 HCE     -0.752000
     25 C6          6.5350   -1.1320   -1.0310 ca        1 HCE      0.638200
     26 N6          7.4890   -0.8900   -2.0390 nh        1 HCE     -0.913500
     27 H2         -5.5690   -0.6700   -2.1510 h1        1 HCE      0.039700
     28 H3         -7.6210    0.6080   -2.0590 hn        1 HCE      0.332800
     29 H4         -7.2580    1.1110   -0.5760 hn        1 HCE      0.332800
     30 H6         -5.6900   -0.0710    0.8960 hc        1 HCE      0.063700
     31 H7         -4.7720   -1.4260    0.1180 hc        1 HCE      0.063700
     32 H8         -3.4940    0.2540   -1.2670 h1        1 HCE      0.055200
     33 H9         -4.4100    1.6030   -0.4890 h1        1 HCE      0.055200
     34 H10        -1.2060    1.2280   -0.5100 h1        1 HCE      0.052700
     35 H11        -2.1190    2.6310    0.1620 h1        1 HCE      0.052700
     36 H12        -1.0490    2.2590    2.4100 hc        1 HCE      0.095700
     37 H13         0.3440    0.4810    2.9050 h1        1 HCE      0.071200
     38 H14        -0.4020   -0.3440    1.4610 h1        1 HCE      0.071200
     39 H15         0.2100    3.2840   -0.0280 h1        1 HCE      0.035700
     40 H16         1.4020    4.3770    1.6750 ho        1 HCE      0.393000
     41 H17         2.2070    2.0910   -0.2090 h1        1 HCE      0.046700
     42 H18         2.5620    2.3810    1.5520 h1        1 HCE      0.046700
     43 H20         1.5590   -1.3780    0.5730 h1        1 HCE      0.052700
     44 H21         0.8620   -0.2390   -0.6750 h1        1 HCE      0.052700
     45 H22         2.5800    0.8950   -2.4400 h4        1 HCE      0.172000
     46 H23         4.9500    0.2690   -3.0710 hn        1 HCE      0.294700
     47 H24         6.0910   -2.7800    1.8060 h5        1 HCE      0.050100
     48 H25         8.4030   -1.2350   -1.8310 hn        1 HCE      0.391800
     49 H26         7.5030    0.0670   -2.3220 hn        1 HCE      0.391800
@<TRIPOS>BOND
     1    1    2 1   
     2    2    3 1   
     3    2    4 1   
     4    4    5 1   
     5    4    6 1   
     6    4   27 1   
     7    5   28 1   
     8    5   29 1   
     9    6    7 1   
    10    6   30 1   
    11    6   31 1   
    12    7    8 1   
    13    7   32 1   
    14    7   33 1   
    15    8    9 1   
    16    9   10 1   
    17    9   34 1   
    18    9   35 1   
    19   10   11 1   
    20   10   12 1   
    21   10   36 1   
    22   11   15 1   
    23   11   37 1   
    24   11   38 1   
    25   12   13 1   
    26   12   14 1   
    27   12   39 1   
    28   13   40 1   
    29   14   15 1   
    30   14   41 1   
    31   14   42 1   
    32   15   16 1   
    33   16   17 1   
    34   16   43 1   
    35   16   44 1   
    36   17   18 2   
    37   17   21 1   
    38   18   19 1   
    39   18   45 1   
    40   19   20 1   
    41   19   46 1   
    42   20   21 ar  
    43   20   25 ar  
    44   21   22 ar  
    45   22   23 ar  
    46   23   24 ar  
    47   23   47 1   
    48   24   25 ar  
    49   25   26 1   
    50   26   48 1   
    51   26   49 1   
@<TRIPOS>SUBSTRUCTURE
     1 HCE         1 TEMP              0 ****  ****    0 ROOT
