@<TRIPOS>MOLECULE
HCE
   51    53     1     0     0
SMALL
bcc


@<TRIPOS>ATOM
      1 O           5.5890   -6.4080    1.3270 o         1 HCE     -0.823300
      2 C           6.0220   -5.2250    1.2040 c         1 HCE      0.918600
      3 OXT         7.2050   -4.9620    0.8530 o         1 HCE     -0.823300
      4 CA          5.0550   -4.0490    1.5280 c3        1 HCE      0.010500
      5 N           3.8180   -4.5640    2.1990 n4        1 HCE     -0.855600
      6 CB          5.8070   -3.0160    2.3660 c3        1 HCE     -0.098400
      7 CG          4.9870   -1.8370    2.8140 c3        1 HCE     -0.033300
      8 S5'         3.8240   -2.1940    4.1080 ss        1 HCE     -0.357200
      9 C5'         4.6620   -1.8470    5.6480 c3        1 HCE      0.020700
     10 C4'         4.9810   -3.0760    6.4550 c3        1 HCE     -0.081700
     11 C1'         6.1720   -3.8800    5.9070 c3        1 HCE      0.164800
     12 C3'         5.3940   -2.7250    7.9040 c3        1 HCE      0.138100
     13 O3'         4.2800   -2.9970    8.7280 oh        1 HCE     -0.586800
     14 C2'         6.6030   -3.6430    8.2250 c3        1 HCE      0.124800
     15 N1'         6.9300   -4.4200    7.0320 n3        1 HCE     -0.716600
     16 C10         8.3590   -4.5900    6.7910 c3        1 HCE      0.238000
     17 C9          8.6340   -5.0930    5.4240 cc        1 HCE     -0.244000
     18 C8          8.9000   -4.3140    4.2980 cd        1 HCE     -0.067100
     19 N7          8.9080   -5.0910    3.1340 na        1 HCE     -0.165400
     20 C5          8.5830   -6.3920    3.4910 ca        1 HCE     -0.259800
     21 C4          8.4870   -6.4660    4.9660 ca        1 HCE      0.472100
     22 N3          8.2980   -7.6300    5.6080 nb        1 HCE     -0.596000
     23 C2          8.1650   -8.7180    4.8030 ca        1 HCE      0.635900
     24 N1          8.1380   -8.7600    3.4420 nb        1 HCE     -0.673000
     25 C6          8.3150   -7.5840    2.7840 ca        1 HCE      0.500200
     26 N6          8.1210   -7.5620    1.3270 n4        1 HCE     -0.837300
     27 H2          4.7470   -3.5870    0.5450 hx        1 HCE      0.113700
     28 H3          3.8700   -5.5980    2.2280 hn        1 HCE      0.464467
     29 H4          3.7490   -4.1820    3.1670 hn        1 HCE      0.464467
     30 H6          6.6530   -2.6590    1.7110 hc        1 HCE      0.088200
     31 H7          6.2740   -3.5240    3.2530 hc        1 HCE      0.088200
     32 H8          5.6730   -1.0130    3.1350 h1        1 HCE      0.096700
     33 H9          4.3640   -1.4420    1.9700 h1        1 HCE      0.096700
     34 H10         3.9300   -1.2150    6.2180 h1        1 HCE      0.092700
     35 H11         5.5750   -1.2350    5.4530 h1        1 HCE      0.092700
     36 H12         4.0700   -3.7360    6.5060 hc        1 HCE      0.099700
     37 H13         6.8050   -3.2170    5.2470 h1        1 HCE      0.026700
     38 H14         5.8160   -4.7480    5.2900 h1        1 HCE      0.026700
     39 H15         5.6840   -1.6440    8.0010 h1        1 HCE      0.046700
     40 H16         4.5620   -2.8650    9.6430 ho        1 HCE      0.417000
     41 H17         7.4660   -3.0220    8.5910 h1        1 HCE      0.062200
     42 H18         6.3260   -4.3750    9.0340 h1        1 HCE      0.062200
     43 H20         8.7210   -5.3390    7.5540 h1        1 HCE      0.063200
     44 H21         8.9360   -3.6280    6.9440 h1        1 HCE      0.063200
     45 H22         9.1230   -3.2430    4.2430 h4        1 HCE      0.189000
     46 H23         8.8300   -4.7190    2.2120 hn        1 HCE      0.338700
     47 H24         8.0390   -9.7000    5.3120 h5        1 HCE      0.087100
     48 H25         8.6520   -8.3070    0.8730 hn        1 HCE      0.483800
     49 H26         8.3800   -6.6360    0.9450 hn        1 HCE      0.483800
     50 HN3         2.9900   -4.2910    1.6730 hn        1 HCE      0.464467
     51 H63         7.0980   -7.6780    1.1370 hn        1 HCE      0.483800
@<TRIPOS>BOND
     1    1    2 1   
     2    2    3 1   
     3    2    4 1   
     4    4    5 1   
     5    4    6 1   
     6    4   27 1   
     7    5   28 1   
     8    5   29 1   
     9    5   50 1   
    10    6    7 1   
    11    6   30 1   
    12    6   31 1   
    13    7    8 1   
    14    7   32 1   
    15    7   33 1   
    16    8    9 1   
    17    9   10 1   
    18    9   34 1   
    19    9   35 1   
    20   10   11 1   
    21   10   12 1   
    22   10   36 1   
    23   11   15 1   
    24   11   37 1   
    25   11   38 1   
    26   12   13 1   
    27   12   14 1   
    28   12   39 1   
    29   13   40 1   
    30   14   15 1   
    31   14   41 1   
    32   14   42 1   
    33   15   16 1   
    34   16   17 1   
    35   16   43 1   
    36   16   44 1   
    37   17   18 2   
    38   17   21 1   
    39   18   19 1   
    40   18   45 1   
    41   19   20 1   
    42   19   46 1   
    43   20   21 ar  
    44   20   25 ar  
    45   21   22 ar  
    46   22   23 ar  
    47   23   24 ar  
    48   23   47 1   
    49   24   25 ar  
    50   25   26 1   
    51   26   48 1   
    52   26   49 1   
    53   26   51 1   
@<TRIPOS>SUBSTRUCTURE
     1 HCE         1 TEMP              0 ****  ****    0 ROOT
