@<TRIPOS>MOLECULE
HCE
   50    52     1     0     0
SMALL
bcc


@<TRIPOS>ATOM
      1 O           0.5160    0.6370    1.4820 o         1 HCE     -0.759800
      2 C           1.4800    0.2750    0.7600 c         1 HCE      0.936600
      3 OXT         1.6400    0.3400   -0.4690 o         1 HCE     -0.759800
      4 CA          2.7140   -0.3780    1.5640 c3        1 HCE     -0.076500
      5 N           2.5150   -0.1590    3.0270 nz        1 HCE     -0.846600
      6 CB          2.7940   -1.8460    1.1820 c3        1 HCE     -0.084400
      7 CG          4.0380   -2.5430    1.6650 c3        1 HCE     -0.011300
      8 S5'         3.8360   -2.9440    3.3900 ss        1 HCE     -0.371200
      9 C5'         5.5160   -3.0470    3.9630 c3        1 HCE      0.009700
     10 C4'         5.4940   -3.3740    5.4350 c3        1 HCE     -0.117700
     11 C1'         5.1440   -4.8530    5.7070 c3        1 HCE      0.149800
     12 C3'         6.8910   -3.1740    6.0660 c3        1 HCE      0.126100
     13 O3'         6.8450   -2.2830    7.1580 oh        1 HCE     -0.590800
     14 C2'         7.3640   -4.5890    6.4810 c3        1 HCE      0.115800
     15 N1'         6.3430   -5.5780    6.1380 n3        1 HCE     -0.713600
     16 C10         6.7760   -6.5710    5.1550 c3        1 HCE      0.233000
     17 C9          7.9810   -7.3260    5.5580 cc        1 HCE     -0.272000
     18 C8          8.0780   -8.2650    6.5890 cd        1 HCE     -0.059100
     19 N7          9.3720   -8.7760    6.6710 na        1 HCE     -0.163400
     20 C5         10.1250   -8.2050    5.6460 ca        1 HCE     -0.326800
     21 C4          9.2860   -7.2610    4.9240 ca        1 HCE      0.453100
     22 N3          9.7590   -6.5340    3.8790 nb        1 HCE     -0.689000
     23 C2         11.0510   -6.7730    3.5770 ca        1 HCE      0.642900
     24 N1         11.9390   -7.6190    4.1820 nb        1 HCE     -0.750000
     25 C6         11.4880   -8.3600    5.2340 ca        1 HCE      0.659200
     26 N6         12.3000   -9.3190    5.8600 nv        1 HCE     -0.918500
     27 H2          3.6500    0.1580    1.2500 hx        1 HCE      0.085700
     28 H3          1.4900   -0.0420    3.1660 hn        1 HCE      0.448133
     29 H4          2.9720    0.7020    3.3110 hn        1 HCE      0.448133
     30 H6          2.7710   -1.8660    0.0530 hc        1 HCE      0.098200
     31 H7          1.8790   -2.3960    1.5340 hc        1 HCE      0.098200
     32 H8          4.9420   -1.9040    1.5220 h1        1 HCE      0.075700
     33 H9          4.1920   -3.4890    1.0910 h1        1 HCE      0.075700
     34 H10         6.0630   -3.8350    3.3900 h1        1 HCE      0.072200
     35 H11         6.0310   -2.0710    3.7860 h1        1 HCE      0.072200
     36 H12         4.7530   -2.7080    5.9540 hc        1 HCE      0.073700
     37 H13         4.4120   -4.9090    6.5590 h1        1 HCE      0.061700
     38 H14         4.6620   -5.3190    4.8050 h1        1 HCE      0.061700
     39 H15         7.6140   -2.6950    5.3510 h1        1 HCE      0.086700
     40 H16         6.3180   -2.6970    7.8540 ho        1 HCE      0.405000
     41 H17         8.3520   -4.8190    5.9970 h1        1 HCE      0.067200
     42 H18         7.5070   -4.6260    7.5960 h1        1 HCE      0.067200
     43 H20         5.9180   -7.2970    5.0390 h1        1 HCE      0.049700
     44 H21         6.9680   -6.1040    4.1430 h1        1 HCE      0.049700
     45 H22         7.3030   -8.5860    7.2910 h4        1 HCE      0.180000
     46 H23         9.6400   -9.5750    7.1840 hn        1 HCE      0.304700
     47 H24        11.4700   -6.2010    2.7220 h5        1 HCE      0.052100
     48 H25        13.2490   -9.3360    5.5490 hn        1 HCE      0.401800
     49 H26        12.2160   -9.3140    6.8530 hn        1 HCE      0.401800
     50 HN3         2.8740   -0.9570    3.5770 hn        1 HCE      0.448133
@<TRIPOS>BOND
     1    1    2 1   
     2    2    3 1   
     3    2    4 1   
     4    4    5 1   
     5    4    6 1   
     6    4   27 1   
     7    5   28 1   
     8    5   29 1   
     9    5   50 1   
    10    6    7 1   
    11    6   30 1   
    12    6   31 1   
    13    7    8 1   
    14    7   32 1   
    15    7   33 1   
    16    8    9 1   
    17    9   10 1   
    18    9   34 1   
    19    9   35 1   
    20   10   11 1   
    21   10   12 1   
    22   10   36 1   
    23   11   15 1   
    24   11   37 1   
    25   11   38 1   
    26   12   13 1   
    27   12   14 1   
    28   12   39 1   
    29   13   40 1   
    30   14   15 1   
    31   14   41 1   
    32   14   42 1   
    33   15   16 1   
    34   16   17 1   
    35   16   43 1   
    36   16   44 1   
    37   17   18 2   
    38   17   21 1   
    39   18   19 1   
    40   18   45 1   
    41   19   20 1   
    42   19   46 1   
    43   20   21 ar  
    44   20   25 ar  
    45   21   22 ar  
    46   22   23 ar  
    47   23   24 ar  
    48   23   47 1   
    49   24   25 ar  
    50   25   26 1   
    51   26   48 1   
    52   26   49 1   
@<TRIPOS>SUBSTRUCTURE
     1 HCE         1 TEMP              0 ****  ****    0 ROOT
