@<TRIPOS>MOLECULE
HCG
   41    40     1     0     0
SMALL
bcc


@<TRIPOS>ATOM
      1 C1          0.6550    0.7630    2.6950 c         1 HCG      0.902600
      2 C2          1.3270    0.0290    1.4950 c3        1 HCG     -0.011500
      3 C3          2.8400    0.0080    1.7250 c3        1 HCG     -0.094400
      4 C4          3.4050    1.3030    2.2800 c3        1 HCG     -0.083400
      5 C7          3.3970    1.3470    3.8040 c3        1 HCG     -0.149400
      6 C10         2.7520    2.6130    4.3040 c         1 HCG      0.591100
      7 N11         1.4540    2.4470    5.0520 n4        1 HCG     -0.683800
      8 C12         1.2940    3.3650    6.2210 c3        1 HCG      0.066500
      9 C13         2.5230    3.2690    7.1600 c         1 HCG      0.659100
     10 N14         0.9390    0.7130    0.2180 n4        1 HCG     -0.833600
     11 O15         3.1520    3.7570    4.1390 o         1 HCG     -0.450100
     12 C16        -0.0120    3.0550    6.9540 c3        1 HCG     -0.052300
     13 S17        -0.0800    1.3550    7.4290 sh        1 HCG     -0.305900
     14 O18         3.4690    2.5000    6.8790 o         1 HCG     -0.625100
     15 O19         0.5580    0.1530    3.7840 o         1 HCG     -0.803800
     16 O20         0.3280    1.9780    2.5210 o         1 HCG     -0.803800
     17 N29         2.5650    4.1030    8.2430 n         1 HCG     -0.524900
     18 C30         3.6860    4.1020    9.1440 c3        1 HCG     -0.011000
     19 C31         3.6790    2.9430   10.1320 c         1 HCG      0.598100
     20 O42         3.3500    3.0210   11.3120 o         1 HCG     -0.455000
     21 O43         4.0790    1.7120    9.7190 oh        1 HCG     -0.564100
     22 H2          0.9430   -1.0310    1.4460 hx        1 HCG      0.121700
     23 H3C1        3.0360   -0.8360    2.4440 hc        1 HCG      0.083700
     24 H3C2        3.3770   -0.2510    0.7730 hc        1 HCG      0.083700
     25 H4C1        2.8340    2.1770    1.8660 hc        1 HCG      0.072200
     26 H4C2        4.4680    1.4090    1.9310 hc        1 HCG      0.072200
     27 H7C1        2.8930    0.4320    4.2240 hc        1 HCG      0.117700
     28 H7C2        4.4510    1.3590    4.2030 hc        1 HCG      0.117700
     29 H11         0.6770    2.6110    4.3700 hn        1 HCG      0.505300
     30 H12         1.2620    4.4230    5.8120 hx        1 HCG      0.132700
     31 H141        0.7770    1.7150    0.4370 hn        1 HCG      0.459467
     32 H142        0.0660    0.3160   -0.1330 hn        1 HCG      0.459467
     33 H161       -0.8830    3.3420    6.3120 h1        1 HCG      0.108200
     34 H162       -0.0790    3.6830    7.8790 h1        1 HCG      0.108200
     35 HS         -1.1710    0.9740    6.7760 hs        1 HCG      0.237800
     36 H29         4.3170    1.7310    8.7780 ho        1 HCG      0.445000
     37 H30         3.6670    5.0640    9.7340 h1        1 HCG      0.104200
     38 HC1         4.6440    4.0580    8.5470 h1        1 HCG      0.104200
     39 H112        1.3530    1.4600    5.3830 hn        1 HCG      0.505300
     40 H143        1.6690    0.6240   -0.4880 hn        1 HCG      0.459467
     41 H292        1.7600    4.6210    8.5120 hn        1 HCG      0.338500
@<TRIPOS>BOND
     1    1    2 1   
     2    1   15 1   
     3    1   16 1   
     4    2    3 1   
     5    2   10 1   
     6    2   22 1   
     7    3    4 1   
     8    3   23 1   
     9    3   24 1   
    10    4    5 1   
    11    4   25 1   
    12    4   26 1   
    13    5    6 1   
    14    5   27 1   
    15    5   28 1   
    16    6    7 1   
    17    6   11 2   
    18    7    8 1   
    19    7   29 1   
    20    7   39 1   
    21    8    9 1   
    22    8   12 1   
    23    8   30 1   
    24    9   14 2   
    25    9   17 1   
    26   10   31 1   
    27   10   32 1   
    28   10   40 1   
    29   12   13 1   
    30   12   33 1   
    31   12   34 1   
    32   13   35 1   
    33   17   18 1   
    34   17   41 1   
    35   18   19 1   
    36   18   37 1   
    37   18   38 1   
    38   19   20 2   
    39   19   21 1   
    40   21   36 1   
@<TRIPOS>SUBSTRUCTURE
     1 HCG         1 TEMP              0 ****  ****    0 ROOT
