@<TRIPOS>MOLECULE
HCG
   38    36     1     0     0
SMALL
bcc


@<TRIPOS>ATOM
      1 C1         -4.2210    2.5250   -3.4660 c1        1 HCG      0.773000
      2 C2         -2.7040    2.6800   -3.5450 c2        1 HCG      0.134200
      3 C3         -2.1130    2.7480   -2.1130 c3        1 HCG     -0.140700
      4 C4         -1.2660    1.4670   -1.8410 c3        1 HCG     -0.072400
      5 C7         -0.6740    1.5360   -0.4390 c3        1 HCG     -0.151400
      6 C10         0.2120    0.3020   -0.1940 c         1 HCG      0.660100
      7 N11         0.8900    0.1550    1.0260 n         1 HCG     -0.549900
      8 C12         1.7320   -0.9470    1.2310 c3        1 HCG      0.021700
      9 C13         1.3320   -1.6750    2.5640 c         1 HCG      0.611100
     10 N14        -2.3930    3.8460   -4.2320 nh        1 HCG     -0.477100
     11 O15         0.3050   -0.5730   -1.0610 o         1 HCG     -0.633100
     12 C16         3.1440   -0.4810    1.3270 c3        1 HCG      0.015700
     13 S17         4.1880   -1.5540    0.3750 sh        1 HCG     -0.503900
     14 O18         1.0930   -1.0210    3.5650 o         1 HCG     -0.644100
     15 O19        -4.9200    3.4530   -2.9980 o         1 HCG     -0.817500
     16 O20        -4.7740    1.5180   -3.9700 o         1 HCG     -0.817500
     17 N29         1.3910   -3.1110    2.6460 n         1 HCG     -0.502900
     18 C30         1.0650   -3.7730    3.8830 c3        1 HCG     -0.067000
     19 C31         1.3980   -5.2620    3.7690 c         1 HCG      0.902600
     20 O42         0.5250   -6.0750    3.3340 o         1 HCG     -0.843300
     21 O43         2.5160   -5.6940    4.1780 o         1 HCG     -0.843300
     22 H2         -2.3310    1.9300   -4.0080 h4        1 HCG     -0.047200
     23 H3C1       -1.5360    3.5490   -2.0300 hc        1 HCG      0.046200
     24 H3C2       -2.8310    2.8010   -1.4700 hc        1 HCG      0.046200
     25 H4C1       -0.5290    1.4060   -2.5120 hc        1 HCG      0.046700
     26 H4C2       -1.8380    0.6780   -1.9130 hc        1 HCG      0.046700
     27 H7C1       -0.1230    2.3630   -0.3510 hc        1 HCG      0.062700
     28 H7C2       -1.4040    1.5550    0.2260 hc        1 HCG      0.062700
     29 H11         0.8390    0.8120    1.6570 hn        1 HCG      0.322500
     30 H12         1.6420   -1.5770    0.4680 h1        1 HCG      0.113700
     31 H141       -2.2590    4.5320   -3.6300 hn        1 HCG      0.174200
     32 H142       -1.6490    3.7200   -4.7100 hn        1 HCG      0.174200
     33 H161        3.4260   -0.4960    2.2570 h1        1 HCG      0.078200
     34 H162        3.2120    0.4410    0.9770 h1        1 HCG      0.078200
     35 HS          5.2820   -1.1410    0.3830 hs        1 HCG      0.328800
     36 H29         1.6910   -3.5910    1.9430 hn        1 HCG      0.311500
     37 H30         0.1020   -3.6640    4.0710 h1        1 HCG      0.051700
     38 HC1         1.5800   -3.3810    4.6040 h1        1 HCG      0.051700
@<TRIPOS>BOND
     1    1   15 2   
     2    1   16 2   
     3    2    3 1   
     4    2   10 2   
     5    2   22 1   
     6    3    4 1   
     7    3   23 1   
     8    3   24 1   
     9    4    5 1   
    10    4   25 1   
    11    4   26 1   
    12    5    6 1   
    13    5   27 1   
    14    5   28 1   
    15    6    7 1   
    16    6   11 2   
    17    7    8 1   
    18    7   29 1   
    19    8    9 1   
    20    8   12 1   
    21    8   30 1   
    22    9   14 2   
    23    9   17 1   
    24   10   31 1   
    25   10   32 1   
    26   12   13 1   
    27   12   33 1   
    28   12   34 1   
    29   13   35 1   
    30   17   18 1   
    31   17   36 1   
    32   18   19 1   
    33   18   37 1   
    34   18   38 1   
    35   19   20 1   
    36   19   21 1   
@<TRIPOS>SUBSTRUCTURE
     1 HCG         1 TEMP              0 ****  ****    0 ROOT
