@<TRIPOS>MOLECULE
HCG
   41    40     1     0     0
SMALL
bcc


@<TRIPOS>ATOM
      1 C1          0.6410    0.7750    2.6970 c         1 HCG      0.902600
      2 C2          1.3080    0.0870    1.4680 c3        1 HCG     -0.011500
      3 C3          2.8250    0.1010    1.6670 c3        1 HCG     -0.094400
      4 C4          3.3670    1.3980    2.2390 c3        1 HCG     -0.083400
      5 C7          3.3890    1.4090    3.7640 c3        1 HCG     -0.149400
      6 C10         2.7200    2.6460    4.3040 c         1 HCG      0.591100
      7 N11         1.4430    2.4280    5.0740 n4        1 HCG     -0.683800
      8 C12         1.2840    3.3150    6.2670 c3        1 HCG      0.066500
      9 C13         2.5340    3.2320    7.1780 c         1 HCG      0.659100
     10 N14         0.8760    0.7880    0.2140 n4        1 HCG     -0.833600
     11 O15         3.0860    3.8040    4.1570 o         1 HCG     -0.450100
     12 C16         0.0020    2.9540    7.0200 c3        1 HCG     -0.052300
     13 S17        -0.0100    1.2430    7.4580 sh        1 HCG     -0.305900
     14 O18         3.4950    2.4960    6.8600 o         1 HCG     -0.625100
     15 O19         0.5830    0.1390    3.7730 o         1 HCG     -0.803800
     16 O20         0.2790    1.9850    2.5570 o         1 HCG     -0.803800
     17 N29         2.5770    4.0420    8.2790 n         1 HCG     -0.524900
     18 C30         3.7170    4.0520    9.1570 c3        1 HCG     -0.011000
     19 C31         3.7610    2.8710   10.1170 c         1 HCG      0.598100
     20 O42         3.4550    2.9140   11.3050 o         1 HCG     -0.455000
     21 O43         4.1850    1.6610    9.6680 oh        1 HCG     -0.564100
     22 H2          0.9510   -0.9820    1.4020 hx        1 HCG      0.121700
     23 H3C1        3.3490   -0.1230    0.6990 hc        1 HCG      0.083700
     24 H3C2        3.0580   -0.7530    2.3630 hc        1 HCG      0.083700
     25 H4C1        4.4200    1.5400    1.8710 hc        1 HCG      0.072200
     26 H4C2        2.7650    2.2660    1.8560 hc        1 HCG      0.072200
     27 H7C1        4.4510    1.4410    4.1410 hc        1 HCG      0.117700
     28 H7C2        2.9180    0.4720    4.1730 hc        1 HCG      0.117700
     29 H11         0.6480    2.5860    4.4130 hn        1 HCG      0.505300
     30 H12         1.2150    4.3810    5.8830 hx        1 HCG      0.132700
     31 H141        0.6910    1.7800    0.4590 hn        1 HCG      0.459467
     32 H142        0.0060    0.3750   -0.1280 hn        1 HCG      0.459467
     33 H161       -0.0620    3.5600    7.9590 h1        1 HCG      0.107700
     34 H162       -0.8890    3.2310    6.4020 h1        1 HCG      0.107700
     35 HS         -1.1050    0.8470    6.8200 hs        1 HCG      0.237800
     36 H29         4.4040    1.7080    8.7230 ho        1 HCG      0.445000
     37 H30         4.6620    4.0470    8.5390 h1        1 HCG      0.104200
     38 HC1         3.6830    5.0000    9.7690 h1        1 HCG      0.104200
     39 H112        1.3760    1.4320    5.3850 hn        1 HCG      0.505300
     40 H143        1.5930    0.7340   -0.5080 hn        1 HCG      0.459467
     41 H292        1.7640    4.5320    8.5760 hn        1 HCG      0.338500
@<TRIPOS>BOND
     1    1    2 1   
     2    1   15 1   
     3    1   16 1   
     4    2    3 1   
     5    2   10 1   
     6    2   22 1   
     7    3    4 1   
     8    3   23 1   
     9    3   24 1   
    10    4    5 1   
    11    4   25 1   
    12    4   26 1   
    13    5    6 1   
    14    5   27 1   
    15    5   28 1   
    16    6    7 1   
    17    6   11 2   
    18    7    8 1   
    19    7   29 1   
    20    7   39 1   
    21    8    9 1   
    22    8   12 1   
    23    8   30 1   
    24    9   14 2   
    25    9   17 1   
    26   10   31 1   
    27   10   32 1   
    28   10   40 1   
    29   12   13 1   
    30   12   33 1   
    31   12   34 1   
    32   13   35 1   
    33   17   18 1   
    34   17   41 1   
    35   18   19 1   
    36   18   37 1   
    37   18   38 1   
    38   19   20 2   
    39   19   21 1   
    40   21   36 1   
@<TRIPOS>SUBSTRUCTURE
     1 HCG         1 TEMP              0 ****  ****    0 ROOT
