@<TRIPOS>MOLECULE
HCG
   41    40     1     0     0
SMALL
bcc


@<TRIPOS>ATOM
      1 C1          0.5830    0.7480    2.5880 c         1 HCG      0.902600
      2 C2          1.1880    0.1420    1.2850 c3        1 HCG     -0.012500
      3 C3          2.7120    0.1460    1.4090 c3        1 HCG     -0.094400
      4 C4          3.2840    1.4090    2.0310 c3        1 HCG     -0.083400
      5 C7          3.3750    1.3310    3.5510 c3        1 HCG     -0.150400
      6 C10         2.7240    2.5300    4.1920 c         1 HCG      0.588100
      7 N11         1.5030    2.2550    5.0280 ny        1 HCG     -0.681800
      8 C12         1.3960    3.0910    6.2610 c3        1 HCG      0.058500
      9 C13         2.6950    2.9990    7.1050 c         1 HCG      0.655100
     10 N14         0.6940    0.9220    0.1030 nz        1 HCG     -0.833600
     11 O15         3.0690    3.6980    4.0780 o         1 HCG     -0.449100
     12 C16         0.1800    2.6660    7.0890 c3        1 HCG     -0.054300
     13 S17         0.1480    0.9180    7.3460 sh        1 HCG     -0.302900
     14 O18         3.5920    2.1910    6.7940 o         1 HCG     -0.596100
     15 O19         0.5820    0.0450    3.6240 o         1 HCG     -0.802800
     16 O20         0.2110    1.9620    2.5430 o         1 HCG     -0.802800
     17 N29         2.8320    3.9150    8.1200 ns        1 HCG     -0.510900
     18 C30         3.8670    3.7800    9.1110 c3        1 HCG     -0.021000
     19 C31         3.3200    3.5580   10.5110 c         1 HCG      0.602100
     20 O42         2.1380    3.6280   10.8480 o         1 HCG     -0.485000
     21 O43         4.1870    3.2750   11.5170 oh        1 HCG     -0.546100
     22 H2          0.8270   -0.9210    1.1690 hx        1 HCG      0.120700
     23 H3C1        3.1880   -0.0180    0.4050 hc        1 HCG      0.082700
     24 H3C2        2.9780   -0.7470    2.0410 hc        1 HCG      0.082700
     25 H4C1        4.3190    1.5710    1.6240 hc        1 HCG      0.071700
     26 H4C2        2.6680    2.2970    1.7270 hc        1 HCG      0.071700
     27 H7C1        2.9270    0.3680    3.9250 hc        1 HCG      0.117200
     28 H7C2        4.4520    1.3490    3.8810 hc        1 HCG      0.117200
     29 H11         1.4750    1.2460    5.3040 hn        1 HCG      0.505300
     30 H12         1.2710    4.1660    5.9230 hx        1 HCG      0.130700
     31 H141        0.5170    1.8940    0.4230 hn        1 HCG      0.458800
     32 H142       -0.1890    0.5270   -0.2250 hn        1 HCG      0.458800
     33 H161        0.2270    3.1560    8.0970 h1        1 HCG      0.113200
     34 H162       -0.7560    3.0290    6.5960 h1        1 HCG      0.113200
     35 HS         -0.9570    0.6070    6.6790 hs        1 HCG      0.231800
     36 H29         2.0310    4.4390    8.4070 hn        1 HCG      0.334500
     37 H30         4.5550    2.9260    8.8380 h1        1 HCG      0.105700
     38 HC1         4.4690    4.7370    9.1230 h1        1 HCG      0.105700
     39 H112        0.6660    2.4210    4.4220 hn        1 HCG      0.505300
     40 H143        1.3770    0.9220   -0.6540 hn        1 HCG      0.458800
     41 H292        5.0950    3.2360   11.1800 ho        1 HCG      0.436000
@<TRIPOS>BOND
     1    1    2 1   
     2    1   15 1   
     3    1   16 1   
     4    2    3 1   
     5    2   10 1   
     6    2   22 1   
     7    3    4 1   
     8    3   23 1   
     9    3   24 1   
    10    4    5 1   
    11    4   25 1   
    12    4   26 1   
    13    5    6 1   
    14    5   27 1   
    15    5   28 1   
    16    6    7 1   
    17    6   11 2   
    18    7    8 1   
    19    7   29 1   
    20    7   39 1   
    21    8    9 1   
    22    8   12 1   
    23    8   30 1   
    24    9   14 2   
    25    9   17 1   
    26   10   31 1   
    27   10   32 1   
    28   10   40 1   
    29   12   13 1   
    30   12   33 1   
    31   12   34 1   
    32   13   35 1   
    33   17   18 1   
    34   17   36 1   
    35   18   19 1   
    36   18   37 1   
    37   18   38 1   
    38   19   20 2   
    39   19   21 1   
    40   21   41 1   
@<TRIPOS>SUBSTRUCTURE
     1 HCG         1 TEMP              0 ****  ****    0 ROOT
