@<TRIPOS>MOLECULE
HCG
   38    37     1     0     0
SMALL
bcc


@<TRIPOS>ATOM
      1 C1         -5.7220   -4.1250   -8.4450 c         1 HCG      0.886600
      2 C2         -5.1150   -4.8280   -7.1870 c3        1 HCG      0.025500
      3 C3         -4.6840   -3.7790   -6.1590 c3        1 HCG     -0.061400
      4 C4         -3.3490   -3.1260   -6.4470 c3        1 HCG     -0.072400
      5 C7         -3.1630   -1.9040   -5.5690 c3        1 HCG     -0.145400
      6 C10        -1.7220   -1.4300   -5.5310 c         1 HCG      0.658100
      7 N11        -1.4890   -0.2170   -4.8950 n         1 HCG     -0.549900
      8 C12        -0.1560    0.2440   -4.5990 c3        1 HCG      0.024700
      9 C13         0.0690    0.4560   -3.0750 c         1 HCG      0.619100
     10 N14        -4.0980   -5.8280   -7.4830 n3        1 HCG     -0.894800
     11 O15        -0.7840   -2.0600   -6.0610 o         1 HCG     -0.628100
     12 C16         0.2090    1.5250   -5.3640 c3        1 HCG      0.019700
     13 S17        -0.5080    3.0330   -4.7740 sh        1 HCG     -0.496900
     14 O18        -0.8480    0.2460   -2.2520 o         1 HCG     -0.625100
     15 O19        -6.6210   -3.2590   -8.2550 o         1 HCG     -0.849300
     16 O20        -5.3190   -4.4890   -9.5880 o         1 HCG     -0.849300
     17 N29         1.3600    0.7690   -2.6830 n         1 HCG     -0.502900
     18 C30         1.6060    1.4290   -1.4200 c3        1 HCG     -0.071000
     19 C31         2.2090    2.8530   -1.5620 c         1 HCG      0.898600
     20 O42         2.6730    3.3820   -0.5170 o         1 HCG     -0.843800
     21 O43         2.2080    3.4020   -2.7050 o         1 HCG     -0.843800
     22 H2         -5.9780   -5.3970   -6.7240 h1        1 HCG      0.033700
     23 H3C1       -4.6440   -4.2490   -5.1410 hc        1 HCG      0.035700
     24 H3C2       -5.4910   -2.9960   -6.1480 hc        1 HCG      0.035700
     25 H4C1       -2.5080   -3.8430   -6.2570 hc        1 HCG      0.058700
     26 H4C2       -3.2980   -2.8270   -7.5270 hc        1 HCG      0.058700
     27 H7C1       -3.8240   -1.0750   -5.9380 hc        1 HCG      0.062200
     28 H7C2       -3.4730   -2.1440   -4.5160 hc        1 HCG      0.062200
     29 H11        -2.2120    0.1740   -4.3340 hn        1 HCG      0.322500
     30 H12         0.5700   -0.5630   -4.9370 h1        1 HCG      0.096700
     31 H141       -3.2300   -5.3620   -7.6780 hn        1 HCG      0.332300
     32 H142       -4.3710   -6.2820   -8.3410 hn        1 HCG      0.332300
     33 H161        1.3220    1.6240   -5.3820 h1        1 HCG      0.075200
     34 H162       -0.1420    1.4340   -6.4230 h1        1 HCG      0.075200
     35 HS          0.4150    3.3610   -3.8230 hs        1 HCG      0.320800
     36 H29         1.9450    1.1340   -3.4100 hn        1 HCG      0.296500
     37 H30         2.3300    0.7930   -0.8410 h1        1 HCG      0.052200
     38 HC1         0.6550    1.5070   -0.8260 h1        1 HCG      0.052200
@<TRIPOS>BOND
     1    1    2 1   
     2    1   15 1   
     3    1   16 1   
     4    2    3 1   
     5    2   10 1   
     6    2   22 1   
     7    3    4 1   
     8    3   23 1   
     9    3   24 1   
    10    4    5 1   
    11    4   25 1   
    12    4   26 1   
    13    5    6 1   
    14    5   27 1   
    15    5   28 1   
    16    6    7 1   
    17    6   11 2   
    18    7    8 1   
    19    7   29 1   
    20    8    9 1   
    21    8   12 1   
    22    8   30 1   
    23    9   14 2   
    24    9   17 1   
    25   10   31 1   
    26   10   32 1   
    27   12   13 1   
    28   12   33 1   
    29   12   34 1   
    30   13   35 1   
    31   17   18 1   
    32   17   36 1   
    33   18   19 1   
    34   18   37 1   
    35   18   38 1   
    36   19   20 1   
    37   19   21 1   
@<TRIPOS>SUBSTRUCTURE
     1 HCG         1 TEMP              0 ****  ****    0 ROOT
