@<TRIPOS>MOLECULE
HCI
   20    20     1     0     0
SMALL
bcc


@<TRIPOS>ATOM
      1 C1          0.0340   -0.0000    0.0570 c         1 HCI      0.908600
      2 O1          1.2990    0.0000    0.0360 o         1 HCI     -0.850300
      3 O2         -0.6540   -0.0070    1.1180 o         1 HCI     -0.850300
      4 C2         -0.7360    0.0070   -1.2760 c3        1 HCI     -0.190400
      5 C3          0.2030    0.0130   -2.4620 c3        1 HCI     -0.036100
      6 C1'        -0.5230    0.0200   -3.7620 ca        1 HCI     -0.038300
      7 C2'        -0.8700    1.2290   -4.3790 ca        1 HCI     -0.138000
      8 C3'        -1.5460    1.2350   -5.5970 ca        1 HCI     -0.137000
      9 C4'        -1.8850    0.0330   -6.2170 ca        1 HCI     -0.161000
     10 C5'        -1.5470   -1.1760   -5.6090 ca        1 HCI     -0.137000
     11 C6'        -0.8710   -1.1830   -4.3910 ca        1 HCI     -0.138000
     12 H21        -1.3940    0.9110   -1.2980 hc        1 HCI      0.025700
     13 H22        -1.3950   -0.8960   -1.3080 hc        1 HCI      0.025700
     14 H31         0.8700   -0.8880   -2.3960 hc        1 HCI      0.057700
     15 H32         0.8710    0.9130   -2.3860 hc        1 HCI      0.057700
     16 H2'        -0.6070    2.1780   -3.8880 ha        1 HCI      0.133000
     17 H3'        -1.8140    2.1900   -6.0700 ha        1 HCI      0.113000
     18 H4'        -2.4180    0.0380   -7.1770 ha        1 HCI      0.111000
     19 H5'        -1.8160   -2.1260   -6.0920 ha        1 HCI      0.113000
     20 H6'        -0.6090   -2.1370   -3.9090 ha        1 HCI      0.133000
@<TRIPOS>BOND
     1    1    2 1   
     2    1    3 1   
     3    1    4 1   
     4    4    5 1   
     5    4   12 1   
     6    4   13 1   
     7    5    6 1   
     8    5   14 1   
     9    5   15 1   
    10    6    7 ar  
    11    6   11 ar  
    12    7    8 ar  
    13    7   16 1   
    14    8    9 ar  
    15    8   17 1   
    16    9   10 ar  
    17    9   18 1   
    18   10   11 ar  
    19   10   19 1   
    20   11   20 1   
@<TRIPOS>SUBSTRUCTURE
     1 HCI         1 TEMP              0 ****  ****    0 ROOT
