@<TRIPOS>MOLECULE
HCI
   20    17     1     0     0
SMALL
bcc


@<TRIPOS>ATOM
      1 C1         -1.6900   -2.4650    1.6880 c1        1 HCI      0.327000
      2 O1         -1.6360   -2.4230    2.9450 o         1 HCI     -0.580000
      3 O2         -2.6260   -3.0840    1.1180 os        1 HCI     -0.588000
      4 C2         -0.6380   -1.7580    0.8630 c3        1 HCI     -0.220000
      5 C3         -1.2110   -0.4730    0.3080 c3        1 HCI     -0.127000
      6 C1'        -0.0900    0.3900   -0.2260 c2        1 HCI     -0.030000
      7 C2'         0.4950    0.0890   -1.4470 c2        1 HCI     -0.132000
      8 C3'         1.4820    0.9130   -1.9640 c1        1 HCI     -0.137000
      9 C4'         1.8840    2.0380   -1.2620 c1        1 HCI     -0.150000
     10 C5'         1.3000    2.3390   -0.0420 c1        1 HCI     -0.150000
     11 C6'         0.3130    1.5150    0.4760 c1        1 HCI     -0.143000
     12 H21         0.1360   -1.5530    1.4260 hc        1 HCI      0.064000
     13 H22        -0.3590   -2.3360    0.1240 hc        1 HCI      0.064000
     14 H31        -1.8360   -0.6810   -0.4150 hc        1 HCI      0.098500
     15 H32        -1.6820    0.0070    1.0180 hc        1 HCI      0.098500
     16 H2'         0.2230   -0.7120   -1.9330 ha        1 HCI      0.142000
     17 H3'         1.8930    0.7010   -2.8240 ha        1 HCI      0.114000
     18 H4'         2.5690    2.6270   -1.6340 ha        1 HCI      0.111000
     19 H5'         1.5730    3.1390    0.4460 ha        1 HCI      0.111000
     20 H6'        -0.0990    1.7280    1.3360 ha        1 HCI      0.127000
@<TRIPOS>BOND
     1    1    2 1   
     2    1    4 1   
     3    4    5 1   
     4    4   12 1   
     5    4   13 1   
     6    5    6 1   
     7    5   14 1   
     8    5   15 1   
     9    6    7 1   
    10    6   11 1   
    11    7    8 1   
    12    7   16 1   
    13    8   17 1   
    14    9   10 1   
    15    9   18 1   
    16   10   19 1   
    17   11   20 1   
@<TRIPOS>SUBSTRUCTURE
     1 HCI         1 TEMP              0 ****  ****    0 ROOT
