@<TRIPOS>MOLECULE
HCI
   20    20     1     0     0
SMALL
bcc


@<TRIPOS>ATOM
      1 C1          2.9090   -0.0160   -0.0950 c         1 HCI      0.908600
      2 O1          3.2330    0.9470    0.6590 o         1 HCI     -0.849300
      3 O2          3.7290   -0.8600   -0.5560 o         1 HCI     -0.849300
      4 C2          1.4290   -0.1670   -0.4960 c3        1 HCI     -0.191400
      5 C3          0.5230    0.0760    0.6900 c3        1 HCI     -0.038100
      6 C1'        -0.9200    0.0560    0.3270 ca        1 HCI     -0.040300
      7 C2'        -1.5390   -1.1440   -0.0500 ca        1 HCI     -0.136500
      8 C3'        -2.8920   -1.1700   -0.3800 ca        1 HCI     -0.138000
      9 C4'        -3.6460    0.0030   -0.3400 ca        1 HCI     -0.161000
     10 C5'        -3.0380    1.2020    0.0300 ca        1 HCI     -0.138000
     11 C6'        -1.6850    1.2290    0.3610 ca        1 HCI     -0.136500
     12 H21         1.2150    0.5770   -1.3030 hc        1 HCI      0.024700
     13 H22         1.2580   -1.1900   -0.9140 hc        1 HCI      0.024700
     14 H31         0.7160   -0.7150    1.4640 hc        1 HCI      0.057700
     15 H32         0.8050    1.0620    1.1510 hc        1 HCI      0.057700
     16 H2'        -0.9400   -2.0660   -0.0890 ha        1 HCI      0.134500
     17 H3'        -3.3660   -2.1160   -0.6760 ha        1 HCI      0.113000
     18 H4'        -4.7130   -0.0180   -0.6010 ha        1 HCI      0.111000
     19 H5'        -3.6270    2.1300    0.0590 ha        1 HCI      0.113000
     20 H6'        -1.2060    2.1780    0.6480 ha        1 HCI      0.134500
@<TRIPOS>BOND
     1    1    2 1   
     2    1    3 1   
     3    1    4 1   
     4    4    5 1   
     5    4   12 1   
     6    4   13 1   
     7    5    6 1   
     8    5   14 1   
     9    5   15 1   
    10    6    7 ar  
    11    6   11 ar  
    12    7    8 ar  
    13    7   16 1   
    14    8    9 ar  
    15    8   17 1   
    16    9   10 ar  
    17    9   18 1   
    18   10   11 ar  
    19   10   19 1   
    20   11   20 1   
@<TRIPOS>SUBSTRUCTURE
     1 HCI         1 TEMP              0 ****  ****    0 ROOT
