@<TRIPOS>MOLECULE
HCI
   20    20     1     0     0
SMALL
bcc


@<TRIPOS>ATOM
      1 C1          0.0740   -0.2820    0.0190 c         1 HCI      0.907600
      2 O1          1.1710   -0.9070   -0.0640 o         1 HCI     -0.849300
      3 O2         -0.4000    0.1710    1.0990 o         1 HCI     -0.849300
      4 C2         -0.7520   -0.0760   -1.2650 c3        1 HCI     -0.191400
      5 C3          0.1420    0.2760   -2.4330 c3        1 HCI     -0.041100
      6 C1'        -0.5540    0.1760   -3.7440 ca        1 HCI     -0.037300
      7 C2'        -0.8330    1.3210   -4.5020 ca        1 HCI     -0.137500
      8 C3'        -1.4750    1.2150   -5.7350 ca        1 HCI     -0.137500
      9 C4'        -1.8480   -0.0340   -6.2280 ca        1 HCI     -0.162000
     10 C5'        -1.5750   -1.1800   -5.4790 ca        1 HCI     -0.137500
     11 C6'        -0.9340   -1.0770   -4.2480 ca        1 HCI     -0.137500
     12 H21        -1.5100    0.7270   -1.0940 hc        1 HCI      0.024700
     13 H22        -1.2990   -1.0310   -1.4740 hc        1 HCI      0.024700
     14 H31         1.0230   -0.4260   -2.4190 hc        1 HCI      0.059200
     15 H32         0.5440    1.3140   -2.2890 hc        1 HCI      0.059200
     16 H2'        -0.5450    2.3090   -4.1160 ha        1 HCI      0.134500
     17 H3'        -1.6900    2.1210   -6.3190 ha        1 HCI      0.112500
     18 H4'        -2.3540   -0.1170   -7.1990 ha        1 HCI      0.111000
     19 H5'        -1.8690   -2.1670   -5.8630 ha        1 HCI      0.112500
     20 H6'        -0.7210   -1.9780   -3.6520 ha        1 HCI      0.134500
@<TRIPOS>BOND
     1    1    2 1   
     2    1    3 1   
     3    1    4 1   
     4    4    5 1   
     5    4   12 1   
     6    4   13 1   
     7    5    6 1   
     8    5   14 1   
     9    5   15 1   
    10    6    7 ar  
    11    6   11 ar  
    12    7    8 ar  
    13    7   16 1   
    14    8    9 ar  
    15    8   17 1   
    16    9   10 ar  
    17    9   18 1   
    18   10   11 ar  
    19   10   19 1   
    20   11   20 1   
@<TRIPOS>SUBSTRUCTURE
     1 HCI         1 TEMP              0 ****  ****    0 ROOT
