@<TRIPOS>MOLECULE
HCL
   21    21     1     0     0
SMALL
bcc


@<TRIPOS>ATOM
      1 C           2.2410   -1.1080    0.5870 c         1 HCL      0.893600
      2 N           1.8010   -0.9810   -1.8960 n3        1 HCL     -0.878800
      3 O           2.2190   -2.3730    0.5600 o         1 HCL     -0.828300
      4 C1          0.0540   -0.2830   -0.3350 ca        1 HCL      0.068700
      5 C2         -0.6980    0.8900   -0.4950 ca        1 HCL     -0.086600
      6 C3         -2.0780    0.8890   -0.2100 ca        1 HCL      0.139100
      7 O3         -2.8840    2.0020   -0.3400 oh        1 HCL     -0.513100
      8 C4         -2.7280   -0.2710    0.2270 ca        1 HCL     -0.205000
      9 C5         -0.5920   -1.4480    0.0960 ca        1 HCL     -0.227000
     10 C6         -1.9620   -1.4340    0.3750 ca        1 HCL      0.140100
     11 CA          1.5340   -0.3540   -0.6040 c3        1 HCL      0.037800
     12 OXT         2.8090   -0.4070    1.4600 o         1 HCL     -0.828300
     13 H2          2.7990   -1.0210   -2.0080 hn        1 HCL      0.334300
     14 H           1.4780   -1.9340   -1.8510 hn        1 HCL      0.334300
     15 HO3        -2.3210    2.7440   -0.6110 ho        1 HCL      0.420000
     16 H4         -3.8010   -0.2630    0.4470 ha        1 HCL      0.150000
     17 HO4        -1.9670   -3.2520    0.9480 ho        1 HCL      0.423000
     18 H5          0.0170   -2.3600    0.2440 ha        1 HCL      0.192000
     19 HA          1.9650    0.6880   -0.6360 h1        1 HCL      0.069700
     20 O4         -2.6310   -2.5610    0.8050 oh        1 HCL     -0.517100
     21 CL          0.0260    2.3420   -1.0390 cl        1 HCL     -0.120400
@<TRIPOS>BOND
     1    1    3 1   
     2    1   11 1   
     3    1   12 1   
     4    2   11 1   
     5    2   13 1   
     6    2   14 1   
     7    4    5 ar  
     8    4    9 ar  
     9    4   11 1   
    10    5    6 ar  
    11    5   21 1   
    12    6    7 1   
    13    6    8 ar  
    14    7   15 1   
    15    8   10 ar  
    16    8   16 1   
    17    9   10 ar  
    18    9   18 1   
    19   10   20 1   
    20   11   19 1   
    21   17   20 1   
@<TRIPOS>SUBSTRUCTURE
     1 HCL         1 TEMP              0 ****  ****    0 ROOT
