@<TRIPOS>MOLECULE
HCM
   20    19     1     0     0
SMALL
bcc


@<TRIPOS>ATOM
      1 C1          3.6050    1.0660    1.0300 c3        1 HCM     -0.050000
      2 S2          2.8650    0.6580   -0.5020 ss        1 HCM     -0.162100
      3 SD          2.0990   -1.2870   -0.2710 ss        1 HCM     -0.245100
      4 CG          0.5080   -1.2150    0.5090 c3        1 HCM      0.021700
      5 CB         -0.5330   -0.3500   -0.1460 c3        1 HCM     -0.068400
      6 CA         -1.8750   -0.4520    0.5870 c3        1 HCM      0.016500
      7 C          -2.7840    0.7320    0.1100 c         1 HCM      0.890600
      8 OXT        -2.3260    1.9000    0.2380 o         1 HCM     -0.838800
      9 O          -3.9280    0.4510   -0.3480 o         1 HCM     -0.838800
     10 N          -2.4880   -1.7700    0.4720 n3        1 HCM     -0.895800
     11 H11         4.0520    2.0770    0.8760 h1        1 HCM      0.062367
     12 H12         2.8600    1.1250    1.8550 h1        1 HCM      0.062367
     13 H13         4.4070    0.3530    1.3220 h1        1 HCM      0.062367
     14 HG1         0.2040   -2.2960    0.4720 h1        1 HCM      0.074700
     15 HG2         0.6310   -0.9210    1.5800 h1        1 HCM      0.074700
     16 HB2        -0.2220    0.7300   -0.1170 hc        1 HCM      0.064700
     17 HB1        -0.6560   -0.6390   -1.2210 hc        1 HCM      0.064700
     18 HA         -1.6890   -0.2800    1.6880 h1        1 HCM      0.039700
     19 H          -3.4300   -1.6880    0.8180 hn        1 HCM      0.332800
     20 H2         -2.5690   -1.9960   -0.5040 hn        1 HCM      0.332800
@<TRIPOS>BOND
     1    1    2 1   
     2    1   11 1   
     3    1   12 1   
     4    1   13 1   
     5    2    3 1   
     6    3    4 1   
     7    4    5 1   
     8    4   14 1   
     9    4   15 1   
    10    5    6 1   
    11    5   16 1   
    12    5   17 1   
    13    6    7 1   
    14    6   10 1   
    15    6   18 1   
    16    7    8 1   
    17    7    9 1   
    18   10   19 1   
    19   10   20 1   
@<TRIPOS>SUBSTRUCTURE
     1 HCM         1 TEMP              0 ****  ****    0 ROOT
