@<TRIPOS>MOLECULE
HCP
   41    41     1     0     0
SMALL
bcc


@<TRIPOS>ATOM
      1 C3        202.7820 -207.7870  104.1160 ca        1 HCP     -0.025200
      2 C2        203.4880 -208.7590  104.8590 ca        1 HCP      0.292600
      3 N1        204.8460 -208.8490  104.8110 nb        1 HCP     -0.713000
      4 C6        205.4950 -207.9850  104.0240 ca        1 HCP      0.360200
      5 C4        203.4700 -206.8340  103.3150 ca        1 HCP     -0.101900
      6 C4A       202.7310 -205.8820  102.4930 ce        1 HCP      0.014500
      7 N2        201.8210 -204.9660  102.7300 n1        1 HCP     -0.391800
      8 C         201.3040 -204.5840  103.8970 c2        1 HCP     -0.148000
      9 CA1       200.2300 -203.5420  103.9360 c3        1 HCP     -0.042700
     10 CB1       200.0110 -203.1800  105.4030 c3        1 HCP     -0.064400
     11 CB2       201.0940 -203.8860  106.2090 c3        1 HCP     -0.064400
     12 CA2       201.7460 -204.9110  105.2840 c3        1 HCP     -0.042700
     13 P2      -1900.3850    0.7780 -951.7660 p2        1 HCP      0.294600
     14 O6      -1901.1510    0.6920 -952.4030 os        1 HCP     -0.204100
     15 O7      -1899.6190    0.5160 -950.5340 o         1 HCP     -0.663500
     16 O8      -1900.3850    0.1270 -952.3610 o         1 HCP     -0.427000
     17 O1        201.4010 -207.8680  104.1840 oh        1 HCP     -0.561100
     18 C2A       202.7110 -209.7210  105.6930 c3        1 HCP     -0.097400
     19 C5        204.8670 -206.9660  103.2550 ca        1 HCP     -0.172600
     20 C5A       205.7800 -206.0900  102.4280 c3        1 HCP      0.253700
     21 O2        206.7270 -206.8150  101.7390 os        1 HCP     -0.576200
     22 P1        208.3710 -206.6030  102.2190 p5        1 HCP      1.319900
     23 O5        208.4650 -205.1240  102.4980 o         1 HCP     -0.936167
     24 O3        208.4540 -207.4880  103.4420 o         1 HCP     -0.936167
     25 O4        209.1310 -207.0870  101.0130 o         1 HCP     -0.936167
     26 HC6       206.6250 -208.0540  103.9500 h4        1 HCP      0.129100
     27 HC4       203.0400 -205.9140  101.4300 h4        1 HCP     -0.017200
     28 HA11      199.2680 -203.9180  103.4910 hc        1 HCP     -0.001550
     29 HA12      200.5060 -202.6240  103.3510 hc        1 HCP     -0.001550
     30 HB11      200.0580 -202.0720  105.5550 hc        1 HCP     -0.007550
     31 HB12      198.9960 -203.5120  105.7420 hc        1 HCP     -0.007550
     32 HB21      201.8530 -203.1440  106.5640 hc        1 HCP     -0.007550
     33 HB22      200.6590 -204.3730  107.1170 hc        1 HCP     -0.007550
     34 HA21      201.4330 -205.9450  105.5910 hc        1 HCP     -0.001550
     35 HA22      202.8630 -204.8750  105.3720 hc        1 HCP     -0.001550
     36 HO1       201.0440 -207.0710  103.7650 ho        1 HCP      0.438000
     37 HC21      201.9100 -209.1730  106.2470 hc        1 HCP      0.008367
     38 HC22      202.2170 -210.4780  105.0340 hc        1 HCP      0.008367
     39 HC23      203.3550 -210.2610  106.4300 hc        1 HCP      0.008367
     40 HC51      205.1460 -205.5160  101.6890 h1        1 HCP      0.015700
     41 HC52      206.2790 -205.3490  103.1210 h1        1 HCP      0.015700
@<TRIPOS>BOND
     1    1    2 ar  
     2    1    5 ar  
     3    1   17 1   
     4    2    3 ar  
     5    2   18 1   
     6    3    4 ar  
     7    4   19 ar  
     8    4   26 1   
     9    5    6 1   
    10    5   19 ar  
    11    6    7 2   
    12    6   27 1   
    13    7    8 2   
    14    8    9 1   
    15    8   12 1   
    16    9   10 1   
    17    9   28 1   
    18    9   29 1   
    19   10   11 1   
    20   10   30 1   
    21   10   31 1   
    22   11   12 1   
    23   11   32 1   
    24   11   33 1   
    25   12   34 1   
    26   12   35 1   
    27   13   14 1   
    28   13   15 2   
    29   14   16 1   
    30   17   36 1   
    31   18   37 1   
    32   18   38 1   
    33   18   39 1   
    34   19   20 1   
    35   20   21 1   
    36   20   40 1   
    37   20   41 1   
    38   21   22 1   
    39   22   23 1   
    40   22   24 1   
    41   22   25 1   
@<TRIPOS>SUBSTRUCTURE
     1 HCP         1 TEMP              0 ****  ****    0 ROOT
