@<TRIPOS>MOLECULE
HCP
   41    41     1     0     0
SMALL
bcc


@<TRIPOS>ATOM
      1 C3        133.1250  -42.6920   63.4170 c2        1 HCP     -0.374000
      2 C2        132.8780  -41.8470   62.3230 c2        1 HCP      0.035000
      3 N1        133.4580  -42.0020   61.1200 n2        1 HCP     -0.342000
      4 C6        134.4120  -42.9950   61.0290 c2        1 HCP     -0.047000
      5 C4        133.9710  -43.8970   63.2820 c3        1 HCP      0.177000
      6 C4A       133.0900  -45.0960   63.4060 c1        1 HCP     -0.025000
      7 N2        132.2880  -45.9520   63.3990 n2        1 HCP      0.057000
      8 C         131.4030  -46.9310   63.5430 c2        1 HCP     -0.465000
      9 CA1       131.7220  -48.3690   63.3470 c3        1 HCP     -0.019500
     10 CB1       130.3880  -49.1070   63.4640 c3        1 HCP     -0.140500
     11 CB2       129.3260  -48.0920   63.8740 c3        1 HCP     -0.140500
     12 CA2       129.9660  -46.7040   63.8390 c3        1 HCP     -0.019500
     13 P2      -1251.2100  414.9910 -569.3520 p3        1 HCP      2.361000
     14 O6      -1251.7930  413.6430 -569.2320 o         1 HCP     -1.120000
     15 O7      -1250.6990  415.4600 -570.6520 o         1 HCP     -1.120000
     16 O8      -1251.1380  415.8710 -568.1720 o         1 HCP     -1.120000
     17 O1        132.6050  -42.4120   64.6710 oh        1 HCP     -0.285000
     18 C2A       131.9120  -40.7150   62.5190 c3        1 HCP     -0.139000
     19 C5        134.7350  -43.8990   62.0020 c2        1 HCP     -0.245000
     20 C5A       135.8560  -44.8950   61.8810 c3        1 HCP      0.112000
     21 O2        136.5980  -44.7580   60.7320 os        1 HCP     -0.734000
     22 P1        138.2640  -45.2210   60.8620 p5        1 HCP      1.555500
     23 O5        138.2030  -46.7270   60.8040 o         1 HCP     -0.944167
     24 O3        138.8760  -44.5560   59.6550 o         1 HCP     -0.944167
     25 O4        138.6940  -44.6670   62.1990 o         1 HCP     -0.944167
     26 HC6       134.9780  -43.0100   60.0780 h4        1 HCP      0.155000
     27 HC4       134.6750  -44.0040   64.1640 hc        1 HCP      0.070000
     28 HA11      132.1960  -48.5700   62.3510 hc        1 HCP      0.040250
     29 HA12      132.4390  -48.7450   64.1260 hc        1 HCP      0.040250
     30 HB11      130.1170  -49.5750   62.4850 hc        1 HCP      0.039750
     31 HB12      130.4550  -49.9310   64.2180 hc        1 HCP      0.039750
     32 HB21      128.4480  -48.1400   63.1820 hc        1 HCP      0.039750
     33 HB22      128.9480  -48.3200   64.9020 hc        1 HCP      0.039750
     34 HA21      129.4670  -46.0670   63.0590 hc        1 HCP      0.040250
     35 HA22      129.8120  -46.1810   64.8210 hc        1 HCP      0.040250
     36 HO1       133.3260  -41.9760   65.1510 ho        1 HCP      0.132000
     37 HC21      132.1860  -39.8190   61.9110 hc        1 HCP      0.044000
     38 HC22      131.8870  -40.4220   63.5980 hc        1 HCP      0.044000
     39 HC23      130.8860  -41.0420   62.2210 hc        1 HCP      0.044000
     40 HC51      135.3610  -45.9200   61.9180 h1        1 HCP      0.031000
     41 HC52      136.5270  -44.8030   62.7880 h1        1 HCP      0.031000
@<TRIPOS>BOND
     1    1    2 1   
     2    1    5 1   
     3    1   17 1   
     4    2    3 1   
     5    2   18 1   
     6    3    4 1   
     7    4   19 1   
     8    4   26 1   
     9    5    6 1   
    10    5   19 1   
    11    5   27 1   
    12    6    7 1   
    13    7    8 1   
    14    8    9 1   
    15    8   12 1   
    16    9   10 1   
    17    9   28 1   
    18    9   29 1   
    19   10   11 1   
    20   10   30 1   
    21   10   31 1   
    22   11   12 1   
    23   11   32 1   
    24   11   33 1   
    25   12   34 1   
    26   12   35 1   
    27   13   14 1   
    28   13   15 1   
    29   13   16 1   
    30   17   36 1   
    31   18   37 1   
    32   18   38 1   
    33   18   39 1   
    34   19   20 1   
    35   20   21 1   
    36   20   40 1   
    37   20   41 1   
    38   21   22 1   
    39   22   23 1   
    40   22   24 1   
    41   22   25 1   
@<TRIPOS>SUBSTRUCTURE
     1 HCP         1 TEMP              0 ****  ****    0 ROOT
