@<TRIPOS>MOLECULE
HCP
   41    41     1     0     0
SMALL
bcc


@<TRIPOS>ATOM
      1 C3        133.2860  -65.6450   64.7770 c2        1 HCP     -0.374000
      2 C2        133.4180  -65.0730   63.5020 c2        1 HCP      0.035000
      3 N1        134.1800  -65.5990   62.5270 n2        1 HCP     -0.342000
      4 C6        134.9310  -66.7030   62.8740 c2        1 HCP     -0.047000
      5 C4        133.8990  -66.9510   65.1010 c3        1 HCP      0.177000
      6 C4A       132.8060  -67.9580   65.2600 c1        1 HCP     -0.025000
      7 N2        131.8470  -68.6280   65.1460 n2        1 HCP      0.056000
      8 C         130.7760  -69.4070   65.2230 c2        1 HCP     -0.465000
      9 CA1       130.8000  -70.8750   64.9920 c3        1 HCP     -0.019500
     10 CB1       129.3650  -71.3500   65.2140 c3        1 HCP     -0.141000
     11 CB2       128.4880  -70.1170   65.3950 c3        1 HCP     -0.141000
     12 CA2       129.4080  -68.9020   65.5050 c3        1 HCP     -0.019500
     13 P2      -1249.5790  627.6160 -586.1330 p3        1 HCP      2.361000
     14 O6      -1249.8780  626.3650 -586.8520 o         1 HCP     -1.120000
     15 O7      -1248.8230  628.6890 -586.8050 o         1 HCP     -1.120000
     16 O8      -1250.0340  627.7940 -584.7430 o         1 HCP     -1.120000
     17 O1        132.5960  -64.9930   65.7880 oh        1 HCP     -0.285000
     18 C2A       132.6600  -63.8070   63.2280 c3        1 HCP     -0.139000
     19 C5        134.8850  -67.3740   64.0650 c2        1 HCP     -0.245000
     20 C5A       135.8040  -68.5090   64.4250 c3        1 HCP      0.112000
     21 O2        136.7620  -68.7690   63.4740 os        1 HCP     -0.734000
     22 P1        138.2590  -69.3990   64.0800 p5        1 HCP      1.555500
     23 O5        137.9300  -70.8450   64.3610 o         1 HCP     -0.944167
     24 O3        139.1950  -69.1680   62.9200 o         1 HCP     -0.944167
     25 O4        138.5320  -68.5720   65.3130 o         1 HCP     -0.944167
     26 HC6       135.6590  -67.0290   62.1070 h4        1 HCP      0.155000
     27 HC4       134.3830  -66.9330   66.1250 hc        1 HCP      0.070000
     28 HA11      131.4990  -71.4010   65.6950 hc        1 HCP      0.040500
     29 HA12      131.1380  -71.1300   63.9530 hc        1 HCP      0.040500
     30 HB11      129.3080  -72.0010   66.1240 hc        1 HCP      0.040250
     31 HB12      129.0100  -71.9630   64.3480 hc        1 HCP      0.040250
     32 HB21      127.8490  -70.2160   66.3080 hc        1 HCP      0.040250
     33 HB22      127.7980  -70.0020   64.5210 hc        1 HCP      0.040250
     34 HA21      129.3300  -68.4500   66.5310 hc        1 HCP      0.040500
     35 HA22      129.0890  -68.1040   64.7830 hc        1 HCP      0.040500
     36 HO1       133.2800  -64.5470   66.3120 ho        1 HCP      0.132000
     37 HC21      133.1610  -63.1720   62.4580 hc        1 HCP      0.044000
     38 HC22      131.6330  -64.0580   62.8640 hc        1 HCP      0.044000
     39 HC23      132.5610  -63.2150   64.1710 hc        1 HCP      0.044000
     40 HC51      135.1300  -69.4140   64.5730 h1        1 HCP      0.031000
     41 HC52      136.2980  -68.2780   65.4170 h1        1 HCP      0.031000
@<TRIPOS>BOND
     1    1    2 1   
     2    1    5 1   
     3    1   17 1   
     4    2    3 1   
     5    2   18 1   
     6    3    4 1   
     7    4   19 1   
     8    4   26 1   
     9    5    6 1   
    10    5   19 1   
    11    5   27 1   
    12    6    7 1   
    13    7    8 1   
    14    8    9 1   
    15    8   12 1   
    16    9   10 1   
    17    9   28 1   
    18    9   29 1   
    19   10   11 1   
    20   10   30 1   
    21   10   31 1   
    22   11   12 1   
    23   11   32 1   
    24   11   33 1   
    25   12   34 1   
    26   12   35 1   
    27   13   14 1   
    28   13   15 1   
    29   13   16 1   
    30   17   36 1   
    31   18   37 1   
    32   18   38 1   
    33   18   39 1   
    34   19   20 1   
    35   20   21 1   
    36   20   40 1   
    37   20   41 1   
    38   21   22 1   
    39   22   23 1   
    40   22   24 1   
    41   22   25 1   
@<TRIPOS>SUBSTRUCTURE
     1 HCP         1 TEMP              0 ****  ****    0 ROOT
