@<TRIPOS>MOLECULE
HCP
   41    41     1     0     0
SMALL
bcc


@<TRIPOS>ATOM
      1 C3         26.4680  -61.2550  204.2060 c2        1 HCP     -0.019000
      2 C2         26.2380  -60.9390  202.8470 c2        1 HCP     -0.124000
      3 N1         27.1540  -60.2750  202.0940 n2        1 HCP     -0.196000
      4 C6         28.2900  -59.9040  202.6980 c2        1 HCP     -0.094000
      5 C4         27.6790  -60.8760  204.8510 c2        1 HCP      0.015000
      6 C4A        27.9920  -61.2300  206.2240 c2        1 HCP     -0.346000
      7 N2         27.1330  -61.8000  207.0600 n2        1 HCP     -0.092000
      8 C          27.4330  -62.1300  208.3140 c2        1 HCP     -0.424000
      9 CA1        26.4320  -62.7720  209.2160 c3        1 HCP     -0.046000
     10 CB1        27.0960  -62.9100  210.5840 c3        1 HCP     -0.142500
     11 CB2        28.5580  -62.5070  210.4300 c3        1 HCP     -0.142500
     12 CA2        28.7290  -61.9320  209.0270 c3        1 HCP     -0.046000
     13 P2       -252.6410  562.1570-1912.0440 p3        1 HCP      2.361000
     14 O6       -251.7470  562.8510-1911.0990 o         1 HCP     -1.120000
     15 O7       -252.2330  560.8690-1912.6330 o         1 HCP     -1.120000
     16 O8       -253.9420  562.7500-1912.3990 o         1 HCP     -1.120000
     17 O1         25.4340  -61.9430  204.8190 oh        1 HCP     -0.331000
     18 C2A        24.9440  -61.3620  202.2360 c3        1 HCP     -0.119000
     19 C5         28.5960  -60.1490  204.0610 c2        1 HCP     -0.126000
     20 C5A        29.9190  -59.6070  204.5550 c3        1 HCP      0.096000
     21 O2         30.2770  -58.4260  203.9440 os        1 HCP     -0.739000
     22 P1         31.6280  -58.4610  202.8720 p5        1 HCP      1.552500
     23 O5         32.5290  -59.5130  203.4660 o         1 HCP     -0.936167
     24 O3         30.9650  -58.8390  201.5680 o         1 HCP     -0.936167
     25 O4         32.1480  -57.0490  202.9500 o         1 HCP     -0.936167
     26 HC6        29.0800  -59.3690  202.0870 h4        1 HCP      0.261000
     27 HC4        29.0230  -60.9920  206.5420 h4        1 HCP      0.103000
     28 HA11       25.4900  -62.1680  209.3040 hc        1 HCP      0.037000
     29 HA12       26.1220  -63.7850  208.8400 hc        1 HCP      0.037000
     30 HB11       26.5890  -62.2490  211.3320 hc        1 HCP      0.032750
     31 HB12       27.0120  -63.9580  210.9680 hc        1 HCP      0.032750
     32 HB21       28.8440  -61.7580  211.2100 hc        1 HCP      0.032750
     33 HB22       29.2210  -63.3980  210.5740 hc        1 HCP      0.032750
     34 HA21       29.5720  -62.4460  208.4930 hc        1 HCP      0.037000
     35 HA22       29.0010  -60.8440  209.0800 hc        1 HCP      0.037000
     36 HO1        25.6970  -62.1120  205.7390 ho        1 HCP      0.248000
     37 HC21       24.8360  -62.4720  202.3230 hc        1 HCP      0.046333
     38 HC22       24.0960  -60.8930  202.7950 hc        1 HCP      0.046333
     39 HC23       24.8640  -61.0770  201.1590 hc        1 HCP      0.046333
     40 HC51       29.8280  -59.4130  205.6660 h1        1 HCP      0.053000
     41 HC52       30.7130  -60.3950  204.3880 h1        1 HCP      0.053000
@<TRIPOS>BOND
     1    1    2 1   
     2    1    5 1   
     3    1   17 1   
     4    2    3 1   
     5    2   18 1   
     6    3    4 1   
     7    4   19 1   
     8    4   26 1   
     9    5    6 1   
    10    5   19 1   
    11    6    7 1   
    12    6   27 1   
    13    7    8 1   
    14    8    9 1   
    15    8   12 1   
    16    9   10 1   
    17    9   28 1   
    18    9   29 1   
    19   10   11 1   
    20   10   30 1   
    21   10   31 1   
    22   11   12 1   
    23   11   32 1   
    24   11   33 1   
    25   12   34 1   
    26   12   35 1   
    27   13   14 1   
    28   13   15 1   
    29   13   16 1   
    30   17   36 1   
    31   18   37 1   
    32   18   38 1   
    33   18   39 1   
    34   19   20 1   
    35   20   21 1   
    36   20   40 1   
    37   20   41 1   
    38   21   22 1   
    39   22   23 1   
    40   22   24 1   
    41   22   25 1   
@<TRIPOS>SUBSTRUCTURE
     1 HCP         1 TEMP              0 ****  ****    0 ROOT
