@<TRIPOS>MOLECULE
HCR
   75    78     1     0     0
SMALL
bcc


@<TRIPOS>ATOM
      1 C18         2.0400    0.1340    0.1510 c3        1 HCR     -0.082100
      2 C13         0.5250    0.0280    0.1150 c3        1 HCR     -0.045000
      3 C12        -0.0440   -0.0540    1.5220 c3        1 HCR     -0.066400
      4 C11         0.4090   -1.3310    2.2120 c3        1 HCR     -0.074400
      5 C9          0.1150   -2.6080    1.4310 c3        1 HCR     -0.048700
      6 C10         0.6710   -3.8570    2.1510 c3        1 HCR     -0.004800
      7 C19         2.1530   -3.6950    2.4780 c3        1 HCR     -0.085100
      8 C1         -0.1220   -4.0410    3.4550 c3        1 HCR     -0.067400
      9 C2          0.1570   -5.3560    4.1440 c3        1 HCR     -0.114400
     10 C3         -0.1490   -6.5220    3.2140 c3        1 HCR      0.145100
     11 O1          0.2110   -7.7640    3.8070 oh        1 HCR     -0.601800
     12 C4          0.6660   -6.4090    1.9300 c3        1 HCR     -0.044200
     13 C5          0.5000   -5.0770    1.2800 c2        1 HCR     -0.080400
     14 C6          0.2620   -5.0070   -0.0360 c2        1 HCR     -0.213200
     15 C7          0.1030   -3.7390   -0.8050 c3        1 HCR      0.181300
     16 O2          0.8470   -3.7770   -2.0220 oh        1 HCR     -0.595800
     17 C8          0.5980   -2.5150   -0.0240 c3        1 HCR     -0.041700
     18 C14         0.0360   -1.2420   -0.6250 c3        1 HCR     -0.058700
     19 C15         0.3060   -0.9440   -2.0920 c3        1 HCR     -0.069400
     20 C16         0.0990    0.5660   -2.2190 c3        1 HCR     -0.079400
     21 C17        -0.0620    1.1370   -0.7930 c3        1 HCR     -0.053700
     22 C20         0.5430    2.5310   -0.6630 c3        1 HCR     -0.055700
     23 C21         0.4070    3.0700    0.7480 c3        1 HCR     -0.091100
     24 C22        -0.1300    3.4930   -1.6410 c3        1 HCR     -0.080400
     25 C23         0.7490    4.6840   -1.9630 c3        1 HCR     -0.079400
     26 C24         0.0490    5.6320   -2.9140 c3        1 HCR     -0.076400
     27 C25         0.9190    6.8240   -3.2870 c3        1 HCR     -0.067700
     28 C27         0.3780    7.4940   -4.5340 c3        1 HCR     -0.089600
     29 C26         1.0020    7.8250   -2.1540 c3        1 HCR     -0.089600
     30 H181        2.4450    0.2140   -0.8870 hc        1 HCR      0.036033
     31 H182        2.5000   -0.7590    0.6370 hc        1 HCR      0.036033
     32 H183        2.3510    1.0380    0.7270 hc        1 HCR      0.036033
     33 H121       -1.1650   -0.0240    1.4750 hc        1 HCR      0.041200
     34 H122        0.2890    0.8240    2.1330 hc        1 HCR      0.041200
     35 H111        1.5100   -1.2560    2.4110 hc        1 HCR      0.041200
     36 H112       -0.1070   -1.3910    3.2070 hc        1 HCR      0.041200
     37 H9         -1.0080   -2.7250    1.3910 hc        1 HCR      0.046700
     38 H191        2.7120   -3.3130    1.5900 hc        1 HCR      0.040033
     39 H192        2.2900   -2.9790    3.3240 hc        1 HCR      0.040033
     40 H193        2.5960   -4.6750    2.7800 hc        1 HCR      0.040033
     41 H11         0.1320   -3.2040    4.1570 hc        1 HCR      0.045200
     42 H12        -1.2190   -3.9720    3.2270 hc        1 HCR      0.045200
     43 H21        -0.4730   -5.4360    5.0690 hc        1 HCR      0.048200
     44 H22         1.2310   -5.4090    4.4630 hc        1 HCR      0.048200
     45 H3         -1.2500   -6.5370    2.9720 h1        1 HCR      0.036700
     46 HO1        -0.2450   -7.8090    4.6560 ho        1 HCR      0.400000
     47 H41         1.7520   -6.5720    2.1740 hc        1 HCR      0.063200
     48 H42         0.3580   -7.2360    1.2360 hc        1 HCR      0.063200
     49 H6          0.1640   -5.9250   -0.6400 ha        1 HCR      0.122000
     50 H7         -0.9910   -3.6100   -1.0620 h1        1 HCR      0.038700
     51 HO2         0.6380   -4.6140   -2.4530 ho        1 HCR      0.397000
     52 H8          1.7190   -2.5040   -0.0710 hc        1 HCR      0.076700
     53 H14        -1.0870   -1.2880   -0.5000 hc        1 HCR      0.040700
     54 H151       -0.3870   -1.5180   -2.7530 hc        1 HCR      0.051200
     55 H152        1.3490   -1.2390   -2.3690 hc        1 HCR      0.051200
     56 H161       -0.8130    0.7870   -2.8260 hc        1 HCR      0.040200
     57 H162        0.9740    1.0360   -2.7320 hc        1 HCR      0.040200
     58 H17        -1.1600    1.2210   -0.5610 hc        1 HCR      0.044700
     59 H20         1.6380    2.4710   -0.9230 hc        1 HCR      0.050700
     60 H211        0.5980    4.1710    0.7660 hc        1 HCR      0.033367
     61 H212        1.1430    2.5830    1.4320 hc        1 HCR      0.033367
     62 H213       -0.6210    2.8850    1.1430 hc        1 HCR      0.033367
     63 H221       -1.1010    3.8460   -1.2020 hc        1 HCR      0.041700
     64 H222       -0.3770    2.9620   -2.5970 hc        1 HCR      0.041700
     65 H231        1.7080    4.3280   -2.4240 hc        1 HCR      0.039700
     66 H232        1.0190    5.2270   -1.0190 hc        1 HCR      0.039700
     67 H241       -0.2280    5.0740   -3.8480 hc        1 HCR      0.039700
     68 H242       -0.9050    5.9960   -2.4500 hc        1 HCR      0.039700
     69 H25         1.9590    6.4510   -3.5090 hc        1 HCR      0.046700
     70 H271       -0.6700    7.8420   -4.3680 hc        1 HCR      0.032700
     71 H272        1.0060    8.3770   -4.8040 hc        1 HCR      0.032700
     72 H273        0.3810    6.7810   -5.3940 hc        1 HCR      0.032700
     73 H261        1.4330    7.3490   -1.2400 hc        1 HCR      0.032700
     74 H262       -0.0130    8.2180   -1.9020 hc        1 HCR      0.032700
     75 H263        1.6510    8.6850   -2.4450 hc        1 HCR      0.032700
@<TRIPOS>BOND
     1    1    2 1   
     2    1   30 1   
     3    1   31 1   
     4    1   32 1   
     5    2    3 1   
     6    2   18 1   
     7    2   21 1   
     8    3    4 1   
     9    3   33 1   
    10    3   34 1   
    11    4    5 1   
    12    4   35 1   
    13    4   36 1   
    14    5    6 1   
    15    5   17 1   
    16    5   37 1   
    17    6    7 1   
    18    6    8 1   
    19    6   13 1   
    20    7   38 1   
    21    7   39 1   
    22    7   40 1   
    23    8    9 1   
    24    8   41 1   
    25    8   42 1   
    26    9   10 1   
    27    9   43 1   
    28    9   44 1   
    29   10   11 1   
    30   10   12 1   
    31   10   45 1   
    32   11   46 1   
    33   12   13 1   
    34   12   47 1   
    35   12   48 1   
    36   13   14 2   
    37   14   15 1   
    38   14   49 1   
    39   15   16 1   
    40   15   17 1   
    41   15   50 1   
    42   16   51 1   
    43   17   18 1   
    44   17   52 1   
    45   18   19 1   
    46   18   53 1   
    47   19   20 1   
    48   19   54 1   
    49   19   55 1   
    50   20   21 1   
    51   20   56 1   
    52   20   57 1   
    53   21   22 1   
    54   21   58 1   
    55   22   23 1   
    56   22   24 1   
    57   22   59 1   
    58   23   60 1   
    59   23   61 1   
    60   23   62 1   
    61   24   25 1   
    62   24   63 1   
    63   24   64 1   
    64   25   26 1   
    65   25   65 1   
    66   25   66 1   
    67   26   27 1   
    68   26   67 1   
    69   26   68 1   
    70   27   28 1   
    71   27   29 1   
    72   27   69 1   
    73   28   70 1   
    74   28   71 1   
    75   28   72 1   
    76   29   73 1   
    77   29   74 1   
    78   29   75 1   
@<TRIPOS>SUBSTRUCTURE
     1 HCR         1 TEMP              0 ****  ****    0 ROOT
