@<TRIPOS>MOLECULE
HCR
   75    77     1     0     0
SMALL
bcc


@<TRIPOS>ATOM
      1 C18         1.6300    0.5700    0.7600 c3        1 HCR     -0.201000
      2 C13         0.1290    0.5700    0.7600 c3        1 HCR     -0.045000
      3 C12        -0.4030    0.5700    2.1780 c3        1 HCR     -0.149000
      4 C11        -0.2530   -0.5670    2.7500 c3        1 HCR     -0.153000
      5 C9         -0.8110   -1.7100    1.8960 c3        1 HCR     -0.087000
      6 C10        -0.6030   -3.0970    2.6690 c3        1 HCR     -0.011000
      7 C19         0.8740   -3.2500    2.9050 c3        1 HCR     -0.204000
      8 C1         -1.2610   -2.9740    4.0300 c3        1 HCR     -0.145000
      9 C2         -1.1370   -4.2100    4.8540 c3        1 HCR     -0.193000
     10 C3         -1.5980   -5.4610    4.1180 c3        1 HCR      0.035000
     11 O1         -1.3130   -6.5740    4.9070 oh        1 HCR     -0.329000
     12 C4         -0.9090   -5.6440    2.7180 c3        1 HCR     -0.130000
     13 C5         -1.0610   -4.3400    1.9200 c2        1 HCR     -0.058000
     14 C6         -0.8340   -4.3090    0.1140 c1        1 HCR     -0.224000
     15 C7         -0.9080   -2.8970   -0.5360 c2        1 HCR      0.069000
     16 O2         -2.1730   -2.6140   -0.9210 oh        1 HCR     -0.323000
     17 C8         -0.2670   -1.6910    0.4910 c3        1 HCR     -0.080000
     18 C14        -0.4040   -0.5960   -0.0540 c3        1 HCR     -0.084000
     19 C15        -1.2000   -0.4280   -0.2680 c3        1 HCR     -0.146000
     20 C16        -1.3010    1.2240   -0.3340 c3        1 HCR     -0.162000
     21 C17        -0.3120    1.6030    0.1920 c3        1 HCR     -0.089000
     22 C20         0.8500    2.1830   -1.0250 c3        1 HCR     -0.094000
     23 C21         1.8160    2.9980   -0.4040 c3        1 HCR     -0.212000
     24 C22         0.1520    2.9470   -2.0400 c3        1 HCR     -0.154000
     25 C23         1.1650    3.4360   -3.1070 c3        1 HCR     -0.158000
     26 C24         0.4980    4.5020   -4.0010 c3        1 HCR     -0.155000
     27 C25         1.4340    4.8500   -5.1720 c3        1 HCR     -0.107000
     28 C27         1.8960    6.2870   -5.0410 c3        1 HCR     -0.207500
     29 C26         0.6910    4.6760   -6.4820 c3        1 HCR     -0.207500
     30 H181        1.9560    1.3820    1.1930 hc        1 HCR      0.074333
     31 H182        1.9560   -0.2110    1.2460 hc        1 HCR      0.074333
     32 H183        1.9560    0.5400   -0.1600 hc        1 HCR      0.074333
     33 H121        0.0720    1.2500    2.6940 hc        1 HCR      0.081500
     34 H122       -1.3530    0.7930    2.1600 hc        1 HCR      0.081500
     35 H111       -0.7170   -0.5550    3.6090 hc        1 HCR      0.079500
     36 H112        0.6990   -0.7220    2.9060 hc        1 HCR      0.079500
     37 H9         -1.7750   -1.5680    1.8260 hc        1 HCR      0.105000
     38 H191        1.0560   -4.1400    3.2610 hc        1 HCR      0.078000
     39 H192        1.1730   -2.5760    3.5440 hc        1 HCR      0.078000
     40 H193        1.3520   -3.1340    2.0610 hc        1 HCR      0.078000
     41 H11        -0.8460   -2.2340    4.5120 hc        1 HCR      0.086500
     42 H12        -2.2080   -2.7750    3.9030 hc        1 HCR      0.086500
     43 H21        -0.2030   -4.3240    5.1120 hc        1 HCR      0.087500
     44 H22        -1.6760   -4.1040    5.6610 hc        1 HCR      0.087500
     45 H3         -2.5640   -5.4080    3.9870 h1        1 HCR      0.076000
     46 HO1        -2.0610   -7.0270    5.0620 ho        1 HCR      0.199000
     47 H41         0.0060   -5.9840    2.7150 hc        1 HCR      0.102500
     48 H42        -1.3700   -6.3720    2.2580 hc        1 HCR      0.102500
     49 H6         -0.3380   -5.0240   -0.3280 ha        1 HCR      0.123000
     50 H7         -0.4470   -2.8850   -1.3960 h4        1 HCR      0.076000
     51 HO2        -2.4770   -3.2670   -1.4400 ho        1 HCR      0.196000
     52 H8          0.6930   -1.8570    0.5590 hc        1 HCR      0.089000
     53 H14         0.1130   -0.6260   -0.8810 hc        1 HCR      0.083000
     54 H151       -1.8130   -0.7760    0.4080 hc        1 HCR      0.093000
     55 H152       -1.4040   -0.8140   -1.1410 hc        1 HCR      0.093000
     56 H161       -2.0880    1.5370    0.1520 hc        1 HCR      0.079000
     57 H162       -1.3310    1.5260   -1.2620 hc        1 HCR      0.079000
     58 H17        -0.5120    2.3010    0.8450 hc        1 HCR      0.085000
     59 H20         1.2910    1.4180   -1.4410 hc        1 HCR      0.087000
     60 H211        1.7390    3.9100   -0.7410 hc        1 HCR      0.072667
     61 H212        1.6730    2.9950    0.5620 hc        1 HCR      0.072667
     62 H213        2.7080    2.6530   -0.6010 hc        1 HCR      0.072667
     63 H221       -0.5210    2.3830   -2.4650 hc        1 HCR      0.080500
     64 H222       -0.2820    3.7170   -1.6260 hc        1 HCR      0.080500
     65 H231        1.4470    2.6810   -3.6580 hc        1 HCR      0.079500
     66 H232        1.9430    3.8240   -2.6640 hc        1 HCR      0.079500
     67 H241       -0.3450    4.1540   -4.3500 hc        1 HCR      0.079000
     68 H242        0.3240    5.3060   -3.4740 hc        1 HCR      0.079000
     69 H25         2.2090    4.2560   -5.1560 hc        1 HCR      0.085000
     70 H271        2.4570    6.5200   -5.8050 hc        1 HCR      0.072167
     71 H272        2.4090    6.3900   -4.2170 hc        1 HCR      0.072167
     72 H273        1.1190    6.8780   -5.0160 hc        1 HCR      0.072167
     73 H261        1.2680    4.9450   -7.2220 hc        1 HCR      0.072167
     74 H262        0.4380    3.7390   -6.5910 hc        1 HCR      0.072167
     75 H263       -0.1120    5.2310   -6.4770 hc        1 HCR      0.072167
@<TRIPOS>BOND
     1    1    2 1   
     2    1   30 1   
     3    1   31 1   
     4    1   32 1   
     5    2    3 1   
     6    2   18 1   
     7    2   21 1   
     8    3    4 1   
     9    3   33 1   
    10    3   34 1   
    11    4    5 1   
    12    4   35 1   
    13    4   36 1   
    14    5    6 1   
    15    5   17 1   
    16    5   37 1   
    17    6    7 1   
    18    6    8 1   
    19    6   13 1   
    20    7   38 1   
    21    7   39 1   
    22    7   40 1   
    23    8    9 1   
    24    8   41 1   
    25    8   42 1   
    26    9   10 1   
    27    9   43 1   
    28    9   44 1   
    29   10   11 1   
    30   10   12 1   
    31   10   45 1   
    32   11   46 1   
    33   12   13 1   
    34   12   47 1   
    35   12   48 1   
    36   13   14 1   
    37   14   49 1   
    38   15   16 1   
    39   15   17 1   
    40   15   50 1   
    41   16   51 1   
    42   17   18 1   
    43   17   52 1   
    44   18   19 1   
    45   18   53 1   
    46   19   20 1   
    47   19   54 1   
    48   19   55 1   
    49   20   21 1   
    50   20   56 1   
    51   20   57 1   
    52   21   22 1   
    53   21   58 1   
    54   22   23 1   
    55   22   24 1   
    56   22   59 1   
    57   23   60 1   
    58   23   61 1   
    59   23   62 1   
    60   24   25 1   
    61   24   63 1   
    62   24   64 1   
    63   25   26 1   
    64   25   65 1   
    65   25   66 1   
    66   26   27 1   
    67   26   67 1   
    68   26   68 1   
    69   27   28 1   
    70   27   29 1   
    71   27   69 1   
    72   28   70 1   
    73   28   71 1   
    74   28   72 1   
    75   29   73 1   
    76   29   74 1   
    77   29   75 1   
@<TRIPOS>SUBSTRUCTURE
     1 HCR         1 TEMP              0 ****  ****    0 ROOT
