@<TRIPOS>MOLECULE
HCR
   75    78     1     0     0
SMALL
bcc


@<TRIPOS>ATOM
      1 C18         2.1000    0.0720    0.1130 c3        1 HCR     -0.082100
      2 C13         0.5840   -0.0020    0.0550 c3        1 HCR     -0.045000
      3 C12        -0.0090   -0.0470    1.4540 c3        1 HCR     -0.066400
      4 C11         0.4070   -1.3200    2.1740 c3        1 HCR     -0.074400
      5 C9          0.0970   -2.6040    1.4120 c3        1 HCR     -0.048700
      6 C10         0.6150   -3.8520    2.1630 c3        1 HCR     -0.004800
      7 C19         2.0950   -3.7150    2.5090 c3        1 HCR     -0.085100
      8 C1         -0.2020   -3.9950    3.4570 c3        1 HCR     -0.067400
      9 C2          0.0390   -5.3020    4.1750 c3        1 HCR     -0.114400
     10 C3         -0.2790   -6.4780    3.2610 c3        1 HCR      0.145100
     11 O1          0.0460   -7.7170    3.8810 oh        1 HCR     -0.601800
     12 C4          0.5590   -6.4070    1.9880 c3        1 HCR     -0.044200
     13 C5          0.4310   -5.0830    1.3110 c2        1 HCR     -0.080400
     14 C6          0.2140   -5.0320   -0.0100 c2        1 HCR     -0.213200
     15 C7          0.0950   -3.7760   -0.8030 c3        1 HCR      0.181300
     16 O2          0.8560   -3.8520   -2.0070 oh        1 HCR     -0.595800
     17 C8          0.6040   -2.5480   -0.0370 c3        1 HCR     -0.041700
     18 C14         0.0780   -1.2750   -0.6700 c3        1 HCR     -0.058700
     19 C15         0.3780   -1.0090   -2.1370 c3        1 HCR     -0.069400
     20 C16         0.2050    0.5020   -2.2940 c3        1 HCR     -0.079400
     21 C17         0.0340    1.1030   -0.8820 c3        1 HCR     -0.053700
     22 C20         0.6680    2.4850   -0.7670 c3        1 HCR     -0.055700
     23 C21         0.5220    3.0530    0.6320 c3        1 HCR     -0.091100
     24 C22         0.0290    3.4430   -1.7720 c3        1 HCR     -0.080400
     25 C23         0.9360    4.6120   -2.0990 c3        1 HCR     -0.079400
     26 C24         0.2740    5.5520   -3.0840 c3        1 HCR     -0.076400
     27 C25         1.1490    6.7530   -3.4160 c3        1 HCR     -0.067700
     28 C27         2.2820    6.3720   -4.3450 c3        1 HCR     -0.089600
     29 C26         0.3110    7.8510   -4.0390 c3        1 HCR     -0.089600
     30 H181        2.5340   -0.8210    0.6220 hc        1 HCR      0.036033
     31 H182        2.5220    0.1240   -0.9200 hc        1 HCR      0.036033
     32 H183        2.4220    0.9800    0.6770 hc        1 HCR      0.036033
     33 H121        0.3340    0.8350    2.0550 hc        1 HCR      0.041200
     34 H122       -1.1270    0.0060    1.3890 hc        1 HCR      0.041200
     35 H111        1.5060   -1.2640    2.3890 hc        1 HCR      0.041200
     36 H112       -0.1250   -1.3510    3.1620 hc        1 HCR      0.041200
     37 H9         -1.0280   -2.6980    1.3570 hc        1 HCR      0.046700
     38 H191        2.5120   -4.6990    2.8360 hc        1 HCR      0.040033
     39 H192        2.2350   -2.9870    3.3440 hc        1 HCR      0.040033
     40 H193        2.6750   -3.3620    1.6240 hc        1 HCR      0.040033
     41 H11         0.0600   -3.1510    4.1490 hc        1 HCR      0.045200
     42 H12        -1.2930   -3.9060    3.2110 hc        1 HCR      0.045200
     43 H21        -0.6060   -5.3520    5.0900 hc        1 HCR      0.048200
     44 H22         1.1070   -5.3730    4.5100 hc        1 HCR      0.048200
     45 H3         -1.3750   -6.4740    3.0020 h1        1 HCR      0.036700
     46 HO1        -0.4230   -7.7360    4.7230 ho        1 HCR      0.400000
     47 H41         0.2430   -7.2390    1.3040 hc        1 HCR      0.063200
     48 H42         1.6360   -6.5880    2.2510 hc        1 HCR      0.063200
     49 H6          0.1060   -5.9590   -0.5990 ha        1 HCR      0.122000
     50 H7         -0.9920   -3.6280   -1.0790 h1        1 HCR      0.038700
     51 HO2         0.6350   -4.6910   -2.4270 ho        1 HCR      0.397000
     52 H8          1.7260   -2.5620   -0.0670 hc        1 HCR      0.076700
     53 H14        -1.0470   -1.2940   -0.5610 hc        1 HCR      0.040700
     54 H151        1.4170   -1.3320   -2.3930 hc        1 HCR      0.051200
     55 H152       -0.3180   -1.5800   -2.7990 hc        1 HCR      0.051200
     56 H161        1.0980    0.9430   -2.8020 hc        1 HCR      0.040200
     57 H162       -0.6930    0.7310   -2.9190 hc        1 HCR      0.040200
     58 H17        -1.0650    1.2140   -0.6680 hc        1 HCR      0.044700
     59 H20         1.7640    2.3970   -1.0090 hc        1 HCR      0.050700
     60 H211       -0.5160    2.8980    1.0130 hc        1 HCR      0.033367
     61 H212        0.7370    4.1490    0.6330 hc        1 HCR      0.033367
     62 H213        1.2360    2.5630    1.3360 hc        1 HCR      0.033367
     63 H221       -0.2100    2.9010   -2.7250 hc        1 HCR      0.041700
     64 H222       -0.9420    3.8210   -1.3570 hc        1 HCR      0.041700
     65 H231        1.1940    5.1720   -1.1610 hc        1 HCR      0.040200
     66 H232        1.8990    4.2290   -2.5290 hc        1 HCR      0.040200
     67 H241        0.0270    4.9980   -4.0270 hc        1 HCR      0.039700
     68 H242       -0.6960    5.9140   -2.6480 hc        1 HCR      0.039700
     69 H25         1.5930    7.1460   -2.4570 hc        1 HCR      0.045700
     70 H271        2.9260    5.5880   -3.8800 hc        1 HCR      0.033033
     71 H272        2.9160    7.2640   -4.5670 hc        1 HCR      0.033033
     72 H273        1.8820    5.9740   -5.3090 hc        1 HCR      0.033033
     73 H261       -0.1800    7.4870   -4.9730 hc        1 HCR      0.033033
     74 H262       -0.4830    8.1870   -3.3290 hc        1 HCR      0.033033
     75 H263        0.9520    8.7290   -4.2950 hc        1 HCR      0.033033
@<TRIPOS>BOND
     1    1    2 1   
     2    1   30 1   
     3    1   31 1   
     4    1   32 1   
     5    2    3 1   
     6    2   18 1   
     7    2   21 1   
     8    3    4 1   
     9    3   33 1   
    10    3   34 1   
    11    4    5 1   
    12    4   35 1   
    13    4   36 1   
    14    5    6 1   
    15    5   17 1   
    16    5   37 1   
    17    6    7 1   
    18    6    8 1   
    19    6   13 1   
    20    7   38 1   
    21    7   39 1   
    22    7   40 1   
    23    8    9 1   
    24    8   41 1   
    25    8   42 1   
    26    9   10 1   
    27    9   43 1   
    28    9   44 1   
    29   10   11 1   
    30   10   12 1   
    31   10   45 1   
    32   11   46 1   
    33   12   13 1   
    34   12   47 1   
    35   12   48 1   
    36   13   14 2   
    37   14   15 1   
    38   14   49 1   
    39   15   16 1   
    40   15   17 1   
    41   15   50 1   
    42   16   51 1   
    43   17   18 1   
    44   17   52 1   
    45   18   19 1   
    46   18   53 1   
    47   19   20 1   
    48   19   54 1   
    49   19   55 1   
    50   20   21 1   
    51   20   56 1   
    52   20   57 1   
    53   21   22 1   
    54   21   58 1   
    55   22   23 1   
    56   22   24 1   
    57   22   59 1   
    58   23   60 1   
    59   23   61 1   
    60   23   62 1   
    61   24   25 1   
    62   24   63 1   
    63   24   64 1   
    64   25   26 1   
    65   25   65 1   
    66   25   66 1   
    67   26   27 1   
    68   26   67 1   
    69   26   68 1   
    70   27   28 1   
    71   27   29 1   
    72   27   69 1   
    73   28   70 1   
    74   28   71 1   
    75   28   72 1   
    76   29   73 1   
    77   29   74 1   
    78   29   75 1   
@<TRIPOS>SUBSTRUCTURE
     1 HCR         1 TEMP              0 ****  ****    0 ROOT
