@<TRIPOS>MOLECULE
HCR
   75    78     1     0     0
SMALL
bcc


@<TRIPOS>ATOM
      1 C18         0.7200    0.6520    1.4910 c3        1 HCR     -0.082100
      2 C13         0.6330    0.3220    0.0110 c3        1 HCR     -0.045000
      3 C12        -0.0190    1.4590   -0.7580 c3        1 HCR     -0.066400
      4 C11        -1.4650    1.6430   -0.3250 c3        1 HCR     -0.074400
      5 C9         -2.3120    0.3760   -0.4040 c3        1 HCR     -0.048700
      6 C10        -3.7450    0.6150    0.1240 c3        1 HCR     -0.004800
      7 C19        -3.7250    1.2240    1.5240 c3        1 HCR     -0.085100
      8 C1         -4.4480    1.5810   -0.8430 c3        1 HCR     -0.067400
      9 C2         -5.9290    1.7190   -0.5780 c3        1 HCR     -0.114400
     10 C3         -6.6140    0.3610   -0.6550 c3        1 HCR      0.145100
     11 O1         -7.9890    0.4550   -0.3000 oh        1 HCR     -0.601800
     12 C4         -5.9840   -0.6110    0.3370 c3        1 HCR     -0.044200
     13 C5         -4.5020   -0.6880    0.1760 c2        1 HCR     -0.080400
     14 C6         -3.9010   -1.8850    0.1370 c2        1 HCR     -0.213200
     15 C7         -2.4300   -2.0920    0.0070 c3        1 HCR      0.181300
     16 O2         -1.9650   -3.0770    0.9280 oh        1 HCR     -0.595800
     17 C8         -1.6310   -0.8140    0.2870 c3        1 HCR     -0.041700
     18 C14        -0.2260   -0.9380   -0.2670 c3        1 HCR     -0.058700
     19 C15         0.6480   -2.0920    0.2020 c3        1 HCR     -0.069400
     20 C16         2.0770   -1.6330   -0.0920 c3        1 HCR     -0.079400
     21 C17         2.0150   -0.1480   -0.5090 c3        1 HCR     -0.053700
     22 C20         3.2350    0.6320   -0.0330 c3        1 HCR     -0.055700
     23 C21         3.1500    2.0960   -0.4200 c3        1 HCR     -0.091100
     24 C22         4.5100    0.0260   -0.6170 c3        1 HCR     -0.080400
     25 C23         5.7320    0.3640    0.2130 c3        1 HCR     -0.079400
     26 C24         6.9840   -0.2290   -0.4000 c3        1 HCR     -0.076400
     27 C25         8.2270    0.0630    0.4270 c3        1 HCR     -0.067700
     28 C27         9.3460   -0.8820    0.0370 c3        1 HCR     -0.089600
     29 C26         8.6780    1.4990    0.2630 c3        1 HCR     -0.089600
     30 H181       -0.2920    0.8080    1.9350 hc        1 HCR      0.036033
     31 H182        1.2190   -0.1820    2.0430 hc        1 HCR      0.036033
     32 H183        1.3110    1.5870    1.6450 hc        1 HCR      0.036033
     33 H121        0.0230    1.2400   -1.8580 hc        1 HCR      0.041200
     34 H122        0.5330    2.4190   -0.5860 hc        1 HCR      0.041200
     35 H111       -1.9280    2.4270   -0.9800 hc        1 HCR      0.041200
     36 H112       -1.4740    2.0380    0.7250 hc        1 HCR      0.041200
     37 H9         -2.4060    0.1040   -1.4960 hc        1 HCR      0.046700
     38 H191       -4.7410    1.1770    1.9850 hc        1 HCR      0.040033
     39 H192       -3.0120    0.6730    2.1820 hc        1 HCR      0.040033
     40 H193       -3.4170    2.2970    1.4790 hc        1 HCR      0.040033
     41 H11        -4.2950    1.2190   -1.8940 hc        1 HCR      0.045200
     42 H12        -3.9710    2.5920   -0.7600 hc        1 HCR      0.045200
     43 H21        -6.3820    2.4130   -1.3340 hc        1 HCR      0.048200
     44 H22        -6.1040    2.1650    0.4360 hc        1 HCR      0.048200
     45 H3         -6.5320   -0.0480   -1.7010 h1        1 HCR      0.036700
     46 HO1        -8.3780    1.1240   -0.8750 ho        1 HCR      0.400000
     47 H41        -6.4550   -1.6200    0.1990 hc        1 HCR      0.063200
     48 H42        -6.2280   -0.2750    1.3810 hc        1 HCR      0.063200
     49 H6         -4.4920   -2.8140    0.1990 ha        1 HCR      0.122000
     50 H7         -2.2110   -2.4560   -1.0420 h1        1 HCR      0.038700
     51 HO2        -2.5530   -3.8380    0.8480 ho        1 HCR      0.397000
     52 H8         -1.5980   -0.6630    1.3990 hc        1 HCR      0.076700
     53 H14        -0.3220   -1.0320   -1.3900 hc        1 HCR      0.040700
     54 H151        0.3920   -3.0340   -0.3400 hc        1 HCR      0.051200
     55 H152        0.4950   -2.2840    1.2930 hc        1 HCR      0.051200
     56 H161        2.5230   -2.2440   -0.9150 hc        1 HCR      0.040200
     57 H162        2.7180   -1.7580    0.8150 hc        1 HCR      0.040200
     58 H17         1.9920   -0.0890   -1.6330 hc        1 HCR      0.044700
     59 H20         3.2910    0.5590    1.0910 hc        1 HCR      0.050700
     60 H211        2.8160    2.2040   -1.4810 hc        1 HCR      0.033367
     61 H212        2.4290    2.6400    0.2350 hc        1 HCR      0.033367
     62 H213        4.1480    2.5880   -0.3140 hc        1 HCR      0.033367
     63 H221        4.6500    0.3990   -1.6660 hc        1 HCR      0.041700
     64 H222        4.4160   -1.0900   -0.6750 hc        1 HCR      0.041700
     65 H231        5.5990   -0.0320    1.2540 hc        1 HCR      0.039700
     66 H232        5.8430    1.4770    0.2950 hc        1 HCR      0.039700
     67 H241        7.1230    0.1740   -1.4380 hc        1 HCR      0.039700
     68 H242        6.8550   -1.3400   -0.4900 hc        1 HCR      0.039700
     69 H25         7.9810   -0.1100    1.5140 hc        1 HCR      0.046700
     70 H271       10.2640   -0.6620    0.6330 hc        1 HCR      0.032700
     71 H272        9.0470   -1.9410    0.2230 hc        1 HCR      0.032700
     72 H273        9.5920   -0.7690   -1.0470 hc        1 HCR      0.032700
     73 H261        7.8720    2.2030    0.5820 hc        1 HCR      0.032700
     74 H262        9.5840    1.6930    0.8860 hc        1 HCR      0.032700
     75 H263        8.9310    1.7120   -0.8040 hc        1 HCR      0.032700
@<TRIPOS>BOND
     1    1    2 1   
     2    1   30 1   
     3    1   31 1   
     4    1   32 1   
     5    2    3 1   
     6    2   18 1   
     7    2   21 1   
     8    3    4 1   
     9    3   33 1   
    10    3   34 1   
    11    4    5 1   
    12    4   35 1   
    13    4   36 1   
    14    5    6 1   
    15    5   17 1   
    16    5   37 1   
    17    6    7 1   
    18    6    8 1   
    19    6   13 1   
    20    7   38 1   
    21    7   39 1   
    22    7   40 1   
    23    8    9 1   
    24    8   41 1   
    25    8   42 1   
    26    9   10 1   
    27    9   43 1   
    28    9   44 1   
    29   10   11 1   
    30   10   12 1   
    31   10   45 1   
    32   11   46 1   
    33   12   13 1   
    34   12   47 1   
    35   12   48 1   
    36   13   14 2   
    37   14   15 1   
    38   14   49 1   
    39   15   16 1   
    40   15   17 1   
    41   15   50 1   
    42   16   51 1   
    43   17   18 1   
    44   17   52 1   
    45   18   19 1   
    46   18   53 1   
    47   19   20 1   
    48   19   54 1   
    49   19   55 1   
    50   20   21 1   
    51   20   56 1   
    52   20   57 1   
    53   21   22 1   
    54   21   58 1   
    55   22   23 1   
    56   22   24 1   
    57   22   59 1   
    58   23   60 1   
    59   23   61 1   
    60   23   62 1   
    61   24   25 1   
    62   24   63 1   
    63   24   64 1   
    64   25   26 1   
    65   25   65 1   
    66   25   66 1   
    67   26   27 1   
    68   26   67 1   
    69   26   68 1   
    70   27   28 1   
    71   27   29 1   
    72   27   69 1   
    73   28   70 1   
    74   28   71 1   
    75   28   72 1   
    76   29   73 1   
    77   29   74 1   
    78   29   75 1   
@<TRIPOS>SUBSTRUCTURE
     1 HCR         1 TEMP              0 ****  ****    0 ROOT
