@<TRIPOS>MOLECULE
HCS
   16    15     1     0     0
SMALL
bcc


@<TRIPOS>ATOM
      1 N           1.9350    0.0970    0.7070 n3        1 HCS     -0.895800
      2 CA          0.5070    0.3950    0.7150 c3        1 HCS      0.017500
      3 CB         -0.2190   -0.0950   -0.5420 c3        1 HCS     -0.060400
      4 CG          0.2660    0.6260   -1.7720 c3        1 HCS      0.041700
      5 SD         -0.6590    0.0250   -3.1750 sh        1 HCS     -0.432900
      6 C          -0.2610   -0.1520    1.9660 c         1 HCS      0.889600
      7 OXT        -1.4980    0.0840    2.0370 o         1 HCS     -0.840300
      8 O           0.4040   -0.7750    2.8430 o         1 HCS     -0.840300
      9 H           2.2750    0.2540    1.6420 hn        1 HCS      0.332300
     10 H2          2.0530   -0.8850    0.5290 hn        1 HCS      0.332300
     11 HCA         0.4160    1.5200    0.7570 h1        1 HCS      0.040700
     12 HB2        -0.0760   -1.2000   -0.6630 hc        1 HCS      0.064200
     13 HB3        -1.3160    0.0920   -0.3820 hc        1 HCS      0.064200
     14 HG2         0.1080    1.7260   -1.6660 h1        1 HCS      0.055200
     15 HG3         1.3530    0.4420   -1.9380 h1        1 HCS      0.055200
     16 HD         -0.0580    0.7160   -4.1230 hs        1 HCS      0.176800
@<TRIPOS>BOND
     1    1    2 1   
     2    1    9 1   
     3    1   10 1   
     4    2    3 1   
     5    2    6 1   
     6    2   11 1   
     7    3    4 1   
     8    3   12 1   
     9    3   13 1   
    10    4    5 1   
    11    4   14 1   
    12    4   15 1   
    13    5   16 1   
    14    6    7 1   
    15    6    8 1   
@<TRIPOS>SUBSTRUCTURE
     1 HCS         1 TEMP              0 ****  ****    0 ROOT
