@<TRIPOS>MOLECULE
HCT
   20    19     1     0     0
SMALL
bcc


@<TRIPOS>ATOM
      1 C1          0.3420   -0.9390    0.0520 c         1 HCT      0.898600
      2 C2          1.1830    0.3170    0.2720 c3        1 HCT     -0.144400
      3 C3          1.9340    0.4520    1.5910 c3        1 HCT     -0.152700
      4 C4          3.3830   -0.0100    1.4460 c3        1 HCT     -0.035400
      5 C5          4.0640   -0.2830    2.7700 c3        1 HCT     -0.166400
      6 C6          5.5080   -0.7700    2.6780 c         1 HCT      0.899600
      7 C7          1.8710    1.9130    2.0840 c         1 HCT      0.911600
      8 O1         -0.2690   -1.5200    1.0010 o         1 HCT     -0.902800
      9 O2          0.2020   -1.3570   -1.1490 o         1 HCT     -0.902800
     10 O3          6.2800   -0.4080    1.7360 o         1 HCT     -0.902800
     11 O4          5.9450   -1.5340    3.6040 o         1 HCT     -0.902800
     12 O5          1.5810    2.1440    3.3020 o         1 HCT     -0.899800
     13 O6          2.0780    2.8780    1.2800 o         1 HCT     -0.899800
     14 H2          1.9070    0.4040   -0.5800 hc        1 HCT      0.019200
     15 H2A         0.4710    1.1810    0.1780 hc        1 HCT      0.019200
     16 H3          1.4200   -0.1900    2.3580 hc        1 HCT      0.055700
     17 H4          3.4060   -0.9470    0.8280 hc        1 HCT      0.023700
     18 H4A         3.9660    0.7690    0.8880 hc        1 HCT      0.023700
     19 H5          4.0600    0.6600    3.3780 hc        1 HCT      0.029200
     20 H5A         3.4750   -1.0460    3.3410 hc        1 HCT      0.029200
@<TRIPOS>BOND
     1    1    2 1   
     2    1    8 1   
     3    1    9 1   
     4    2    3 1   
     5    2   14 1   
     6    2   15 1   
     7    3    4 1   
     8    3    7 1   
     9    3   16 1   
    10    4    5 1   
    11    4   17 1   
    12    4   18 1   
    13    5    6 1   
    14    5   19 1   
    15    5   20 1   
    16    6   10 1   
    17    6   11 1   
    18    7   12 1   
    19    7   13 1   
@<TRIPOS>SUBSTRUCTURE
     1 HCT         1 TEMP              0 ****  ****    0 ROOT
