@<TRIPOS>MOLECULE
HCT
   20    19     1     0     0
SMALL
bcc


@<TRIPOS>ATOM
      1 C1          2.5170   -1.2780   -0.8170 c         1 HCT      0.898600
      2 C2          1.7700   -0.6190    0.3420 c3        1 HCT     -0.144400
      3 C3          0.5400    0.2190    0.0140 c3        1 HCT     -0.152700
      4 C4         -0.7400   -0.6000    0.1770 c3        1 HCT     -0.035400
      5 C5         -1.9420    0.0200   -0.5020 c3        1 HCT     -0.166400
      6 C6         -3.2420   -0.7720   -0.3870 c         1 HCT      0.899600
      7 C7          0.5060    1.4740    0.9100 c         1 HCT      0.911600
      8 O1          2.6130   -0.7320   -1.9590 o         1 HCT     -0.902800
      9 O2          3.1220   -2.3810   -0.5830 o         1 HCT     -0.902800
     10 O3         -3.5040   -1.4890    0.6280 o         1 HCT     -0.902800
     11 O4         -4.0950   -0.6690   -1.3340 o         1 HCT     -0.902800
     12 O5          0.2640    2.6070    0.3820 o         1 HCT     -0.899800
     13 O6          0.7440    1.3870    2.1580 o         1 HCT     -0.899800
     14 H2          1.4900   -1.4200    1.0750 hc        1 HCT      0.019200
     15 H2A         2.5220    0.0390    0.8550 hc        1 HCT      0.019200
     16 H3          0.6210    0.5630   -1.0530 hc        1 HCT      0.055700
     17 H4         -0.5730   -1.6240   -0.2500 hc        1 HCT      0.023700
     18 H4A        -0.9620   -0.7280    1.2690 hc        1 HCT      0.023700
     19 H5         -2.1220    1.0360   -0.0590 hc        1 HCT      0.029200
     20 H5A        -1.7200    0.1700   -1.5910 hc        1 HCT      0.029200
@<TRIPOS>BOND
     1    1    2 1   
     2    1    8 1   
     3    1    9 1   
     4    2    3 1   
     5    2   14 1   
     6    2   15 1   
     7    3    4 1   
     8    3    7 1   
     9    3   16 1   
    10    4    5 1   
    11    4   17 1   
    12    4   18 1   
    13    5    6 1   
    14    5   19 1   
    15    5   20 1   
    16    6   10 1   
    17    6   11 1   
    18    7   12 1   
    19    7   13 1   
@<TRIPOS>SUBSTRUCTURE
     1 HCT         1 TEMP              0 ****  ****    0 ROOT
