@<TRIPOS>MOLECULE
HCT
   20    18     1     0     0
SMALL
bcc


@<TRIPOS>ATOM
      1 C1         -2.5890    0.1620   -1.4860 c1        1 HCT      0.318000
      2 C2         -1.0780    0.0990   -1.4620 c2        1 HCT     -0.173000
      3 C3         -0.5970    0.0860   -0.0280 c3        1 HCT     -0.142000
      4 C4          0.9160    0.0470   -0.0040 c3        1 HCT     -0.114000
      5 C5          1.3780   -0.9360    1.0490 c3        1 HCT     -0.195000
      6 C6          2.8810   -0.8500    1.1940 c2        1 HCT      0.319000
      7 C7         -1.0800    1.3340    0.6770 c2        1 HCT      0.331000
      8 O1         -3.1690    1.1830   -1.9410 o         1 HCT     -0.637500
      9 O2         -3.2670   -0.8060   -1.0520 o         1 HCT     -0.637500
     10 O3          3.3910   -0.0020    1.9720 o         1 HCT     -0.637500
     11 O4          3.6230   -1.6260    0.5360 o         1 HCT     -0.637500
     12 O5         -1.8120    1.2370    1.6970 o         1 HCT     -0.634500
     13 O6         -0.7510    2.4700    0.2440 o         1 HCT     -0.634500
     14 H2         -0.7110    0.8800   -1.9220 ha        1 HCT      0.058500
     15 H2A        -0.7780   -0.7160   -1.9140 ha        1 HCT      0.058500
     16 H3         -0.9500   -0.7020    0.4270 hc        1 HCT      0.095000
     17 H4          1.2610    0.9370    0.2080 hc        1 HCT      0.063000
     18 H4A         1.2490   -0.2330   -0.8800 hc        1 HCT      0.063000
     19 H5          0.9550   -0.7210    1.9040 hc        1 HCT      0.068500
     20 H5A         1.1280   -1.8430    0.7800 hc        1 HCT      0.068500
@<TRIPOS>BOND
     1    1    8 1   
     2    1    9 1   
     3    2    3 1   
     4    2   14 1   
     5    2   15 1   
     6    3    4 1   
     7    3    7 1   
     8    3   16 1   
     9    4    5 1   
    10    4   17 1   
    11    4   18 1   
    12    5    6 1   
    13    5   19 1   
    14    5   20 1   
    15    6   10 1   
    16    6   11 1   
    17    7   12 1   
    18    7   13 1   
@<TRIPOS>SUBSTRUCTURE
     1 HCT         1 TEMP              0 ****  ****    0 ROOT
