@<TRIPOS>MOLECULE
HCV
   50    49     1     0     0
SMALL
bcc


@<TRIPOS>ATOM
      1 C8         -1.2430    0.7480    1.3460 c         1 HCV      0.661100
      2 O1         -1.1000    0.5770    2.5770 o         1 HCV     -0.649100
      3 O2         -7.7000    0.2490   -2.0910 o         1 HCV     -0.848300
      4 C9         -2.5250    1.3270    0.7750 c3        1 HCV     -0.150400
      5 C13        -7.0900    0.4180   -0.9950 c         1 HCV      0.886600
      6 C12        -5.6770   -0.2340   -0.8290 c3        1 HCV      0.022500
      7 C11        -4.7080    0.8360   -0.3230 c3        1 HCV     -0.065400
      8 C10        -3.3880    0.2560    0.1390 c3        1 HCV     -0.073400
      9 N2         -5.1970   -0.9390   -2.0110 n3        1 HCV     -0.891800
     10 N1         -0.2410    0.4120    0.4630 n         1 HCV     -0.559900
     11 C5          1.0450   -0.0770    0.8910 c3        1 HCV      0.033700
     12 C6          1.1590   -1.6150    0.9010 c3        1 HCV     -0.085400
     13 C7          0.1250   -2.2300    1.8050 c3        1 HCV      0.022700
     14 S           0.6120   -3.9110    2.1260 sh        1 HCV     -0.419900
     15 C4          2.1790    0.4390   -0.0430 c         1 HCV      0.634100
     16 O           1.9340    0.6870   -1.2480 o         1 HCV     -0.659100
     17 N           3.4060    0.5970    0.5250 n         1 HCV     -0.517900
     18 C3          4.6030    0.9550   -0.2050 c3        1 HCV     -0.026300
     19 C1          5.0750   -0.1520   -1.1760 c3        1 HCV     -0.067700
     20 C           6.1500    0.4010   -2.0870 c3        1 HCV     -0.088100
     21 C2          5.5710   -1.3720   -0.4320 c3        1 HCV     -0.088100
     22 C14         5.7610    1.3390    0.7880 c         1 HCV      0.916600
     23 O5          5.7870    0.7910    1.9270 o         1 HCV     -0.834800
     24 O4          6.6010    2.1820    0.3770 o         1 HCV     -0.834800
     25 H9         -3.0810    1.8070    1.6230 hc        1 HCV      0.064200
     26 H9A        -2.2890    2.1250    0.0240 hc        1 HCV      0.064200
     27 H12        -5.7870   -1.0160   -0.0210 h1        1 HCV      0.041700
     28 H11        -4.5240    1.5980   -1.1250 hc        1 HCV      0.047200
     29 H11A       -5.2180    1.3620    0.5290 hc        1 HCV      0.047200
     30 H10        -2.8470   -0.2030   -0.7290 hc        1 HCV      0.044700
     31 H10A       -3.5790   -0.5610    0.8830 hc        1 HCV      0.044700
     32 HN2        -5.9940   -1.3870   -2.4350 hn        1 HCV      0.330300
     33 HN2A       -4.8680   -0.2620   -2.6770 hn        1 HCV      0.330300
     34 HN1        -0.3580    0.5660   -0.5130 hn        1 HCV      0.333500
     35 H5          1.2140    0.2930    1.9490 h1        1 HCV      0.087700
     36 H6          1.0480   -2.0100   -0.1420 hc        1 HCV      0.066200
     37 H6A         2.1910   -1.8790    1.2590 hc        1 HCV      0.066200
     38 H7          0.0510   -1.6600    2.7650 h1        1 HCV      0.077700
     39 H7A        -0.8830   -2.2110    1.3230 h1        1 HCV      0.077700
     40 HS         -0.4620   -4.3100    2.7810 hs        1 HCV      0.194800
     41 HN          3.5580    0.3420    1.4780 hn        1 HCV      0.333500
     42 H3          4.3670    1.8660   -0.8290 h1        1 HCV      0.058700
     43 H1          4.1950   -0.4540   -1.8150 hc        1 HCV      0.036700
     44 H           6.9710    0.8600   -1.4800 hc        1 HCV      0.030200
     45 HA          6.5730   -0.4100   -2.7270 hc        1 HCV      0.030200
     46 HB          5.7230    1.1910   -2.7510 hc        1 HCV      0.030200
     47 H2          6.3400   -1.0760    0.3250 hc        1 HCV      0.030200
     48 H2A         4.7280   -1.8710    0.1060 hc        1 HCV      0.030200
     49 H2B         6.0200   -2.1080   -1.1410 hc        1 HCV      0.030200
     50 O3         -7.5600    1.0590   -0.0150 o         1 HCV     -0.848300
@<TRIPOS>BOND
     1    1    2 2   
     2    1    4 1   
     3    1   10 1   
     4    3    5 1   
     5    4    8 1   
     6    4   25 1   
     7    4   26 1   
     8    5    6 1   
     9    5   50 1   
    10    6    7 1   
    11    6    9 1   
    12    6   27 1   
    13    7    8 1   
    14    7   28 1   
    15    7   29 1   
    16    8   30 1   
    17    8   31 1   
    18    9   32 1   
    19    9   33 1   
    20   10   11 1   
    21   10   34 1   
    22   11   12 1   
    23   11   15 1   
    24   11   35 1   
    25   12   13 1   
    26   12   36 1   
    27   12   37 1   
    28   13   14 1   
    29   13   38 1   
    30   13   39 1   
    31   14   40 1   
    32   15   16 2   
    33   15   17 1   
    34   17   18 1   
    35   17   41 1   
    36   18   19 1   
    37   18   22 1   
    38   18   42 1   
    39   19   20 1   
    40   19   21 1   
    41   19   43 1   
    42   20   44 1   
    43   20   45 1   
    44   20   46 1   
    45   21   47 1   
    46   21   48 1   
    47   21   49 1   
    48   22   23 1   
    49   22   24 1   
@<TRIPOS>SUBSTRUCTURE
     1 HCV         1 TEMP              0 ****  ****    0 ROOT
