@<TRIPOS>MOLECULE
HCV
   53    48     1     0     0
SMALL
bcc


@<TRIPOS>ATOM
      1 C8          2.9990   -2.8910    0.1280 c         1 HCV      0.577900
      2 O1          2.9300   -2.0130   -0.7350 o         1 HCV     -0.552100
      3 O2         -1.7610    1.4160   -0.2240 o         1 HCV     -0.821300
      4 C9          2.2380   -2.8750    1.4190 c3        1 HCV     -0.202400
      5 C13        -0.7050    0.7360   -0.2870 c         1 HCV      0.927600
      6 C12        -0.1160    0.1630    1.0440 c3        1 HCV     -0.013500
      7 C11         0.4220   -1.2480    0.8420 c3        1 HCV     -0.103400
      8 C10         1.5920   -1.5480    1.7530 c3        1 HCV     -0.079400
      9 N2         -1.1390    0.2500    2.1310 n4        1 HCV     -0.851600
     10 N1          1.8100   -0.8420   -3.2400 nh        1 HCV     -0.845600
     11 C5          0.9640   -1.8000   -3.8000 c2        1 HCV      0.023000
     12 C6         -0.2740   -2.0950   -3.3620 c2        1 HCV     -0.362000
     13 C7          0.1660    0.3720    6.1280 c         1 HCV      0.237000
     14 S           0.3150   -0.4330    4.8420 s         1 HCV     -0.288400
     15 C4          0.7470    1.7460   -3.7440 c         1 HCV      0.592900
     16 O           1.4250    2.0310   -4.7160 o         1 HCV     -0.457100
     17 N          -0.5970    1.1130   -3.9860 n4        1 HCV     -0.561600
     18 C3         -1.6640    1.9810   -3.5150 c2        1 HCV     -0.157000
     19 C1         -2.4770    2.6890   -4.3270 c2        1 HCV     -0.023400
     20 C          -3.5480    3.5280   -3.7380 c3        1 HCV     -0.090900
     21 C2         -2.3750    2.6810   -5.8040 c3        1 HCV     -0.090900
     22 C14         0.3930    0.6820   -8.0490 c1        1 HCV      0.906000
     23 O5          1.1070    0.5540   -8.9850 o         1 HCV     -0.452000
     24 O4         -0.3320    0.8110   -7.1070 o         1 HCV     -0.452000
     25 H9          2.9500   -3.1530    2.2440 hc        1 HCV      0.080200
     26 H9A         1.4590   -3.6830    1.3650 hc        1 HCV      0.080200
     27 H12        -0.3830   -2.0180    0.9700 hc        1 HCV      0.086200
     28 H11         0.7300    0.8540    1.3340 hx        1 HCV      0.101700
     29 H11A        0.7700   -1.3100   -0.2320 hc        1 HCV      0.086200
     30 H10         1.2520   -1.5620    2.8260 hc        1 HCV      0.051700
     31 H10A        2.3620   -0.7360    1.6520 hc        1 HCV      0.051700
     32 HN2        -0.6920    0.2420    3.0730 hn        1 HCV      0.454467
     33 HN2A       -1.7830   -0.5380    2.0550 hn        1 HCV      0.454467
     34 HN1         1.6140   -0.6420   -2.2750 hn        1 HCV      0.402800
     35 H5          2.7790   -1.0510   -3.3710 hn        1 HCV      0.402800
     36 H6          1.3590   -2.2660   -4.7260 h4        1 HCV      0.137000
     37 H6A        -0.9170   -2.7920   -3.9110 ha        1 HCV      0.127000
     38 H7         -0.6880   -1.6980   -2.4240 ha        1 HCV      0.127000
     39 H7A        -0.4460    1.2840    6.2500 h4        1 HCV      0.047700
     40 HS          0.6670    0.1160    7.0810 h4        1 HCV      0.047700
     41 HN         -0.6300    0.2420   -3.4130 hn        1 HCV      0.476300
     42 H3         -0.7180    0.8770   -4.9780 hn        1 HCV      0.476300
     43 H1         -1.7490    1.9740   -2.4010 hx        1 HCV      0.234000
     44 H          -4.5420    3.2010   -4.1360 hc        1 HCV      0.068700
     45 HA         -3.3890    4.5980   -4.0300 hc        1 HCV      0.068700
     46 HB         -3.5700    3.4610   -2.6230 hc        1 HCV      0.068700
     47 H2         -1.3530    2.9930   -6.1380 hc        1 HCV      0.068700
     48 H2A        -3.1200    3.3790   -6.2620 hc        1 HCV      0.068700
     49 H2B        -2.5680    1.6530   -6.2090 hc        1 HCV      0.068700
     50 H23        -1.6770    1.1170    1.9780 hn        1 HCV      0.454467
     51 H121        3.6480   -3.7860   -0.0120 h4        1 HCV      0.012200
     52 HN3         0.9620    1.8610   -2.6550 hx        1 HCV      0.153200
     53 O3         -0.0540    0.5100   -1.3430 o         1 HCV     -0.821300
@<TRIPOS>BOND
     1    1    2 2   
     2    1    4 1   
     3    1   51 1   
     4    3    5 1   
     5    4    8 1   
     6    4   25 1   
     7    4   26 1   
     8    5    6 1   
     9    5   53 1   
    10    6    7 1   
    11    6    9 1   
    12    6   28 1   
    13    7    8 1   
    14    7   27 1   
    15    7   29 1   
    16    8   30 1   
    17    8   31 1   
    18    9   32 1   
    19    9   33 1   
    20    9   50 1   
    21   10   11 1   
    22   10   34 1   
    23   10   35 1   
    24   11   12 2   
    25   11   36 1   
    26   12   37 1   
    27   12   38 1   
    28   13   14 2   
    29   13   39 1   
    30   13   40 1   
    31   15   16 2   
    32   15   17 1   
    33   15   52 1   
    34   17   18 1   
    35   17   41 1   
    36   17   42 1   
    37   18   19 2   
    38   18   43 1   
    39   19   20 1   
    40   19   21 1   
    41   20   44 1   
    42   20   45 1   
    43   20   46 1   
    44   21   47 1   
    45   21   48 1   
    46   21   49 1   
    47   22   23 2   
    48   22   24 2   
@<TRIPOS>SUBSTRUCTURE
     1 HCV         1 TEMP              0 ****  ****    0 ROOT
