@<TRIPOS>MOLECULE
HCW
   62    57     1     0     0
SMALL
bcc


@<TRIPOS>ATOM
      1 OBH        -0.5180    0.0350    0.0590 o         1 HCW     -0.371000
      2 CAV         0.6880   -0.1010    0.0430 c1        1 HCW      0.419000
      3 NAF         1.4120   -0.2550    1.2800 n2        1 HCW     -0.334000
      4 CAW         0.7040   -0.2470    2.5330 c2        1 HCW      0.099000
      5 CBB         0.3110    0.9560    3.0980 c2        1 HCW     -0.151000
      6 CBA        -0.4310    0.9620    4.2750 c1        1 HCW     -0.079000
      7 CAX         0.3580   -1.4470    3.1420 c1        1 HCW     -0.186000
      8 CAY        -0.3830   -1.4420    4.3170 c1        1 HCW     -0.085000
      9 CAZ        -0.7790   -0.2370    4.8850 c1        1 HCW     -0.120500
     10 CBC        -1.7960   -0.2370    6.0270 c2        1 HCW     -0.052000
     11 CBD        -3.2690   -0.1290    5.7230 c3        1 HCW     -0.163500
     12 NAG        -1.3840   -0.3310    7.2810 n1        1 HCW     -0.054500
     13 NAH        -0.0340   -0.4290    7.5610 n2        1 HCW     -0.194000
     14 CBE         0.4160   -0.4520    8.9230 c2        1 HCW      0.137000
     15 NAI         0.8020   -1.6110    9.4850 n3        1 HCW     -0.278000
     16 CBF         1.7200   -1.2250   10.6040 c3        1 HCW     -0.108000
     17 CBG         1.7610    0.4020   10.5390 c3        1 HCW     -0.111000
     18 NAJ         0.9100    0.6160    9.4610 n2        1 HCW     -0.253000
     19 NAE         1.3990   -0.0670   -1.2100 n3        1 HCW     -0.334000
     20 CAS         0.6720    0.1290   -2.4500 c2        1 HCW      0.096000
     21 CAR         0.2620   -0.9680   -3.1970 c2        1 HCW     -0.182000
     22 CAQ        -0.4400   -0.7790   -4.3880 c1        1 HCW     -0.097000
     23 CAP        -0.7280    0.5090   -4.8280 c1        1 HCW     -0.120500
     24 CAU        -0.3170    1.6060   -4.0790 c1        1 HCW     -0.085000
     25 CAT         0.3840    1.4160   -2.8890 c1        1 HCW     -0.147000
     26 CAN        -1.6330    0.7150   -6.0630 c2        1 HCW     -0.052000
     27 CAO        -3.1510    0.6880   -5.9090 c3        1 HCW     -0.163500
     28 NAD        -1.0900    0.9150   -7.2590 n1        1 HCW     -0.054500
     29 NAC         0.2930    0.9400   -7.4020 n2        1 HCW     -0.195000
     30 CAM         0.8950    0.5070   -8.6340 c2        1 HCW      0.138000
     31 NAB         0.7920   -0.7280   -9.0060 n1        1 HCW     -0.256000
     32 CAL         0.9240   -0.9540  -10.3650 c2        1 HCW     -0.110000
     33 CAK         1.1640    0.5670  -10.8850 c3        1 HCW     -0.108000
     34 NAA         1.1150    1.3970   -9.6280 n3        1 HCW     -0.278000
     35 HAF         2.3130   -0.3920    1.2660 hn        1 HCW      0.231000
     36 HAE         2.3130   -0.0960   -1.2170 hn        1 HCW      0.230000
     37 HBB         0.5540    1.7980    2.6700 ha        1 HCW      0.176000
     38 HAX         0.6360   -2.2950    2.7430 ha        1 HCW      0.134000
     39 HBA        -0.7080    1.8100    4.6730 ha        1 HCW      0.143000
     40 HAY        -0.6270   -2.2860    4.7440 ha        1 HCW      0.145000
     41 HBD1       -3.7010   -0.9910    5.8930 hc        1 HCW      0.094333
     42 HBD2       -3.6720    0.5570    6.2960 hc        1 HCW      0.094333
     43 HBD3       -3.3920    0.1180    4.7820 hc        1 HCW      0.094333
     44 HAH         0.5700   -0.4790    6.8800 hn        1 HCW      0.211000
     45 HAI         0.5550   -2.4550    9.2380 hn        1 HCW      0.204000
     46 HAR         0.4640   -1.8730   -2.8880 ha        1 HCW      0.134000
     47 HAT         0.6720    2.1870   -2.3630 ha        1 HCW      0.176000
     48 HAQ        -0.7290   -1.5510   -4.9130 ha        1 HCW      0.141000
     49 HAU        -0.5190    2.5110   -4.3870 ha        1 HCW      0.145000
     50 HAO1       -3.3820    0.5920   -4.9610 hc        1 HCW      0.094333
     51 HAO2       -3.5300    1.5250   -6.2550 hc        1 HCW      0.094333
     52 HAO3       -3.5170   -0.0700   -6.4130 hc        1 HCW      0.094333
     53 HAC         0.8110    1.3030   -6.7480 hn        1 HCW      0.213000
     54 HAL1        0.1540   -1.3550  -10.8160 ha        1 HCW      0.102000
     55 HAL2        1.7530   -1.4640  -10.4690 ha        1 HCW      0.102000
     56 HAK1        2.0820    0.6130  -11.2220 h1        1 HCW      0.092000
     57 HAK2        0.3820    0.8140  -11.4220 h1        1 HCW      0.092000
     58 HBF1        1.2710   -1.4670   11.4400 h1        1 HCW      0.092500
     59 HBF2        2.6130   -1.5430   10.3650 h1        1 HCW      0.092500
     60 HBG1        1.4690    0.9420   11.3040 h1        1 HCW      0.102500
     61 HBG2        2.6830    0.5830   10.2660 h1        1 HCW      0.102500
     62 HAA         1.4530    2.2390   -9.5290 hn        1 HCW      0.204000
@<TRIPOS>BOND
     1    1    2 1   
     2    2   19 1   
     3    3    4 1   
     4    3   35 1   
     5    4    5 1   
     6    4    7 1   
     7    5    6 1   
     8    5   37 1   
     9    6   39 1   
    10    7   38 1   
    11    8    9 1   
    12    8   40 1   
    13    9   10 1   
    14   10   11 1   
    15   10   12 1   
    16   11   41 1   
    17   11   42 1   
    18   11   43 1   
    19   13   14 1   
    20   13   44 1   
    21   14   15 1   
    22   14   18 1   
    23   15   16 1   
    24   15   45 1   
    25   16   17 1   
    26   16   58 1   
    27   16   59 1   
    28   17   18 1   
    29   17   60 1   
    30   17   61 1   
    31   19   20 1   
    32   19   36 1   
    33   20   21 1   
    34   20   25 1   
    35   21   22 1   
    36   21   46 1   
    37   22   48 1   
    38   23   24 1   
    39   23   26 1   
    40   24   49 1   
    41   25   47 1   
    42   26   27 1   
    43   26   28 1   
    44   27   50 1   
    45   27   51 1   
    46   27   52 1   
    47   29   30 1   
    48   29   53 1   
    49   30   31 1   
    50   30   34 1   
    51   32   33 1   
    52   32   54 1   
    53   32   55 1   
    54   33   34 1   
    55   33   56 1   
    56   33   57 1   
    57   34   62 1   
@<TRIPOS>SUBSTRUCTURE
     1 HCW         1 TEMP              0 ****  ****    0 ROOT
