@<TRIPOS>MOLECULE
HCW
   66    69     1     0     0
SMALL
bcc


@<TRIPOS>ATOM
      1 OBH        -2.0810    0.4600    0.0250 o         1 HCW     -0.289100
      2 CAV        -0.8630    0.4060    0.0270 c         1 HCW      0.483100
      3 NAF        -0.0720    1.2840    0.9550 n4        1 HCW     -0.499200
      4 CAW        -0.2690    0.9330    2.3770 ca        1 HCW     -0.088400
      5 CBB         0.8170    0.4390    3.1260 ca        1 HCW     -0.083500
      6 CBA         0.6590    0.2420    4.4980 ca        1 HCW     -0.059500
      7 CAX        -1.5110    1.1940    2.9890 ca        1 HCW     -0.083500
      8 CAY        -1.6500    0.9820    4.3600 ca        1 HCW     -0.059500
      9 CAZ        -0.5680    0.5150    5.1190 ca        1 HCW     -0.072900
     10 CBC        -0.7330    0.3060    6.5900 ce        1 HCW      0.549900
     11 CBD        -1.7230   -0.7440    6.9580 c3        1 HCW     -0.212400
     12 NAG         0.0080    1.0670    7.3570 n2        1 HCW     -0.505400
     13 NAH        -0.0130    1.0460    8.7520 n4        1 HCW     -0.401100
     14 CBE         0.4020   -0.2100    9.4610 c2        1 HCW      0.560100
     15 NAI         0.3410   -0.2340   10.9060 nh        1 HCW     -0.766200
     16 CBF         0.7790   -1.6020   11.2490 c3        1 HCW      0.128800
     17 CBG         1.0070   -2.3220    9.8730 c3        1 HCW      0.070800
     18 NAJ         0.7040   -1.3310    8.8370 n2        1 HCW     -0.560900
     19 NAE        -0.1510   -0.5400   -0.9000 n4        1 HCW     -0.499200
     20 CAS        -0.3130   -0.1730   -2.3220 ca        1 HCW     -0.088400
     21 CAR         0.8140    0.2220   -3.0690 ca        1 HCW     -0.083500
     22 CAQ         0.6780    0.4320   -4.4410 ca        1 HCW     -0.059500
     23 CAP        -0.5670    0.2690   -5.0650 ca        1 HCW     -0.072900
     24 CAU        -1.6880   -0.0990   -4.3090 ca        1 HCW     -0.059500
     25 CAT        -1.5720   -0.3220   -2.9370 ca        1 HCW     -0.083500
     26 CAN        -0.7090    0.4920   -6.5370 ce        1 HCW      0.549900
     27 CAO        -1.6010    1.6260   -6.9070 c3        1 HCW     -0.212400
     28 NAD        -0.0380   -0.3330   -7.3020 n2        1 HCW     -0.505400
     29 NAC        -0.0530   -0.3110   -8.6970 n4        1 HCW     -0.401100
     30 CAM         0.4730    0.9030   -9.4050 c2        1 HCW      0.560100
     31 NAB         0.8730    1.9930   -8.7800 n2        1 HCW     -0.560900
     32 CAL         1.2660    2.9530   -9.8160 c3        1 HCW      0.070800
     33 CAK         0.9780    2.2560  -11.1930 c3        1 HCW      0.128800
     34 NAA         0.4190    0.9320  -10.8500 nh        1 HCW     -0.766200
     35 HAF         0.9380    1.2800    0.7440 hn        1 HCW      0.503800
     36 HAE         0.8540   -0.6260   -0.6870 hn        1 HCW      0.503800
     37 HBB         1.8020    0.2320    2.6740 ha        1 HCW      0.181500
     38 HAX        -2.3780    1.5700    2.4150 ha        1 HCW      0.181500
     39 HBA         1.5200   -0.1250    5.0910 ha        1 HCW      0.205500
     40 HAY        -2.6240    1.2020    4.8390 ha        1 HCW      0.205500
     41 HBD1       -2.5960   -0.7240    6.2570 hc        1 HCW      0.107367
     42 HBD2       -1.2370   -1.7560    6.8810 hc        1 HCW      0.107367
     43 HBD3       -2.1120   -0.6300    8.0020 hc        1 HCW      0.107367
     44 HAH         0.6740    1.7880    9.0120 hn        1 HCW      0.495800
     45 HAI         0.8470    0.4950   11.3720 hn        1 HCW      0.427800
     46 HAR         1.8130    0.3410   -2.6140 ha        1 HCW      0.181500
     47 HAT        -2.4700   -0.6200   -2.3650 ha        1 HCW      0.181500
     48 HAQ         1.5690    0.7200   -5.0320 ha        1 HCW      0.205500
     49 HAU        -2.6770   -0.2320   -4.7900 ha        1 HCW      0.205500
     50 HAO1       -1.0260    2.5900   -6.8290 hc        1 HCW      0.107367
     51 HAO2       -2.4740    1.6830   -6.2080 hc        1 HCW      0.107367
     52 HAO3       -1.9960    1.5460   -7.9510 hc        1 HCW      0.107367
     53 HAC        -1.0060   -0.4900   -9.0760 hn        1 HCW      0.495800
     54 HAL1        2.3510    3.2140   -9.6900 h1        1 HCW      0.120700
     55 HAL2        0.6520    3.8870   -9.7030 h1        1 HCW      0.120700
     56 HAK1        0.1930    2.8120  -11.7730 h1        1 HCW      0.111700
     57 HAK2        1.9100    2.1760  -11.8120 h1        1 HCW      0.111700
     58 HBF1        1.7130   -1.6060   11.8710 h1        1 HCW      0.111700
     59 HBF2       -0.0540   -2.0870   11.8280 h1        1 HCW      0.111700
     60 HBG1        0.3130   -3.1980    9.7580 h1        1 HCW      0.120700
     61 HBG2        2.0640   -2.6790    9.7490 h1        1 HCW      0.120700
     62 HAA         0.8590    0.1610  -11.3140 hn        1 HCW      0.427800
     63 HAF2       -0.4320    2.2550    0.8240 hn        1 HCW      0.503800
     64 HAH2       -0.9470    1.3100    9.1290 hn        1 HCW      0.495800
     65 HAE2       -0.5970   -1.4750   -0.7690 hn        1 HCW      0.503800
     66 HAC2        0.5660   -1.1110   -8.9550 hn        1 HCW      0.495800
@<TRIPOS>BOND
     1    1    2 2   
     2    2    3 1   
     3    2   19 1   
     4    3    4 1   
     5    3   35 1   
     6    3   63 1   
     7    4    5 ar  
     8    4    7 ar  
     9    5    6 ar  
    10    5   37 1   
    11    6    9 ar  
    12    6   39 1   
    13    7    8 ar  
    14    7   38 1   
    15    8    9 ar  
    16    8   40 1   
    17    9   10 1   
    18   10   11 1   
    19   10   12 2   
    20   11   41 1   
    21   11   42 1   
    22   11   43 1   
    23   12   13 1   
    24   13   14 1   
    25   13   44 1   
    26   13   64 1   
    27   14   15 1   
    28   14   18 2   
    29   15   16 1   
    30   15   45 1   
    31   16   17 1   
    32   16   58 1   
    33   16   59 1   
    34   17   18 1   
    35   17   60 1   
    36   17   61 1   
    37   19   20 1   
    38   19   36 1   
    39   19   65 1   
    40   20   21 ar  
    41   20   25 ar  
    42   21   22 ar  
    43   21   46 1   
    44   22   23 ar  
    45   22   48 1   
    46   23   24 ar  
    47   23   26 1   
    48   24   25 ar  
    49   24   49 1   
    50   25   47 1   
    51   26   27 1   
    52   26   28 2   
    53   27   50 1   
    54   27   51 1   
    55   27   52 1   
    56   28   29 1   
    57   29   30 1   
    58   29   53 1   
    59   29   66 1   
    60   30   31 2   
    61   30   34 1   
    62   31   32 1   
    63   32   33 1   
    64   32   54 1   
    65   32   55 1   
    66   33   34 1   
    67   33   56 1   
    68   33   57 1   
    69   34   62 1   
@<TRIPOS>SUBSTRUCTURE
     1 HCW         1 TEMP              0 ****  ****    0 ROOT
