@<TRIPOS>MOLECULE
HCW
   62    65     1     0     0
SMALL
bcc


@<TRIPOS>ATOM
      1 OBH        -0.0030   -0.7600   -0.0760 o         1 HCW     -0.606100
      2 CAV        -0.0020    0.4790    0.0860 c         1 HCW      0.772100
      3 NAF         1.1440    1.1700    0.5410 n         1 HCW     -0.464100
      4 CAW         2.4240    0.5870    0.6190 ca        1 HCW      0.072600
      5 CBB         3.5570    1.4220    0.4750 ca        1 HCW     -0.166000
      6 CBA         4.8390    0.9050    0.6170 ca        1 HCW     -0.081000
      7 CAX         2.6240   -0.7810    0.9020 ca        1 HCW     -0.166000
      8 CAY         3.9130   -1.2840    1.0370 ca        1 HCW     -0.081000
      9 CAZ         5.0300   -0.4510    0.9050 ca        1 HCW     -0.142900
     10 CBC         6.3880   -1.0090    1.0710 ce        1 HCW      0.391900
     11 CBD         6.5500   -1.9710    2.2080 c3        1 HCW     -0.174400
     12 NAG         7.3140   -0.6410    0.2170 n2        1 HCW     -0.414400
     13 NAH         8.5350   -1.1970    0.2110 nh        1 HCW     -0.451300
     14 CBE         9.6320   -0.3540   -0.2060 c2        1 HCW      0.695100
     15 NAI        10.8840   -1.0330   -0.5530 nh        1 HCW     -0.795200
     16 CBF        11.7530    0.0340   -1.0600 c3        1 HCW      0.121800
     17 CBG        10.9410    1.3570   -0.8550 c3        1 HCW      0.079800
     18 NAJ         9.6470    0.9660   -0.3050 n2        1 HCW     -0.606900
     19 NAE        -1.1450    1.2670   -0.1770 n         1 HCW     -0.464100
     20 CAS        -2.4270    0.7270   -0.4020 ca        1 HCW      0.072600
     21 CAR        -3.5580    1.5000   -0.0470 ca        1 HCW     -0.166000
     22 CAQ        -4.8410    1.0400   -0.3160 ca        1 HCW     -0.081000
     23 CAP        -5.0360   -0.1970   -0.9420 ca        1 HCW     -0.142900
     24 CAU        -3.9210   -0.9710   -1.2840 ca        1 HCW     -0.081000
     25 CAT        -2.6310   -0.5230   -1.0250 ca        1 HCW     -0.166000
     26 CAN        -6.3950   -0.6900   -1.2460 ce        1 HCW      0.391900
     27 CAO        -6.5590   -1.3280   -2.5910 c3        1 HCW     -0.174400
     28 NAD        -7.3200   -0.5510   -0.3250 n2        1 HCW     -0.414400
     29 NAC        -8.5430   -1.0860   -0.4620 nh        1 HCW     -0.451300
     30 CAM        -9.6370   -0.3760    0.1590 c2        1 HCW      0.695100
     31 NAB        -9.6490    0.8750    0.5930 n2        1 HCW     -0.606900
     32 CAL       -10.9420    1.1150    1.2250 c3        1 HCW      0.079800
     33 CAK       -11.7580   -0.2140    1.0840 c3        1 HCW      0.121800
     34 NAA       -10.8910   -1.1180    0.3200 nh        1 HCW     -0.795200
     35 HAF         1.1530    2.1630    0.4460 hn        1 HCW      0.308500
     36 HAE        -1.1520    2.2020    0.1690 hn        1 HCW      0.308500
     37 HBB         3.4400    2.4930    0.2480 ha        1 HCW      0.151500
     38 HAX         1.7650   -1.4640    1.0050 ha        1 HCW      0.151500
     39 HBA         5.7080    1.5710    0.4930 ha        1 HCW      0.146000
     40 HAY         4.0500   -2.3570    1.2450 ha        1 HCW      0.146000
     41 HBD1        6.6370   -3.0160    1.8200 hc        1 HCW      0.054700
     42 HBD2        7.4630   -1.7350    2.8090 hc        1 HCW      0.054700
     43 HBD3        5.6690   -1.9210    2.8930 hc        1 HCW      0.054700
     44 HAH         8.8100   -1.7180    1.0380 hn        1 HCW      0.390800
     45 HAI        10.7530   -1.7890   -1.1950 hn        1 HCW      0.394800
     46 HAR        -3.4380    2.4770    0.4460 ha        1 HCW      0.151500
     47 HAT        -1.7730   -1.1580   -1.3000 ha        1 HCW      0.151500
     48 HAQ        -5.7080    1.6540   -0.0260 ha        1 HCW      0.146000
     49 HAU        -4.0610   -1.9540   -1.7600 ha        1 HCW      0.146000
     50 HAO1       -6.6490   -2.4380   -2.4840 hc        1 HCW      0.054700
     51 HAO2       -7.4720   -0.9430   -3.1110 hc        1 HCW      0.054700
     52 HAO3       -5.6780   -1.1060   -3.2410 hc        1 HCW      0.054700
     53 HAC        -8.8190   -1.3770   -1.3950 hn        1 HCW      0.390800
     54 HAL1      -10.7910    1.3940    2.2990 h1        1 HCW      0.068200
     55 HAL2      -11.4620    1.9580    0.7020 h1        1 HCW      0.068200
     56 HAK1      -12.0340   -0.6270    2.0880 h1        1 HCW      0.056200
     57 HAK2      -12.6920   -0.0470    0.4880 h1        1 HCW      0.056200
     58 HBF1       12.6880    0.0400   -0.4410 h1        1 HCW      0.056200
     59 HBF2       12.0290   -0.1080   -2.1360 h1        1 HCW      0.056200
     60 HBG1       11.4630    2.0360   -0.1330 h1        1 HCW      0.068200
     61 HBG2       10.7910    1.9030   -1.8210 h1        1 HCW      0.068200
     62 HAA       -10.7630   -2.0130    0.7470 hn        1 HCW      0.394800
@<TRIPOS>BOND
     1    1    2 2   
     2    2    3 1   
     3    2   19 1   
     4    3    4 1   
     5    3   35 1   
     6    4    5 ar  
     7    4    7 ar  
     8    5    6 ar  
     9    5   37 1   
    10    6    9 ar  
    11    6   39 1   
    12    7    8 ar  
    13    7   38 1   
    14    8    9 ar  
    15    8   40 1   
    16    9   10 1   
    17   10   11 1   
    18   10   12 2   
    19   11   41 1   
    20   11   42 1   
    21   11   43 1   
    22   12   13 1   
    23   13   14 1   
    24   13   44 1   
    25   14   15 1   
    26   14   18 2   
    27   15   16 1   
    28   15   45 1   
    29   16   17 1   
    30   16   58 1   
    31   16   59 1   
    32   17   18 1   
    33   17   60 1   
    34   17   61 1   
    35   19   20 1   
    36   19   36 1   
    37   20   21 ar  
    38   20   25 ar  
    39   21   22 ar  
    40   21   46 1   
    41   22   23 ar  
    42   22   48 1   
    43   23   24 ar  
    44   23   26 1   
    45   24   25 ar  
    46   24   49 1   
    47   25   47 1   
    48   26   27 1   
    49   26   28 2   
    50   27   50 1   
    51   27   51 1   
    52   27   52 1   
    53   28   29 1   
    54   29   30 1   
    55   29   53 1   
    56   30   31 2   
    57   30   34 1   
    58   31   32 1   
    59   32   33 1   
    60   32   54 1   
    61   32   55 1   
    62   33   34 1   
    63   33   56 1   
    64   33   57 1   
    65   34   62 1   
@<TRIPOS>SUBSTRUCTURE
     1 HCW         1 TEMP              0 ****  ****    0 ROOT
