@<TRIPOS>MOLECULE
HCW
   64    67     1     0     0
SMALL
bcc


@<TRIPOS>ATOM
      1 OBH        -0.7740    0.7930    0.1820 o         1 HCW     -0.592100
      2 CAV         0.4640    0.9390    0.1340 c         1 HCW      0.799100
      3 NAF         1.2640    0.9060    1.2980 n         1 HCW     -0.472600
      4 CAW         0.7890    0.7650    2.6040 ca        1 HCW      0.143600
      5 CBB         1.7340    0.4970    3.6310 ca        1 HCW     -0.182000
      6 CBA         1.3320    0.3820    4.9530 ca        1 HCW     -0.036000
      7 CAX        -0.5710    0.9070    2.9690 ca        1 HCW     -0.182000
      8 CAY        -0.9600    0.7760    4.2930 ca        1 HCW     -0.036000
      9 CAZ        -0.0210    0.5120    5.3050 ca        1 HCW     -0.237900
     10 CBC        -0.4720    0.3850    6.6970 ce        1 HCW      0.600900
     11 CBD        -1.8630   -0.1320    6.8880 c3        1 HCW     -0.215900
     12 NAG         0.3650    0.7630    7.6470 n2        1 HCW     -0.572400
     13 NAH         0.0510    0.7350    9.0060 n4        1 HCW     -0.384100
     14 CBE        -0.1980   -0.5890    9.6560 c2        1 HCW      0.549600
     15 NAI         0.4020   -1.7900    9.1190 nh        1 HCW     -0.771700
     16 CBF        -0.0310   -2.8480   10.0510 c3        1 HCW      0.124300
     17 CBG        -0.9960   -2.1360   11.0640 c3        1 HCW      0.068800
     18 NAJ        -1.0160   -0.7250   10.6840 n2        1 HCW     -0.525900
     19 NAE         1.1470    1.1450   -1.0840 n         1 HCW     -0.472600
     20 CAS         0.5560    1.1870   -2.3500 ca        1 HCW      0.143600
     21 CAR         1.3440    1.6530   -3.4360 ca        1 HCW     -0.182000
     22 CAQ         0.8250    1.6980   -4.7210 ca        1 HCW     -0.036000
     23 CAP        -0.4880    1.2730   -4.9800 ca        1 HCW     -0.237900
     24 CAU        -1.2700    0.8070   -3.9090 ca        1 HCW     -0.036000
     25 CAT        -0.7670    0.7640   -2.6180 ca        1 HCW     -0.182000
     26 CAN        -1.0490    1.3010   -6.3380 ce        1 HCW      0.600900
     27 CAO        -2.1010    0.2780   -6.6240 c3        1 HCW     -0.215900
     28 NAD        -0.6020    2.2360   -7.1570 n2        1 HCW     -0.572400
     29 NAC        -1.0390    2.3860   -8.4750 n4        1 HCW     -0.384100
     30 CAM        -0.4920    1.4400   -9.4980 c2        1 HCW      0.549600
     31 NAB        -0.0060    0.2490   -9.2120 n2        1 HCW     -0.525900
     32 CAL         0.5010   -0.3190  -10.4610 c3        1 HCW      0.068800
     33 CAK         0.2700    0.7720  -11.5660 c3        1 HCW      0.124300
     34 NAA        -0.3600    1.9090  -10.8680 nh        1 HCW     -0.771700
     35 HAF         2.2560    0.8780    1.1990 hn        1 HCW      0.331500
     36 HAE         2.1140    1.3910   -1.0560 hn        1 HCW      0.331500
     37 HBB         2.8040    0.3790    3.3920 ha        1 HCW      0.172000
     38 HAX        -1.3420    1.1210    2.2080 ha        1 HCW      0.172000
     39 HBA         2.0950    0.1730    5.7210 ha        1 HCW      0.152000
     40 HAY        -2.0270    0.9000    4.5420 ha        1 HCW      0.152000
     41 HBD1       -1.9960   -0.6710    7.8590 hc        1 HCW      0.090533
     42 HBD2       -2.1230   -0.8500    6.0680 hc        1 HCW      0.090533
     43 HBD3       -2.5860    0.7250    6.8490 hc        1 HCW      0.090533
     44 HAH         0.8990    1.1330    9.4570 hn        1 HCW      0.474550
     45 HAI         1.3900   -1.7360    8.9740 hn        1 HCW      0.411800
     46 HAR         2.3820    1.9870   -3.2740 ha        1 HCW      0.172000
     47 HAT        -1.4200    0.3960   -1.8060 ha        1 HCW      0.172000
     48 HAQ         1.4700    2.0630   -5.5380 ha        1 HCW      0.152000
     49 HAU        -2.3070    0.4740   -4.0780 ha        1 HCW      0.152000
     50 HAO1       -1.8020   -0.7040   -6.1710 hc        1 HCW      0.090533
     51 HAO2       -2.2780    0.1040   -7.7130 hc        1 HCW      0.090533
     52 HAO3       -3.0670    0.6020   -6.1540 hc        1 HCW      0.090533
     53 HAC        -2.0680    2.3640   -8.5690 hn        1 HCW      0.474550
     54 HAL1       -0.0390   -1.2760  -10.6870 h1        1 HCW      0.113200
     55 HAL2        1.5950   -0.5390  -10.3380 h1        1 HCW      0.113200
     56 HAK1        1.2480    1.1320  -11.9820 h1        1 HCW      0.093450
     57 HAK2       -0.3670    0.3790  -12.3990 h1        1 HCW      0.093450
     58 HBF1       -0.5790   -3.6240    9.4530 h1        1 HCW      0.093450
     59 HBF2        0.8310   -3.3290   10.5810 h1        1 HCW      0.093450
     60 HBG1       -2.0380   -2.5500   10.9900 h1        1 HCW      0.113200
     61 HBG2       -0.6440   -2.2300   12.1250 h1        1 HCW      0.113200
     62 HAA        -1.2230    2.2080  -11.2800 hn        1 HCW      0.411800
     63 HAH2       -0.7560    1.3500    9.2250 hn        1 HCW      0.474550
     64 HAC2       -0.6900    3.3360   -8.7250 hn        1 HCW      0.474550
@<TRIPOS>BOND
     1    1    2 2   
     2    2    3 1   
     3    2   19 1   
     4    3    4 1   
     5    3   35 1   
     6    4    5 ar  
     7    4    7 ar  
     8    5    6 ar  
     9    5   37 1   
    10    6    9 ar  
    11    6   39 1   
    12    7    8 ar  
    13    7   38 1   
    14    8    9 ar  
    15    8   40 1   
    16    9   10 1   
    17   10   11 1   
    18   10   12 2   
    19   11   41 1   
    20   11   42 1   
    21   11   43 1   
    22   12   13 1   
    23   13   14 1   
    24   13   44 1   
    25   13   63 1   
    26   14   15 1   
    27   14   18 2   
    28   15   16 1   
    29   15   45 1   
    30   16   17 1   
    31   16   58 1   
    32   16   59 1   
    33   17   18 1   
    34   17   60 1   
    35   17   61 1   
    36   19   20 1   
    37   19   36 1   
    38   20   21 ar  
    39   20   25 ar  
    40   21   22 ar  
    41   21   46 1   
    42   22   23 ar  
    43   22   48 1   
    44   23   24 ar  
    45   23   26 1   
    46   24   25 ar  
    47   24   49 1   
    48   25   47 1   
    49   26   27 1   
    50   26   28 2   
    51   27   50 1   
    52   27   51 1   
    53   27   52 1   
    54   28   29 1   
    55   29   30 1   
    56   29   53 1   
    57   29   64 1   
    58   30   31 2   
    59   30   34 1   
    60   31   32 1   
    61   32   33 1   
    62   32   54 1   
    63   32   55 1   
    64   33   34 1   
    65   33   56 1   
    66   33   57 1   
    67   34   62 1   
@<TRIPOS>SUBSTRUCTURE
     1 HCW         1 TEMP              0 ****  ****    0 ROOT
