@<TRIPOS>MOLECULE
HCW
   64    67     1     0     0
SMALL
bcc


@<TRIPOS>ATOM
      1 OBH        -1.0120    0.4200    0.0250 o         1 HCW     -0.594100
      2 CAV         0.2350    0.3620    0.0290 c         1 HCW      0.798100
      3 NAF         0.9680    0.1380    1.2140 ns        1 HCW     -0.473100
      4 CAW         0.4180   -0.0270    2.4900 ca        1 HCW      0.136600
      5 CBB         1.2630   -0.5180    3.5200 ca        1 HCW     -0.177000
      6 CBA         0.7870   -0.6750    4.8120 ca        1 HCW     -0.043000
      7 CAX        -0.9190    0.2970    2.8190 ca        1 HCW     -0.177000
      8 CAY        -1.3800    0.1440    4.1190 ca        1 HCW     -0.043000
      9 CAZ        -0.5360   -0.3330    5.1320 ca        1 HCW     -0.233900
     10 CBC        -1.0330   -0.4740    6.5130 ce        1 HCW      0.600900
     11 CBD        -1.7970    0.6900    7.0490 c3        1 HCW     -0.206400
     12 NAG        -0.7390   -1.6020    7.1280 n2        1 HCW     -0.559400
     13 NAH        -1.1250   -1.9090    8.4350 ny        1 HCW     -0.386100
     14 CBE        -0.4620   -1.1800    9.5600 c2        1 HCW      0.555100
     15 NAI        -0.2600   -1.8800   10.8170 nu        1 HCW     -0.770200
     16 CBF         0.4660   -0.9030   11.6490 c3        1 HCW      0.124800
     17 CBG         0.6770    0.3510   10.7290 c3        1 HCW      0.068800
     18 NAJ         0.0620    0.0240    9.4440 n2        1 HCW     -0.532900
     19 NAE         0.9930    0.5160   -1.1510 ns        1 HCW     -0.473100
     20 CAS         0.4700    0.7310   -2.4300 ca        1 HCW      0.136600
     21 CAR         1.3650    1.1410   -3.4540 ca        1 HCW     -0.177000
     22 CAQ         0.9140    1.3420   -4.7500 ca        1 HCW     -0.043000
     23 CAP        -0.4320    1.1240   -5.0790 ca        1 HCW     -0.233900
     24 CAU        -1.3240    0.7280   -4.0720 ca        1 HCW     -0.043000
     25 CAT        -0.8890    0.5330   -2.7680 ca        1 HCW     -0.177000
     26 CAN        -0.9050    1.3110   -6.4630 ce        1 HCW      0.600900
     27 CAO        -1.7700    0.2220   -7.0050 c3        1 HCW     -0.206400
     28 NAD        -0.5020    2.4060   -7.0760 n2        1 HCW     -0.559400
     29 NAC        -0.8500    2.7470   -8.3860 ny        1 HCW     -0.386100
     30 CAM        -0.2490    1.9590   -9.5060 c2        1 HCW      0.555100
     31 NAB         0.1590    0.7120   -9.3870 n2        1 HCW     -0.532900
     32 CAL         0.7500    0.3280  -10.6680 c3        1 HCW      0.068800
     33 CAK         0.6630    1.5960  -11.5890 c3        1 HCW      0.124800
     34 NAA         0.0260    2.6370  -10.7610 nu        1 HCW     -0.770200
     35 HAF         1.9460   -0.0440    1.1460 hn        1 HCW      0.330500
     36 HAE         1.9840    0.6070   -1.0760 hn        1 HCW      0.330500
     37 HBB         2.3110   -0.7850    3.3070 ha        1 HCW      0.171500
     38 HAX        -1.6170    0.6720    2.0500 ha        1 HCW      0.171500
     39 HBA         1.4670   -1.0630    5.5890 ha        1 HCW      0.151000
     40 HAY        -2.4330    0.3890    4.3340 ha        1 HCW      0.151000
     41 HBD1       -2.4670    1.1190    6.2610 hc        1 HCW      0.089700
     42 HBD2       -1.0630    1.4890    7.3430 hc        1 HCW      0.089700
     43 HBD3       -2.4220    0.4410    7.9400 hc        1 HCW      0.089700
     44 HAH        -0.8560   -2.9130    8.5210 hn        1 HCW      0.473300
     45 HAI        -1.1040   -2.2230   11.2340 hn        1 HCW      0.407800
     46 HAR         2.4320    1.3100   -3.2340 ha        1 HCW      0.171500
     47 HAT        -1.6240    0.2250   -2.0040 ha        1 HCW      0.171500
     48 HAQ         1.6330    1.6640   -5.5210 ha        1 HCW      0.151000
     49 HAU        -2.3940    0.5820   -4.2940 ha        1 HCW      0.151000
     50 HAO1       -2.3630    0.5280   -7.9000 hc        1 HCW      0.089700
     51 HAO2       -2.4820   -0.1430   -6.2220 hc        1 HCW      0.089700
     52 HAO3       -1.1110   -0.6410   -7.2940 hc        1 HCW      0.089700
     53 HAC        -0.4880    3.7210   -8.4690 hn        1 HCW      0.473300
     54 HAL1        1.8200    0.0300  -10.4970 h1        1 HCW      0.112200
     55 HAL2        0.1930   -0.5470  -11.0940 h1        1 HCW      0.112200
     56 HAK1        1.6890    1.9630  -11.8620 h1        1 HCW      0.095700
     57 HAK2        0.0850    1.3820  -12.5240 h1        1 HCW      0.095700
     58 HBF1        1.4510   -1.3640   11.9290 h1        1 HCW      0.095700
     59 HBF2       -0.0970   -0.6350   12.5800 h1        1 HCW      0.095700
     60 HBG1        1.7710    0.5490   10.5660 h1        1 HCW      0.112200
     61 HBG2        0.2010    1.2740   11.1520 h1        1 HCW      0.112200
     62 HAA        -0.7790    3.0570  -11.1840 hn        1 HCW      0.407800
     63 HAH2       -2.1450   -1.8160    8.5820 hn        1 HCW      0.473300
     64 HAC2       -1.8730    2.7490   -8.5400 hn        1 HCW      0.473300
@<TRIPOS>BOND
     1    1    2 2   
     2    2    3 1   
     3    2   19 1   
     4    3    4 1   
     5    3   35 1   
     6    4    5 ar  
     7    4    7 ar  
     8    5    6 ar  
     9    5   37 1   
    10    6    9 ar  
    11    6   39 1   
    12    7    8 ar  
    13    7   38 1   
    14    8    9 ar  
    15    8   40 1   
    16    9   10 1   
    17   10   11 1   
    18   10   12 2   
    19   11   41 1   
    20   11   42 1   
    21   11   43 1   
    22   12   13 1   
    23   13   14 1   
    24   13   44 1   
    25   13   63 1   
    26   14   15 1   
    27   14   18 2   
    28   15   16 1   
    29   15   45 1   
    30   16   17 1   
    31   16   58 1   
    32   16   59 1   
    33   17   18 1   
    34   17   60 1   
    35   17   61 1   
    36   19   20 1   
    37   19   36 1   
    38   20   21 ar  
    39   20   25 ar  
    40   21   22 ar  
    41   21   46 1   
    42   22   23 ar  
    43   22   48 1   
    44   23   24 ar  
    45   23   26 1   
    46   24   25 ar  
    47   24   49 1   
    48   25   47 1   
    49   26   27 1   
    50   26   28 2   
    51   27   50 1   
    52   27   51 1   
    53   27   52 1   
    54   28   29 1   
    55   29   30 1   
    56   29   53 1   
    57   29   64 1   
    58   30   31 2   
    59   30   34 1   
    60   31   32 1   
    61   32   33 1   
    62   32   54 1   
    63   32   55 1   
    64   33   34 1   
    65   33   56 1   
    66   33   57 1   
    67   34   62 1   
@<TRIPOS>SUBSTRUCTURE
     1 HCW         1 TEMP              0 ****  ****    0 ROOT
