@<TRIPOS>MOLECULE
HCX
   24    25     1     0     0
SMALL
bcc


@<TRIPOS>ATOM
      1 P           1.9580   -4.9460    4.1610 p5        1 HCX      1.344800
      2 O1P         1.3350   -6.2820    4.1980 o         1 HCX     -0.859500
      3 O2P         3.2580   -4.6890    3.4910 o         1 HCX     -0.859500
      4 O5'         0.8910   -3.9010    3.4200 os        1 HCX     -0.584200
      5 C4          0.5210   -1.5380    1.3370 cx        1 HCX     -0.095700
      6 C7          0.7570   -0.4990    0.2740 cx        1 HCX     -0.141400
      7 C2'         2.7600   -0.6830    1.8890 c3        1 HCX     -0.058400
      8 C5'         0.8670   -3.9640    2.0310 c3        1 HCX      0.211400
      9 C4'         1.4520   -2.7280    1.3450 c3        1 HCX     -0.097700
     10 C1'         1.3260   -0.2860    1.6510 cx        1 HCX     -0.132700
     11 C3'         2.7520   -2.2180    2.0180 c3        1 HCX      0.158100
     12 O3'         3.8980   -2.7450    1.3840 oh        1 HCX     -0.640800
     13 H72         1.4430   -0.7300   -0.5600 hc        1 HCX      0.056200
     14 H2'1        3.4170   -0.3710    1.0400 hc        1 HCX      0.040700
     15 H2'2        3.1550   -0.2200    2.8250 hc        1 HCX      0.040700
     16 H5'1        1.4470   -4.8670    1.6830 h1        1 HCX      0.015700
     17 H5'2       -0.2080   -4.0730    1.7060 h1        1 HCX      0.015700
     18 H4'         1.6910   -3.0220    0.2860 hc        1 HCX      0.048700
     19 H1'         0.9320    0.5220    2.2830 hc        1 HCX      0.068700
     20 H1          2.7380   -2.5280    3.1040 h1        1 HCX      0.080700
     21 H3'         4.0860   -3.5870    1.8360 ho        1 HCX      0.457000
     22 HP1         1.9350   -4.3800    5.3520 hp        1 HCX     -0.211400
     23 H4         -0.4880   -1.7050    1.7420 hc        1 HCX      0.085700
     24 H71        -0.0910    0.1310   -0.0460 hc        1 HCX      0.056200
@<TRIPOS>BOND
     1    1    2 1   
     2    1    3 1   
     3    1    4 1   
     4    1   22 1   
     5    4    8 1   
     6    5    6 1   
     7    5    9 1   
     8    5   10 1   
     9    5   23 1   
    10    6   10 1   
    11    6   13 1   
    12    6   24 1   
    13    7   10 1   
    14    7   11 1   
    15    7   14 1   
    16    7   15 1   
    17    8    9 1   
    18    8   16 1   
    19    8   17 1   
    20    9   11 1   
    21    9   18 1   
    22   10   19 1   
    23   11   12 1   
    24   11   20 1   
    25   12   21 1   
@<TRIPOS>SUBSTRUCTURE
     1 HCX         1 TEMP              0 ****  ****    0 ROOT
