@<TRIPOS>MOLECULE
HCX
   24    25     1     0     0
SMALL
bcc


@<TRIPOS>ATOM
      1 P          -0.6200   -0.3140    0.0330 p5        1 HCX      1.344800
      2 O1P        -0.8020   -0.5960    1.4690 o         1 HCX     -0.859500
      3 O2P        -1.6230   -0.7020   -0.9910 o         1 HCX     -0.859500
      4 O5'        -0.4510    1.3340   -0.1510 os        1 HCX     -0.584200
      5 C4         -1.2370    3.9010   -1.8380 cx        1 HCX     -0.095700
      6 C7         -1.8690    4.8400   -2.8310 cx        1 HCX     -0.141400
      7 C2'        -1.3790    2.5340   -3.8780 c3        1 HCX     -0.058400
      8 C5'        -1.6370    2.0600   -0.1250 c3        1 HCX      0.211400
      9 C4'        -2.0220    2.6620   -1.4780 c3        1 HCX     -0.097700
     10 C1'        -0.8610    3.8300   -3.3110 cx        1 HCX     -0.132700
     11 C3'        -1.8020    1.6870   -2.6620 c3        1 HCX      0.158100
     12 O3'        -2.9860    0.9830   -2.9740 oh        1 HCX     -0.640800
     13 H72        -2.9330    4.7050   -3.0970 hc        1 HCX      0.056200
     14 H2'1       -2.2550    2.7040   -4.5530 hc        1 HCX      0.040700
     15 H2'2       -0.5870    2.0040   -4.4590 hc        1 HCX      0.040700
     16 H5'1       -1.5150    2.9020    0.6150 h1        1 HCX      0.015700
     17 H5'2       -2.4810    1.3930    0.2150 h1        1 HCX      0.015700
     18 H4'        -3.1170    2.9160   -1.4250 hc        1 HCX      0.048700
     19 H1'         0.1150    4.1710   -3.6850 hc        1 HCX      0.068700
     20 H1         -0.9870    0.9590   -2.3790 h1        1 HCX      0.080700
     21 H3'        -2.9740    0.1860   -2.4150 ho        1 HCX      0.457000
     22 HP1         0.5930   -0.6440   -0.3640 hp        1 HCX     -0.211400
     23 H4         -0.5440    4.2800   -1.0730 hc        1 HCX      0.085700
     24 H71        -1.5760    5.9040   -2.8120 hc        1 HCX      0.056200
@<TRIPOS>BOND
     1    1    2 1   
     2    1    3 1   
     3    1    4 1   
     4    1   22 1   
     5    4    8 1   
     6    5    6 1   
     7    5    9 1   
     8    5   10 1   
     9    5   23 1   
    10    6   10 1   
    11    6   13 1   
    12    6   24 1   
    13    7   10 1   
    14    7   11 1   
    15    7   14 1   
    16    7   15 1   
    17    8    9 1   
    18    8   16 1   
    19    8   17 1   
    20    9   11 1   
    21    9   18 1   
    22   10   19 1   
    23   11   12 1   
    24   11   20 1   
    25   12   21 1   
@<TRIPOS>SUBSTRUCTURE
     1 HCX         1 TEMP              0 ****  ****    0 ROOT
