@<TRIPOS>MOLECULE
HCX
   24    25     1     0     0
SMALL
bcc


@<TRIPOS>ATOM
      1 P          -0.6150   -0.3380   -0.0040 p5        1 HCX      1.344800
      2 O1P        -0.8730   -0.6810    1.4080 o         1 HCX     -0.859500
      3 O2P        -1.5300   -0.7350   -1.1030 o         1 HCX     -0.859500
      4 O5'        -0.5150    1.3220   -0.1190 os        1 HCX     -0.584200
      5 C4         -1.3210    3.9100   -1.7660 cx        1 HCX     -0.095700
      6 C7         -1.9350    4.8540   -2.7650 cx        1 HCX     -0.141400
      7 C2'        -1.2660    2.6140   -3.8560 c3        1 HCX     -0.058400
      8 C5'        -1.7350    1.9890   -0.1460 c3        1 HCX      0.211400
      9 C4'        -2.0640    2.6220   -1.5000 c3        1 HCX     -0.097700
     10 C1'        -0.8500    3.9110   -3.2120 cx        1 HCX     -0.132700
     11 C3'        -1.7220    1.7030   -2.6990 c3        1 HCX      0.158100
     12 O3'        -2.8480    0.9560   -3.1110 oh        1 HCX     -0.640800
     13 H72        -1.6980    5.9290   -2.6910 hc        1 HCX      0.056200
     14 H2'1       -2.1040    2.7660   -4.5800 hc        1 HCX      0.040700
     15 H2'2       -0.4130    2.1440   -4.4020 hc        1 HCX      0.040700
     16 H5'1       -2.5650    1.2710    0.1170 h1        1 HCX      0.015700
     17 H5'2       -1.7020    2.8080    0.6290 h1        1 HCX      0.015700
     18 H4'        -3.1720    2.8210   -1.5090 hc        1 HCX      0.048700
     19 H1'         0.1290    4.3120   -3.5110 hc        1 HCX      0.068700
     20 H1         -0.8910    1.0040   -2.3890 h1        1 HCX      0.080700
     21 H3'        -2.8300    0.1400   -2.5800 ho        1 HCX      0.457000
     22 HP1         0.6360   -0.5960   -0.3310 hp        1 HCX     -0.211400
     23 H4         -0.6980    4.2930   -0.9450 hc        1 HCX      0.085700
     24 H71        -2.9720    4.6780   -3.1040 hc        1 HCX      0.056200
@<TRIPOS>BOND
     1    1    2 1   
     2    1    3 1   
     3    1    4 1   
     4    1   22 1   
     5    4    8 1   
     6    5    6 1   
     7    5    9 1   
     8    5   10 1   
     9    5   23 1   
    10    6   10 1   
    11    6   13 1   
    12    6   24 1   
    13    7   10 1   
    14    7   11 1   
    15    7   14 1   
    16    7   15 1   
    17    8    9 1   
    18    8   16 1   
    19    8   17 1   
    20    9   11 1   
    21    9   18 1   
    22   10   19 1   
    23   11   12 1   
    24   11   20 1   
    25   12   21 1   
@<TRIPOS>SUBSTRUCTURE
     1 HCX         1 TEMP              0 ****  ****    0 ROOT
