@<TRIPOS>MOLECULE
HCY
   56    59     1     0     0
SMALL
bcc


@<TRIPOS>ATOM
      1 C1          0.0710   -0.1010    0.1560 c3        1 HCY     -0.072400
      2 C2          1.4830    0.2460   -0.2560 c3        1 HCY     -0.183400
      3 C3          2.3230    0.5450    0.9550 c         1 HCY      0.570300
      4 C4          1.6600    1.3840    1.9620 ce        1 HCY     -0.264200
      5 C5          0.3380    1.6200    1.9560 c2        1 HCY     -0.033400
      6 C6         -0.2740    2.6300    2.8650 c3        1 HCY     -0.055200
      7 C7         -0.8410    3.7610    2.0270 c3        1 HCY     -0.070400
      8 C8         -1.7920    3.2560    0.9520 c3        1 HCY     -0.049700
      9 C9         -1.1620    2.1370    0.1010 c3        1 HCY     -0.037700
     10 C10        -0.6300    0.9860    0.9830 c3        1 HCY     -0.005800
     11 C12        -2.6230    2.8690   -1.8760 c3        1 HCY     -0.101400
     12 C11        -2.0950    1.6950   -1.0390 c3        1 HCY      0.152100
     13 C13        -3.2280    3.9630   -1.0150 c3        1 HCY     -0.024000
     14 C14        -2.1590    4.3900    0.0150 c3        1 HCY     -0.065700
     15 C15        -2.6950    5.6920    0.5920 c3        1 HCY     -0.070400
     16 C16        -3.3880    6.3760   -0.5890 c3        1 HCY     -0.102400
     17 C17        -3.5030    5.3280   -1.7280 c3        1 HCY      0.048800
     18 C18        -4.5290    3.4950   -0.3860 c3        1 HCY     -0.110100
     19 C19        -1.7420    0.2860    1.7640 c3        1 HCY     -0.081100
     20 C20        -4.8690    5.3700   -2.4090 c         1 HCY      0.547100
     21 C21        -4.8480    4.9360   -3.8560 c3        1 HCY      0.035400
     22 O1          3.4900    0.1530    1.0680 o         1 HCY     -0.535100
     23 O2         -3.1470    0.9050   -0.5010 oh        1 HCY     -0.600800
     24 O3         -2.4870    5.5090   -2.7080 oh        1 HCY     -0.593800
     25 O4         -5.8850    5.7440   -1.8280 o         1 HCY     -0.488100
     26 O5         -6.1710    4.6440   -4.2610 oh        1 HCY     -0.576800
     27 H4          2.3250    1.8410    2.7130 ha        1 HCY      0.148000
     28 H2C1        1.9320   -0.6020   -0.8360 hc        1 HCY      0.068700
     29 H2C2        1.4910    1.1530   -0.9180 hc        1 HCY      0.068700
     30 H6C1        0.4850    3.0380    3.5820 hc        1 HCY      0.057200
     31 H6C2       -1.0880    2.1530    3.4740 hc        1 HCY      0.057200
     32 H7C1       -1.3910    4.4790    2.6910 hc        1 HCY      0.046700
     33 H7C2        0.0020    4.3250    1.5470 hc        1 HCY      0.046700
     34 H8         -2.7180    2.8600    1.4510 hc        1 HCY      0.070700
     35 H1C1       -0.5410   -0.3390   -0.7510 hc        1 HCY      0.053700
     36 H1C2        0.1090   -1.0400    0.7740 hc        1 HCY      0.053700
     37 H191       -1.3030   -0.3090    2.6010 hc        1 HCY      0.045033
     38 H192       -2.4690    1.0170    2.1860 hc        1 HCY      0.045033
     39 H193       -2.3030   -0.4060    1.0880 hc        1 HCY      0.045033
     40 H9         -0.2590    2.5780   -0.4180 hc        1 HCY      0.052700
     41 H11        -1.5050    1.0390   -1.7480 h1        1 HCY      0.031700
     42 H14        -1.2280    4.6550   -0.5720 hc        1 HCY      0.058700
     43 H2         -3.8410    0.8590   -1.1700 ho        1 HCY      0.402000
     44 H121       -1.7720    3.2940   -2.4720 hc        1 HCY      0.057700
     45 H122       -3.3870    2.4840   -2.6010 hc        1 HCY      0.057700
     46 H181       -4.3550    2.6370    0.3070 hc        1 HCY      0.053033
     47 H182       -5.0100    4.3270    0.1860 hc        1 HCY      0.053033
     48 H183       -5.2390    3.1620   -1.1830 hc        1 HCY      0.053033
     49 H151       -1.8690    6.3240    1.0000 hc        1 HCY      0.050200
     50 H152       -3.4200    5.4950    1.4190 hc        1 HCY      0.050200
     51 H161       -2.7960    7.2570   -0.9390 hc        1 HCY      0.062700
     52 H162       -4.4070    6.7310   -0.2950 hc        1 HCY      0.062700
     53 H3         -2.4640    6.4490   -2.9240 ho        1 HCY      0.406000
     54 H211       -4.1970    4.0250   -3.9630 h1        1 HCY      0.052200
     55 H212       -4.4100    5.7710   -4.4690 h1        1 HCY      0.052200
     56 H5         -6.1420    4.5240   -5.2180 ho        1 HCY      0.404000
@<TRIPOS>BOND
     1    1    2 1   
     2    1   10 1   
     3    1   35 1   
     4    1   36 1   
     5    2    3 1   
     6    2   28 1   
     7    2   29 1   
     8    3    4 1   
     9    3   22 2   
    10    4    5 2   
    11    4   27 1   
    12    5    6 1   
    13    5   10 1   
    14    6    7 1   
    15    6   30 1   
    16    6   31 1   
    17    7    8 1   
    18    7   32 1   
    19    7   33 1   
    20    8    9 1   
    21    8   14 1   
    22    8   34 1   
    23    9   10 1   
    24    9   12 1   
    25    9   40 1   
    26   10   19 1   
    27   11   12 1   
    28   11   13 1   
    29   11   44 1   
    30   11   45 1   
    31   12   23 1   
    32   12   41 1   
    33   13   14 1   
    34   13   17 1   
    35   13   18 1   
    36   14   15 1   
    37   14   42 1   
    38   15   16 1   
    39   15   49 1   
    40   15   50 1   
    41   16   17 1   
    42   16   51 1   
    43   16   52 1   
    44   17   20 1   
    45   17   24 1   
    46   18   46 1   
    47   18   47 1   
    48   18   48 1   
    49   19   37 1   
    50   19   38 1   
    51   19   39 1   
    52   20   21 1   
    53   20   25 2   
    54   21   26 1   
    55   21   54 1   
    56   21   55 1   
    57   23   43 1   
    58   24   53 1   
    59   26   56 1   
@<TRIPOS>SUBSTRUCTURE
     1 HCY         1 TEMP              0 ****  ****    0 ROOT
