@<TRIPOS>MOLECULE
HCY
   56    59     1     0     0
SMALL
bcc


@<TRIPOS>ATOM
      1 C1         -3.3310    1.6670    0.0150 c3        1 HCY     -0.072400
      2 C2         -3.9440    1.4290   -1.3450 c3        1 HCY     -0.183400
      3 C3         -4.9140    0.2810   -1.2880 c         1 HCY      0.570300
      4 C4         -4.4400   -0.8770   -0.5200 ce        1 HCY     -0.264200
      5 C5         -3.3800   -0.8210    0.3010 c2        1 HCY     -0.033400
      6 C6         -2.8020   -2.0530    0.9100 c3        1 HCY     -0.055200
      7 C7         -1.4020   -2.2590    0.3600 c3        1 HCY     -0.070400
      8 C8         -0.5300   -1.0260    0.5410 c3        1 HCY     -0.049700
      9 C9         -1.2050    0.2470   -0.0020 c3        1 HCY     -0.037700
     10 C10        -2.6120    0.4460    0.6050 c3        1 HCY     -0.005800
     11 C12         1.1150    1.2260   -0.4900 c3        1 HCY     -0.101400
     12 C11        -0.2810    1.4720    0.1020 c3        1 HCY      0.152100
     13 C13         1.7540   -0.0380    0.0520 c3        1 HCY     -0.024000
     14 C14         0.7760   -1.2040   -0.2090 c3        1 HCY     -0.065700
     15 C15         1.6110   -2.4540    0.0320 c3        1 HCY     -0.070400
     16 C16         3.0070   -2.0840   -0.4750 c3        1 HCY     -0.102400
     17 C17         3.0220   -0.5500   -0.7090 c3        1 HCY      0.048800
     18 C18         2.1260    0.1300    1.5160 c3        1 HCY     -0.110100
     19 C19        -2.5700    0.6570    2.1190 c3        1 HCY     -0.081100
     20 C20         4.3100    0.0940   -0.2010 c         1 HCY      0.547100
     21 C21         4.7080    1.3450   -0.9490 c3        1 HCY      0.035400
     22 O1         -6.0000    0.2990   -1.8780 o         1 HCY     -0.535100
     23 O2         -0.2220    1.8970    1.4570 oh        1 HCY     -0.600800
     24 O3          2.8510   -0.2300   -2.0840 oh        1 HCY     -0.593800
     25 O4          4.9680   -0.3840    0.7210 o         1 HCY     -0.488100
     26 O5          5.6580    2.0520   -0.1750 oh        1 HCY     -0.576800
     27 H4         -4.9930   -1.8170   -0.6860 ha        1 HCY      0.148000
     28 H2C1       -4.4660    2.3570   -1.6970 hc        1 HCY      0.068700
     29 H2C2       -3.1510    1.1780   -2.0990 hc        1 HCY      0.068700
     30 H6C1       -2.7680   -1.9480    2.0270 hc        1 HCY      0.057200
     31 H6C2       -3.4330   -2.9500    0.6760 hc        1 HCY      0.057200
     32 H7C1       -0.9200   -3.1270    0.8830 hc        1 HCY      0.046700
     33 H7C2       -1.4660   -2.5170   -0.7300 hc        1 HCY      0.046700
     34 H8         -0.3230   -0.8910    1.6380 hc        1 HCY      0.070700
     35 H1C1       -2.6240    2.5340   -0.0340 hc        1 HCY      0.053700
     36 H1C2       -4.1540    1.9630    0.7230 hc        1 HCY      0.053700
     37 H191       -3.5830    0.4860    2.5560 hc        1 HCY      0.045033
     38 H192       -1.8460   -0.0340    2.6090 hc        1 HCY      0.045033
     39 H193       -2.2530    1.7050    2.3470 hc        1 HCY      0.045033
     40 H9         -1.3620    0.0960   -1.1120 hc        1 HCY      0.052700
     41 H11        -0.7380    2.3150   -0.4990 h1        1 HCY      0.031700
     42 H14         0.5340   -1.1860   -1.3150 hc        1 HCY      0.058700
     43 H2          0.5420    2.4810    1.5410 ho        1 HCY      0.402000
     44 H121        1.0210    1.1460   -1.6050 hc        1 HCY      0.057700
     45 H122        1.7650    2.1120   -0.2660 hc        1 HCY      0.057700
     46 H181        1.2180    0.2940    2.1450 hc        1 HCY      0.053033
     47 H182        2.6650   -0.7750    1.8910 hc        1 HCY      0.053033
     48 H183        2.8000    1.0140    1.6390 hc        1 HCY      0.053033
     49 H151        1.6380   -2.7150    1.1190 hc        1 HCY      0.050200
     50 H152        1.1960   -3.3310   -0.5220 hc        1 HCY      0.050200
     51 H161        3.7850   -2.3620    0.2790 hc        1 HCY      0.062700
     52 H162        3.2350   -2.6180   -1.4290 hc        1 HCY      0.062700
     53 H3          3.4510   -0.7960   -2.5850 ho        1 HCY      0.406000
     54 H211        5.1380    1.0410   -1.9420 h1        1 HCY      0.052200
     55 H212        3.7970    1.9800   -1.1250 h1        1 HCY      0.052200
     56 H5          6.0030    2.7520   -0.7430 ho        1 HCY      0.404000
@<TRIPOS>BOND
     1    1    2 1   
     2    1   10 1   
     3    1   35 1   
     4    1   36 1   
     5    2    3 1   
     6    2   28 1   
     7    2   29 1   
     8    3    4 1   
     9    3   22 2   
    10    4    5 2   
    11    4   27 1   
    12    5    6 1   
    13    5   10 1   
    14    6    7 1   
    15    6   30 1   
    16    6   31 1   
    17    7    8 1   
    18    7   32 1   
    19    7   33 1   
    20    8    9 1   
    21    8   14 1   
    22    8   34 1   
    23    9   10 1   
    24    9   12 1   
    25    9   40 1   
    26   10   19 1   
    27   11   12 1   
    28   11   13 1   
    29   11   44 1   
    30   11   45 1   
    31   12   23 1   
    32   12   41 1   
    33   13   14 1   
    34   13   17 1   
    35   13   18 1   
    36   14   15 1   
    37   14   42 1   
    38   15   16 1   
    39   15   49 1   
    40   15   50 1   
    41   16   17 1   
    42   16   51 1   
    43   16   52 1   
    44   17   20 1   
    45   17   24 1   
    46   18   46 1   
    47   18   47 1   
    48   18   48 1   
    49   19   37 1   
    50   19   38 1   
    51   19   39 1   
    52   20   21 1   
    53   20   25 2   
    54   21   26 1   
    55   21   54 1   
    56   21   55 1   
    57   23   43 1   
    58   24   53 1   
    59   26   56 1   
@<TRIPOS>SUBSTRUCTURE
     1 HCY         1 TEMP              0 ****  ****    0 ROOT
