@<TRIPOS>MOLECULE
HCY
   56    59     1     0     0
SMALL
bcc


@<TRIPOS>ATOM
      1 C1          0.0690   -0.1070    0.1550 c3        1 HCY     -0.072400
      2 C2          1.4810    0.2410   -0.2540 c3        1 HCY     -0.183400
      3 C3          2.3190    0.5360    0.9590 c         1 HCY      0.570300
      4 C4          1.6550    1.3720    1.9680 ce        1 HCY     -0.264200
      5 C5          0.3330    1.6080    1.9600 c2        1 HCY     -0.033400
      6 C6         -0.2810    2.6150    2.8710 c3        1 HCY     -0.055200
      7 C7         -0.8470    3.7490    2.0360 c3        1 HCY     -0.070400
      8 C8         -1.7950    3.2470    0.9570 c3        1 HCY     -0.049700
      9 C9         -1.1650    2.1310    0.1040 c3        1 HCY     -0.037700
     10 C10        -0.6340    0.9770    0.9840 c3        1 HCY     -0.005800
     11 C12        -2.6220    2.8690   -1.8730 c3        1 HCY     -0.101400
     12 C11        -2.0950    1.6920   -1.0390 c3        1 HCY      0.152100
     13 C13        -3.2280    3.9600   -1.0100 c3        1 HCY     -0.024000
     14 C14        -2.1600    4.3840    0.0230 c3        1 HCY     -0.065700
     15 C15        -2.6980    5.6840    0.6030 c3        1 HCY     -0.070400
     16 C16        -3.3890    6.3720   -0.5770 c3        1 HCY     -0.102400
     17 C17        -3.5020    5.3280   -1.7190 c3        1 HCY      0.048800
     18 C18        -4.5310    3.4900   -0.3840 c3        1 HCY     -0.110100
     19 C19        -1.7470    0.2740    1.7600 c3        1 HCY     -0.081100
     20 C20        -4.8670    5.3710   -2.4030 c         1 HCY      0.547100
     21 C21        -4.8430    4.9410   -3.8510 c3        1 HCY      0.035400
     22 O1          3.4860    0.1440    1.0730 o         1 HCY     -0.535100
     23 O2         -3.1480    0.9000   -0.5050 oh        1 HCY     -0.600800
     24 O3         -2.4840    5.5110   -2.6970 oh        1 HCY     -0.593800
     25 O4         -5.8840    5.7440   -1.8220 o         1 HCY     -0.488100
     26 O5         -6.1650    4.6510   -4.2590 oh        1 HCY     -0.576800
     27 H4          2.3180    1.8270    2.7210 ha        1 HCY      0.148000
     28 H2C1        1.4900    1.1500   -0.9140 hc        1 HCY      0.068700
     29 H2C2        1.9310   -0.6060   -0.8360 hc        1 HCY      0.068700
     30 H6C1        0.4770    3.0220    3.5910 hc        1 HCY      0.057200
     31 H6C2       -1.0960    2.1360    3.4770 hc        1 HCY      0.057200
     32 H7C1       -1.3970    4.4650    2.7010 hc        1 HCY      0.046700
     33 H7C2       -0.0030    4.3150    1.5590 hc        1 HCY      0.046700
     34 H8         -2.7230    2.8490    1.4530 hc        1 HCY      0.070700
     35 H1C1        0.1060   -1.0490    0.7700 hc        1 HCY      0.053700
     36 H1C2       -0.5410   -0.3430   -0.7540 hc        1 HCY      0.053700
     37 H191       -1.3100   -0.3230    2.5970 hc        1 HCY      0.045033
     38 H192       -2.3070   -0.4150    1.0810 hc        1 HCY      0.045033
     39 H193       -2.4750    1.0040    2.1830 hc        1 HCY      0.045033
     40 H9         -0.2610    2.5730   -0.4120 hc        1 HCY      0.052700
     41 H11        -1.5040    1.0380   -1.7490 h1        1 HCY      0.031700
     42 H14        -1.2290    4.6510   -0.5610 hc        1 HCY      0.058700
     43 H2         -3.8410    0.8560   -1.1750 ho        1 HCY      0.402000
     44 H121       -3.3840    2.4860   -2.6010 hc        1 HCY      0.057700
     45 H122       -1.7700    3.2960   -2.4660 hc        1 HCY      0.057700
     46 H181       -5.0120    4.3210    0.1890 hc        1 HCY      0.053033
     47 H182       -4.3580    2.6300    0.3060 hc        1 HCY      0.053033
     48 H183       -5.2390    3.1600   -1.1830 hc        1 HCY      0.053033
     49 H151       -3.4250    5.4850    1.4290 hc        1 HCY      0.050200
     50 H152       -1.8730    6.3150    1.0150 hc        1 HCY      0.050200
     51 H161       -4.4090    6.7260   -0.2830 hc        1 HCY      0.062700
     52 H162       -2.7970    7.2540   -0.9230 hc        1 HCY      0.062700
     53 H3         -2.4610    6.4520   -2.9100 ho        1 HCY      0.406000
     54 H211       -4.1920    4.0310   -3.9600 h1        1 HCY      0.052200
     55 H212       -4.4040    5.7780   -4.4600 h1        1 HCY      0.052200
     56 H5         -6.1350    4.5340   -5.2160 ho        1 HCY      0.404000
@<TRIPOS>BOND
     1    1    2 1   
     2    1   10 1   
     3    1   35 1   
     4    1   36 1   
     5    2    3 1   
     6    2   28 1   
     7    2   29 1   
     8    3    4 1   
     9    3   22 2   
    10    4    5 2   
    11    4   27 1   
    12    5    6 1   
    13    5   10 1   
    14    6    7 1   
    15    6   30 1   
    16    6   31 1   
    17    7    8 1   
    18    7   32 1   
    19    7   33 1   
    20    8    9 1   
    21    8   14 1   
    22    8   34 1   
    23    9   10 1   
    24    9   12 1   
    25    9   40 1   
    26   10   19 1   
    27   11   12 1   
    28   11   13 1   
    29   11   44 1   
    30   11   45 1   
    31   12   23 1   
    32   12   41 1   
    33   13   14 1   
    34   13   17 1   
    35   13   18 1   
    36   14   15 1   
    37   14   42 1   
    38   15   16 1   
    39   15   49 1   
    40   15   50 1   
    41   16   17 1   
    42   16   51 1   
    43   16   52 1   
    44   17   20 1   
    45   17   24 1   
    46   18   46 1   
    47   18   47 1   
    48   18   48 1   
    49   19   37 1   
    50   19   38 1   
    51   19   39 1   
    52   20   21 1   
    53   20   25 2   
    54   21   26 1   
    55   21   54 1   
    56   21   55 1   
    57   23   43 1   
    58   24   53 1   
    59   26   56 1   
@<TRIPOS>SUBSTRUCTURE
     1 HCY         1 TEMP              0 ****  ****    0 ROOT
