@<TRIPOS>MOLECULE
HCY
   56    57     1     0     0
SMALL
bcc


@<TRIPOS>ATOM
      1 C1          0.8250   -3.5400    0.5340 c3        1 HCY     -0.151000
      2 C2          2.3010   -3.5500    0.5330 c3        1 HCY     -0.212000
      3 C3          2.9040   -3.5450    1.9940 c1        1 HCY      0.262000
      4 C4          2.0120   -2.8680    3.1880 c1        1 HCY     -0.244000
      5 C5          0.5820   -2.3570    2.8060 c1        1 HCY     -0.027000
      6 C6         -0.0780   -1.0990    3.5810 c2        1 HCY     -0.138000
      7 C7          0.1850    0.2350    2.7100 c3        1 HCY     -0.149000
      8 C8         -0.2400    0.0860    1.2510 c3        1 HCY     -0.089000
      9 C9          0.3950   -1.1680    0.5510 c3        1 HCY     -0.076000
     10 C10         0.1580   -2.4760    1.3110 c3        1 HCY     -0.010000
     11 C12         0.1910    0.0530   -1.8190 c3        1 HCY     -0.180000
     12 C11        -0.0530   -1.3050   -0.9970 c3        1 HCY      0.040000
     13 C13        -0.4240    1.2500   -1.1250 c3        1 HCY     -0.025000
     14 C14         0.0220    1.3750    0.4620 c3        1 HCY     -0.104000
     15 C15        -0.6900    2.3960    0.8650 c3        1 HCY     -0.149000
     16 C16        -0.5360    3.4300   -0.3550 c3        1 HCY     -0.182000
     17 C17        -0.0290    2.4160   -1.6230 c3        1 HCY      0.036000
     18 C18        -1.9310    1.1550   -1.2120 c3        1 HCY     -0.226000
     19 C19        -1.3280   -2.7570    1.2840 c3        1 HCY     -0.199000
     20 C20        -0.6780    2.7460   -2.9390 c2        1 HCY      0.177000
     21 C21        -0.3600    4.0500   -3.6330 c3        1 HCY     -0.065000
     22 O1          3.8300   -4.2810    2.2710 o         1 HCY     -0.294000
     23 O2         -1.3320   -1.6130   -1.0480 oh        1 HCY     -0.327000
     24 O3          1.3410    2.4940   -1.9320 oh        1 HCY     -0.317000
     25 O4         -1.4690    1.9700   -3.4380 o         1 HCY     -0.286000
     26 O5         -1.2950    4.2740   -4.6650 oh        1 HCY     -0.315000
     27 H4          2.2350   -3.0410    4.1230 ha        1 HCY      0.148000
     28 H2C1        2.6860   -2.8260   -0.0020 hc        1 HCY      0.108500
     29 H2C2        2.6160   -4.3300    0.0360 hc        1 HCY      0.108500
     30 H6C1       -0.9990   -1.1540    3.9100 ha        1 HCY      0.096500
     31 H6C2        0.4030   -1.0380    4.4300 ha        1 HCY      0.096500
     32 H7C1       -0.3140    0.9750    3.1090 hc        1 HCY      0.086000
     33 H7C2        1.1390    0.4460    2.7390 hc        1 HCY      0.086000
     34 H8         -1.2060   -0.0520    1.2520 hc        1 HCY      0.109000
     35 H1C1        0.5200   -4.4020    0.8820 hc        1 HCY      0.093000
     36 H1C2        0.5260   -3.4660   -0.3940 hc        1 HCY      0.093000
     37 H191       -1.5700   -3.1540    0.4210 hc        1 HCY      0.084333
     38 H192       -1.8210   -1.9210    1.4080 hc        1 HCY      0.084333
     39 H193       -1.5560   -3.3810    2.0050 hc        1 HCY      0.084333
     40 H9          1.3600   -1.0220    0.5480 hc        1 HCY      0.093000
     41 H11         0.4620   -2.0240   -1.4140 h1        1 HCY      0.072000
     42 H14         0.9720    1.6010    0.5160 hc        1 HCY      0.100000
     43 H2         -1.5000   -2.0600   -1.8000 ho        1 HCY      0.199000
     44 H121        1.1530    0.2000   -1.9120 hc        1 HCY      0.097500
     45 H122       -0.2050   -0.0370   -2.7090 hc        1 HCY      0.097500
     46 H181       -2.2800    0.7370   -0.3980 hc        1 HCY      0.089667
     47 H182       -2.3100    2.0550   -1.3050 hc        1 HCY      0.089667
     48 H183       -2.1800    0.6140   -1.9900 hc        1 HCY      0.089667
     49 H151       -1.6280    2.1390    0.9870 hc        1 HCY      0.089500
     50 H152       -0.3200    2.7740    1.6900 hc        1 HCY      0.089500
     51 H161        0.1430    4.1050   -0.1560 hc        1 HCY      0.103500
     52 H162       -1.3940    3.8490   -0.5660 hc        1 HCY      0.103500
     53 H3          1.6320    3.3200   -1.7810 ho        1 HCY      0.208000
     54 H211        0.5420    4.0050   -4.0130 h1        1 HCY      0.115000
     55 H212       -0.4050    4.7840   -2.9850 h1        1 HCY      0.115000
     56 H5         -1.0070    4.9340   -5.1870 ho        1 HCY      0.217000
@<TRIPOS>BOND
     1    1    2 1   
     2    1   10 1   
     3    1   35 1   
     4    1   36 1   
     5    2    3 1   
     6    2   28 1   
     7    2   29 1   
     8    3   22 1   
     9    4    5 1   
    10    4   27 1   
    11    5   10 1   
    12    6    7 1   
    13    6   30 1   
    14    6   31 1   
    15    7    8 1   
    16    7   32 1   
    17    7   33 1   
    18    8    9 1   
    19    8   14 1   
    20    8   34 1   
    21    9   10 1   
    22    9   12 1   
    23    9   40 1   
    24   10   19 1   
    25   11   12 1   
    26   11   13 1   
    27   11   44 1   
    28   11   45 1   
    29   12   23 1   
    30   12   41 1   
    31   13   14 1   
    32   13   17 1   
    33   13   18 1   
    34   14   15 1   
    35   14   42 1   
    36   15   16 1   
    37   15   49 1   
    38   15   50 1   
    39   16   17 1   
    40   16   51 1   
    41   16   52 1   
    42   17   20 1   
    43   17   24 1   
    44   18   46 1   
    45   18   47 1   
    46   18   48 1   
    47   19   37 1   
    48   19   38 1   
    49   19   39 1   
    50   20   21 1   
    51   20   25 1   
    52   21   26 1   
    53   21   54 1   
    54   21   55 1   
    55   23   43 1   
    56   24   53 1   
    57   26   56 1   
@<TRIPOS>SUBSTRUCTURE
     1 HCY         1 TEMP              0 ****  ****    0 ROOT
