@<TRIPOS>MOLECULE
HCZ
   26    27     1     0     0
SMALL
bcc


@<TRIPOS>ATOM
      1 N01         0.1030    0.0050    0.0280 nz        1 HCZ     -0.784500
      2 S02         2.0220    0.0260   -0.1090 sy        1 HCZ      1.505200
      3 O03         2.3560   -0.0680    1.2280 o         1 HCZ     -0.568800
      4 O04         2.2040   -1.0490   -0.9470 o         1 HCZ     -0.568800
      5 C05         2.1880    1.4850   -0.7190 ca        1 HCZ     -0.645500
      6 C06         2.8400    2.4730    0.0620 ca        1 HCZ      0.172000
      7 C07         3.1570    3.7340   -0.3890 ca        1 HCZ     -0.447500
      8 C08         2.8490    4.0870   -1.7470 ca        1 HCZ      0.384600
      9 C09         2.1330    3.1270   -2.5470 ca        1 HCZ     -0.229000
     10 C10         1.8120    1.8990   -2.0340 ca        1 HCZ      0.201400
     11 Cl11        0.8990    0.8360   -2.9950 cl        1 HCZ     -0.043400
     12 N12         3.2080    5.2800   -2.2670 nu        1 HCZ     -0.739600
     13 C13         3.9090    6.3170   -1.4920 c3        1 HCZ      0.497000
     14 N14         4.6410    5.8050   -0.3720 n7        1 HCZ     -0.911100
     15 S15         3.9120    4.8330    0.7040 sy        1 HCZ      1.527200
     16 O16         2.8900    5.4910    1.3850 o         1 HCZ     -0.620300
     17 O17         4.8490    4.1200    1.4540 o         1 HCZ     -0.620300
     18 HN01       -0.2820   -0.7630   -0.5180 hn        1 HCZ      0.454467
     19 HN0A       -0.3170    0.8670   -0.3030 hn        1 HCZ      0.454467
     20 H06         3.1310    2.2030    1.1060 ha        1 HCZ      0.190000
     21 H09         1.8390    3.3940   -3.5780 ha        1 HCZ      0.181000
     22 HN12        2.9990    5.4950   -3.2180 hn        1 HCZ      0.476800
     23 H13         3.1130    7.0430   -1.1240 h2        1 HCZ      0.098700
     24 H13A        4.6030    6.8590   -2.2040 h2        1 HCZ      0.098700
     25 HN14        5.6210    5.9680   -0.3910 hn        1 HCZ      0.482800
     26 H013       -0.1770   -0.1290    0.9980 hn        1 HCZ      0.454467
@<TRIPOS>BOND
     1    1    2 1   
     2    1   18 1   
     3    1   19 1   
     4    1   26 1   
     5    2    3 2   
     6    2    4 2   
     7    2    5 1   
     8    5    6 ar  
     9    5   10 ar  
    10    6    7 ar  
    11    6   20 1   
    12    7    8 ar  
    13    7   15 1   
    14    8    9 ar  
    15    8   12 1   
    16    9   10 ar  
    17    9   21 1   
    18   10   11 1   
    19   12   13 1   
    20   12   22 1   
    21   13   14 1   
    22   13   23 1   
    23   13   24 1   
    24   14   15 1   
    25   14   25 1   
    26   15   16 2   
    27   15   17 2   
@<TRIPOS>SUBSTRUCTURE
     1 HCZ         1 TEMP              0 ****  ****    0 ROOT
