@<TRIPOS>MOLECULE
HCZ
   26    27     1     0     0
SMALL
bcc


@<TRIPOS>ATOM
      1 N01         0.1140   -0.0040    0.0300 n4        1 HCZ     -0.784500
      2 S02         2.0320    0.0220   -0.1220 sy        1 HCZ      1.505200
      3 O03         2.3760   -0.0800    1.2120 o         1 HCZ     -0.568800
      4 O04         2.2100   -1.0490   -0.9670 o         1 HCZ     -0.568800
      5 C05         2.1910    1.4840   -0.7250 ca        1 HCZ     -0.645500
      6 C06         2.8460    2.4690    0.0570 ca        1 HCZ      0.172000
      7 C07         3.1590    3.7330   -0.3900 ca        1 HCZ     -0.447500
      8 C08         2.8390    4.0930   -1.7430 ca        1 HCZ      0.384600
      9 C09         2.1190    3.1370   -2.5430 ca        1 HCZ     -0.229000
     10 C10         1.8040    1.9050   -2.0350 ca        1 HCZ      0.201400
     11 CL11        0.8860    0.8460   -2.9940 cl        1 HCZ     -0.043400
     12 N12         3.1920    5.2900   -2.2590 nh        1 HCZ     -0.739600
     13 C13         3.8980    6.3240   -1.4840 c3        1 HCZ      0.497000
     14 N14         4.6380    5.8060   -0.3720 n3        1 HCZ     -0.911100
     15 S15         3.9190    4.8270    0.7040 sy        1 HCZ      1.527200
     16 O16         2.9010    5.4800    1.3960 o         1 HCZ     -0.620300
     17 O17         4.8630    4.1120    1.4420 o         1 HCZ     -0.620300
     18 HN01       -0.1590   -0.1430    1.0010 hn        1 HCZ      0.454467
     19 HN0A       -0.2740   -0.7700   -0.5180 hn        1 HCZ      0.454467
     20 H06         3.1460    2.1930    1.0970 ha        1 HCZ      0.190000
     21 H09         1.8160    3.4090   -3.5700 ha        1 HCZ      0.181000
     22 HN12        2.9760    5.5090   -3.2080 hn        1 HCZ      0.476800
     23 H13         3.1030    7.0460   -1.1050 h2        1 HCZ      0.098700
     24 H13A        4.5850    6.8710   -2.1980 h2        1 HCZ      0.098700
     25 HN14        5.6180    5.9720   -0.3980 hn        1 HCZ      0.482800
     26 H013       -0.3100    0.8600   -0.2940 hn        1 HCZ      0.454467
@<TRIPOS>BOND
     1    1    2 1   
     2    1   18 1   
     3    1   19 1   
     4    1   26 1   
     5    2    3 2   
     6    2    4 2   
     7    2    5 1   
     8    5    6 ar  
     9    5   10 ar  
    10    6    7 ar  
    11    6   20 1   
    12    7    8 ar  
    13    7   15 1   
    14    8    9 ar  
    15    8   12 1   
    16    9   10 ar  
    17    9   21 1   
    18   10   11 1   
    19   12   13 1   
    20   12   22 1   
    21   13   14 1   
    22   13   23 1   
    23   13   24 1   
    24   14   15 1   
    25   14   25 1   
    26   15   16 2   
    27   15   17 2   
@<TRIPOS>SUBSTRUCTURE
     1 HCZ         1 TEMP              0 ****  ****    0 ROOT
