@<TRIPOS>MOLECULE
HCZ
   25    23     1     0     0
SMALL
bcc


@<TRIPOS>ATOM
      1 N01        -0.5000   -3.9690    1.4720 n3        1 HCZ     -0.953000
      2 S02        -1.6140   -2.7560    1.2510 s4        1 HCZ      2.087800
      3 O03        -2.8630   -3.2770    0.5830 o         1 HCZ     -0.539900
      4 O04        -2.1410   -2.2880    2.5240 o         1 HCZ     -0.539900
      5 C05        -0.9160   -1.4530    0.3330 c1        1 HCZ     -0.886000
      6 C06        -0.3460   -0.3370    0.9950 c1        1 HCZ      0.137000
      7 C07         0.1590    0.7200    0.2540 c1        1 HCZ     -0.927000
      8 C08         0.1030    0.6790   -1.1930 c1        1 HCZ      0.273000
      9 C09        -0.4430   -0.3910   -1.8200 c1        1 HCZ     -0.255000
     10 C10        -0.9660   -1.4860   -1.0520 c2        1 HCZ      0.137000
     11 CL11       -1.6390   -2.8560   -1.8540 cl        1 HCZ      0.007000
     12 N12         0.6550    1.9320   -2.0040 n3        1 HCZ     -0.358000
     13 C13         1.0790    3.1080   -1.2510 c3        1 HCZ      0.116000
     14 N14         1.6970    2.9010   -0.0320 n3        1 HCZ     -0.886000
     15 S15         0.9900    2.0330    0.9910 s6        1 HCZ      2.873000
     16 O16         0.0350    2.8570    1.7810 o         1 HCZ     -0.922000
     17 O17         2.0280    1.4650    1.9120 o         1 HCZ     -0.922000
     18 HN01       -0.1790   -4.4600    0.7250 hn        1 HCZ      0.245500
     19 HN0A       -0.1320   -4.1160    2.3210 hn        1 HCZ      0.245500
     20 H06        -0.2470   -0.3410    2.0410 ha        1 HCZ      0.185000
     21 H09        -0.4780   -0.4150   -2.7470 ha        1 HCZ      0.156000
     22 HN12        1.3150    1.6700   -2.5460 hn        1 HCZ      0.250000
     23 H13         0.2780    3.6700   -1.0900 h2        1 HCZ      0.110000
     24 H13A        1.7190    3.6340   -1.8370 h2        1 HCZ      0.110000
     25 HN14        2.4040    3.4780    0.2440 hn        1 HCZ      0.256000
@<TRIPOS>BOND
     1    1    2 1   
     2    1   18 1   
     3    1   19 1   
     4    2    3 1   
     5    2    4 1   
     6    5    6 1   
     7    5   10 1   
     8    6   20 1   
     9    7    8 1   
    10    7   15 1   
    11    8   12 1   
    12    9   10 1   
    13    9   21 1   
    14   10   11 1   
    15   12   13 1   
    16   12   22 1   
    17   13   14 1   
    18   13   23 1   
    19   13   24 1   
    20   14   15 1   
    21   14   25 1   
    22   15   16 1   
    23   15   17 1   
@<TRIPOS>SUBSTRUCTURE
     1 HCZ         1 TEMP              0 ****  ****    0 ROOT
