@<TRIPOS>MOLECULE
HCZ
   25    26     1     0     0
SMALL
bcc


@<TRIPOS>ATOM
      1 N01         3.4190    0.7470    1.1660 n3        1 HCZ     -1.026700
      2 S02         2.5790    1.1170   -0.1420 sy        1 HCZ      1.532200
      3 O03         2.1430    2.4570   -0.0580 o         1 HCZ     -0.652800
      4 O04         3.3000    0.7530   -1.2930 o         1 HCZ     -0.652800
      5 C05         1.1930    0.1350   -0.0150 ca        1 HCZ     -0.440500
      6 C06        -0.0570    0.7550    0.0030 ca        1 HCZ      0.136000
      7 C07        -1.2660    0.0600    0.0700 ca        1 HCZ     -0.482500
      8 C08        -1.2260   -1.3640    0.1100 ca        1 HCZ      0.352600
      9 C09         0.0390   -2.0190    0.0880 ca        1 HCZ     -0.254000
     10 C10         1.2020   -1.2730    0.0380 ca        1 HCZ      0.214400
     11 CL11        2.6820   -2.1140    0.0430 cl        1 HCZ     -0.072400
     12 N12        -2.3750   -2.1090    0.1830 nh        1 HCZ     -0.800600
     13 C13        -3.7040   -1.5030    0.1980 c3        1 HCZ      0.509000
     14 N14        -3.7590   -0.1930   -0.3840 n3        1 HCZ     -0.912100
     15 S15        -2.6990    0.9530    0.0960 sy        1 HCZ      1.534200
     16 O16        -2.9700    1.3540    1.4100 o         1 HCZ     -0.642800
     17 O17        -2.6580    1.9720   -0.8690 o         1 HCZ     -0.642800
     18 HN01        3.3040    1.2040    2.0350 hn        1 HCZ      0.450800
     19 HN0A        4.1210    0.0500    1.1880 hn        1 HCZ      0.450800
     20 H06        -0.0930    1.8670   -0.0510 ha        1 HCZ      0.186000
     21 H09         0.0880   -3.1190    0.1160 ha        1 HCZ      0.156000
     22 HN12       -2.3210   -3.0940    0.0820 hn        1 HCZ      0.453800
     23 H13        -4.4130   -2.2030   -0.3380 h2        1 HCZ      0.070700
     24 H13A       -4.0210   -1.4290    1.2890 h2        1 HCZ      0.070700
     25 HN14       -4.3240   -0.1060   -1.1930 hn        1 HCZ      0.462800
@<TRIPOS>BOND
     1    1    2 1   
     2    1   18 1   
     3    1   19 1   
     4    2    3 2   
     5    2    4 2   
     6    2    5 1   
     7    5    6 ar  
     8    5   10 ar  
     9    6    7 ar  
    10    6   20 1   
    11    7    8 ar  
    12    7   15 1   
    13    8    9 ar  
    14    8   12 1   
    15    9   10 ar  
    16    9   21 1   
    17   10   11 1   
    18   12   13 1   
    19   12   22 1   
    20   13   14 1   
    21   13   23 1   
    22   13   24 1   
    23   14   15 1   
    24   14   25 1   
    25   15   16 2   
    26   15   17 2   
@<TRIPOS>SUBSTRUCTURE
     1 HCZ         1 TEMP              0 ****  ****    0 ROOT
