@<TRIPOS>MOLECULE
HCZ
   26    27     1     0     0
SMALL
bcc


@<TRIPOS>ATOM
      1 N01         0.1100   -0.0030    0.0190 n4        1 HCZ     -0.784500
      2 S02         2.0280    0.0210   -0.1270 sy        1 HCZ      1.505200
      3 O03         2.3690   -0.0810    1.2080 o         1 HCZ     -0.568800
      4 O04         2.2080   -1.0490   -0.9720 o         1 HCZ     -0.568800
      5 C05         2.1900    1.4840   -0.7280 ca        1 HCZ     -0.645500
      6 C06         2.8440    2.4680    0.0570 ca        1 HCZ      0.172000
      7 C07         3.1590    3.7320   -0.3880 ca        1 HCZ     -0.447500
      8 C08         2.8440    4.0930   -1.7420 ca        1 HCZ      0.384600
      9 C09         2.1250    3.1380   -2.5450 ca        1 HCZ     -0.229000
     10 C10         1.8080    1.9060   -2.0390 ca        1 HCZ      0.201400
     11 CL11        0.8920    0.8480   -3.0020 cl        1 HCZ     -0.043400
     12 N12         3.2000    5.2900   -2.2550 nh        1 HCZ     -0.739600
     13 C13         3.9030    6.3230   -1.4770 c3        1 HCZ      0.497000
     14 N14         4.6400    5.8040   -0.3630 n3        1 HCZ     -0.911100
     15 S15         3.9170    4.8250    0.7090 sy        1 HCZ      1.527200
     16 O16         2.8970    5.4780    1.3990 o         1 HCZ     -0.620300
     17 O17         4.8570    4.1080    1.4500 o         1 HCZ     -0.620300
     18 HN01       -0.2770   -0.7680   -0.5300 hn        1 HCZ      0.454467
     19 HN0A       -0.1660   -0.1430    0.9900 hn        1 HCZ      0.454467
     20 H06         3.1410    2.1910    1.0970 ha        1 HCZ      0.190000
     21 H09         1.8260    3.4110   -3.5720 ha        1 HCZ      0.181000
     22 HN12        2.9860    5.5110   -3.2050 hn        1 HCZ      0.476800
     23 H13         4.5930    6.8700   -2.1890 h2        1 HCZ      0.098700
     24 H13A        3.1080    7.0460   -1.1010 h2        1 HCZ      0.098700
     25 HN14        5.6200    5.9690   -0.3860 hn        1 HCZ      0.482800
     26 H013       -0.3120    0.8610   -0.3050 hn        1 HCZ      0.454467
@<TRIPOS>BOND
     1    1    2 1   
     2    1   18 1   
     3    1   19 1   
     4    1   26 1   
     5    2    3 2   
     6    2    4 2   
     7    2    5 1   
     8    5    6 ar  
     9    5   10 ar  
    10    6    7 ar  
    11    6   20 1   
    12    7    8 ar  
    13    7   15 1   
    14    8    9 ar  
    15    8   12 1   
    16    9   10 ar  
    17    9   21 1   
    18   10   11 1   
    19   12   13 1   
    20   12   22 1   
    21   13   14 1   
    22   13   23 1   
    23   13   24 1   
    24   14   15 1   
    25   14   25 1   
    26   15   16 2   
    27   15   17 2   
@<TRIPOS>SUBSTRUCTURE
     1 HCZ         1 TEMP              0 ****  ****    0 ROOT
