@<TRIPOS>MOLECULE
HD1
   67    68     1     0     0
SMALL
bcc


@<TRIPOS>ATOM
      1 O1         -2.2300    1.6640    1.3540 o         1 HD1     -0.441000
      2 C14        -1.2460    0.9320    1.3130 c1        1 HD1      0.374000
      3 N4         -1.0380   -0.0770    2.3550 n2        1 HD1     -0.345000
      4 C15        -1.8690   -0.1920    3.2890 c3        1 HD1      0.023000
      5 C20        -2.2000   -1.7370    3.5360 c3        1 HD1     -0.390000
      6 C19        -0.9140   -2.5210    4.0130 c3        1 HD1     -0.082000
      7 C21        -2.8310   -1.4770    4.4180 c3        1 HD1     -0.080000
      8 C22        -2.4260   -0.3240    4.3970 c3        1 HD1      0.044000
      9 C23        -0.0390   -0.8680    3.3630 c3        1 HD1     -0.137000
     10 C18         0.2590   -1.4920    4.2260 c3        1 HD1     -0.124000
     11 C17         0.0210   -0.3450    5.2390 c3        1 HD1     -0.082000
     12 O2         -3.1720    0.5030    3.5680 oh        1 HD1     -0.148000
     13 C24        -2.0460    0.1880    5.2930 c3        1 HD1     -0.080000
     14 C16        -1.2020    0.4690    4.7830 c3        1 HD1     -0.390000
     15 C5         -0.2880    0.9880    0.0950 c2        1 HD1     -0.224000
     16 C6          1.0450    1.2330    0.2880 c2        1 HD1     -0.005000
     17 C7          1.9010    1.3040   -0.7940 c1        1 HD1     -0.230000
     18 C8          1.4120    1.1280   -2.0760 c1        1 HD1      0.158000
     19 N2          2.3560    1.0660   -3.2310 n3        1 HD1     -0.228000
     20 C12         3.1690   -0.1050   -3.1250 c3        1 HD1     -0.046500
     21 C11         4.2510   -0.1570   -4.1970 c3        1 HD1     -0.074500
     22 N3          5.0160    1.0490   -4.2520 n3        1 HD1     -0.258000
     23 C13         5.9290    1.0010   -5.3560 c3        1 HD1     -0.120000
     24 C10         4.2010    2.2090   -4.3580 c3        1 HD1     -0.074500
     25 C9          3.1200    2.2600   -3.2880 c3        1 HD1     -0.046500
     26 N1          0.0640    0.8800   -2.2720 n1        1 HD1     -0.230000
     27 C4         -0.7840    0.8100   -1.1960 c1        1 HD1     -0.086000
     28 S1         -2.5230    0.5220   -1.4500 ss        1 HD1      0.223000
     29 C3         -2.7680   -0.4160   -2.9810 c3        1 HD1     -0.276000
     30 C2         -4.2010   -0.4680   -3.2970 c3        1 HD1     -0.157000
     31 C1         -4.4620   -1.5870   -4.3310 c3        1 HD1     -0.208000
     32 H4         -0.3730   -0.7220    2.2450 hn        1 HD1      0.237000
     33 H15        -2.6350    0.2550    3.0720 h1        1 HD1      0.314000
     34 H20        -2.6980   -2.1600    2.8000 hc        1 HD1      0.100000
     35 H16        -1.0620    1.4360    4.7570 hc        1 HD1      0.100000
     36 H191       -1.1100   -2.9960    4.8830 hc        1 HD1      0.063250
     37 H192       -0.6520   -3.1870    3.3180 hc        1 HD1      0.063250
     38 H211       -3.7930   -1.5440    4.2280 hc        1 HD1      0.078000
     39 H212       -2.5660   -1.9460    5.2100 hc        1 HD1      0.078000
     40 H18         1.1800   -1.8470    4.1620 hc        1 HD1      0.078000
     41 H231       -0.1000   -1.3580    2.5770 hc        1 HD1      0.094500
     42 H232        0.5360   -0.0390    3.2680 hc        1 HD1      0.094500
     43 H2         -4.0420    0.4650    3.8070 ho        1 HD1      0.254000
     44 H241       -2.6170    0.9760    5.5660 hc        1 HD1      0.078000
     45 H242       -1.8570   -0.4300    6.0300 hc        1 HD1      0.078000
     46 H171       -0.1470   -0.7210    6.1310 hc        1 HD1      0.063250
     47 H172        0.8150    0.2410    5.2690 hc        1 HD1      0.063250
     48 H6          1.3850    1.3560    1.1760 ha        1 HD1      0.163000
     49 H7          2.8130    1.4740   -0.6580 ha        1 HD1      0.155000
     50 H121        2.5870   -0.9100   -3.2110 h1        1 HD1      0.092500
     51 H122        3.6110   -0.1160   -2.2170 h1        1 HD1      0.092500
     52 H91C        3.5400    2.4040   -2.4210 h1        1 HD1      0.092500
     53 H92C        2.5260    3.0050   -3.4770 h1        1 HD1      0.092500
     54 H111        3.8230   -0.3050   -5.0740 h1        1 HD1      0.081500
     55 H112        4.8320   -0.8830   -4.0100 h1        1 HD1      0.081500
     56 H131        6.5400    0.2520   -5.2410 h1        1 HD1      0.074667
     57 H132        6.4390    1.8370   -5.3900 h1        1 HD1      0.074667
     58 H133        5.4190    0.8890   -6.2040 h1        1 HD1      0.074667
     59 H101        3.7610    2.2140   -5.2580 h1        1 HD1      0.081500
     60 H102        4.7720    3.0080   -4.2760 h1        1 HD1      0.081500
     61 H31C       -2.2810    0.0280   -3.7240 h1        1 HD1      0.120000
     62 H32C       -2.4140   -1.3630   -2.8600 h1        1 HD1      0.120000
     63 H21C       -4.7120   -0.6570   -2.4720 hc        1 HD1      0.092500
     64 H22C       -4.4800    0.3770   -3.6600 hc        1 HD1      0.092500
     65 H11C       -5.4420   -1.7300   -4.4220 hc        1 HD1      0.078667
     66 H12C       -4.0310   -2.4280   -4.0240 hc        1 HD1      0.078667
     67 H13C       -4.0760   -1.3170   -5.2260 hc        1 HD1      0.078667
@<TRIPOS>BOND
     1    1    2 1   
     2    2   15 1   
     3    3    4 1   
     4    3   32 1   
     5    4    5 1   
     6    4   14 1   
     7    4   33 1   
     8    5    6 1   
     9    5    7 1   
    10    5   34 1   
    11    6   10 1   
    12    6   36 1   
    13    6   37 1   
    14    7    8 1   
    15    7   38 1   
    16    7   39 1   
    17    8    9 1   
    18    8   12 1   
    19    8   13 1   
    20    9   10 1   
    21    9   41 1   
    22    9   42 1   
    23   10   11 1   
    24   10   40 1   
    25   11   14 1   
    26   11   46 1   
    27   11   47 1   
    28   12   43 1   
    29   13   14 1   
    30   13   44 1   
    31   13   45 1   
    32   14   35 1   
    33   15   16 1   
    34   15   27 1   
    35   16   17 1   
    36   16   48 1   
    37   17   49 1   
    38   18   19 1   
    39   18   26 1   
    40   19   20 1   
    41   19   25 1   
    42   20   21 1   
    43   20   50 1   
    44   20   51 1   
    45   21   22 1   
    46   21   54 1   
    47   21   55 1   
    48   22   23 1   
    49   22   24 1   
    50   23   56 1   
    51   23   57 1   
    52   23   58 1   
    53   24   25 1   
    54   24   59 1   
    55   24   60 1   
    56   25   52 1   
    57   25   53 1   
    58   27   28 1   
    59   28   29 1   
    60   29   30 1   
    61   29   61 1   
    62   29   62 1   
    63   30   31 1   
    64   30   63 1   
    65   30   64 1   
    66   31   65 1   
    67   31   66 1   
    68   31   67 1   
@<TRIPOS>SUBSTRUCTURE
     1 HD1         1 TEMP              0 ****  ****    0 ROOT
