@<TRIPOS>MOLECULE
HD1
   68    72     1     0     0
SMALL
bcc


@<TRIPOS>ATOM
      1 O1         -0.0730   -0.6260    0.1770 o         1 HD1     -0.463100
      2 C14         1.1400   -0.6480   -0.0200 c         1 HD1      0.576700
      3 N4          1.9940   -0.6020    1.2480 ny        1 HD1     -0.670800
      4 C15         1.2520   -0.1790    2.4830 c3        1 HD1      0.122500
      5 C20         2.0100   -0.5890    3.7650 c3        1 HD1     -0.072700
      6 C19         3.2980    0.2120    3.9140 c3        1 HD1     -0.086900
      7 C21         1.0900   -0.3050    4.9470 c3        1 HD1     -0.085400
      8 C22         0.7680    1.1960    5.0000 c3        1 HD1      0.151800
      9 C23         2.0740    1.9860    5.1600 c3        1 HD1     -0.107400
     10 C18         2.9820    1.7020    3.9700 c3        1 HD1     -0.063700
     11 C17         2.2790    2.1280    2.6860 c3        1 HD1     -0.086900
     12 O2         -0.1420    1.4750    6.0490 oh        1 HD1     -0.575800
     13 C24         0.0650    1.6160    3.7010 c3        1 HD1     -0.085400
     14 C16         0.9850    1.3410    2.5160 c3        1 HD1     -0.072700
     15 C5          1.8650   -0.6990   -1.2580 ca        1 HD1     -0.421900
     16 C6          3.2590   -0.9550   -1.3400 ca        1 HD1     -0.010000
     17 C7          3.9120   -0.9630   -2.5410 ca        1 HD1     -0.315300
     18 C8          3.1640   -0.6880   -3.7600 ca        1 HD1      0.753200
     19 N2          3.7980   -0.5810   -4.9750 nh        1 HD1     -0.718300
     20 C12         3.0150   -0.5430   -6.2010 c3        1 HD1      0.202800
     21 C11         3.7930   -0.0860   -7.4490 c3        1 HD1      0.155800
     22 N3          5.0970   -0.7190   -7.5580 n3        1 HD1     -0.729600
     23 C13         5.7840   -0.3960   -8.7890 c3        1 HD1      0.153100
     24 C10         5.8950   -0.4530   -6.3750 c3        1 HD1      0.155800
     25 C9          5.2080   -0.9140   -5.0730 c3        1 HD1      0.202800
     26 N1          1.8010   -0.5050   -3.6920 nb        1 HD1     -0.791000
     27 C4          1.1710   -0.5110   -2.5030 ca        1 HD1      0.619600
     28 S1         -0.5030   -0.2940   -2.4720 ss        1 HD1     -0.124400
     29 C3         -1.0330   -0.0370   -4.1390 c3        1 HD1     -0.051300
     30 C2         -2.5250    0.1840   -4.0510 c3        1 HD1     -0.079400
     31 C1         -3.1170    0.3920   -5.4230 c3        1 HD1     -0.092100
     32 H4          2.7710    0.0470    1.0920 hn        1 HD1      0.445800
     33 H15         0.2550   -0.7180    2.4580 hx        1 HD1      0.125700
     34 H20         2.2440   -1.6880    3.7410 hc        1 HD1      0.071200
     35 H16         0.4640    1.6510    1.5690 hc        1 HD1      0.071200
     36 H191        4.0000   -0.0020    3.0690 hc        1 HD1      0.052200
     37 H192        3.8140   -0.0980    4.8610 hc        1 HD1      0.052200
     38 H211        0.1380   -0.8890    4.8580 hc        1 HD1      0.075200
     39 H212        1.5970   -0.6190    5.8960 hc        1 HD1      0.075200
     40 H18         3.9380    2.2820    4.0830 hc        1 HD1      0.076700
     41 H231        2.5840    1.6880    6.1120 hc        1 HD1      0.066200
     42 H232        1.8420    3.0800    5.2210 hc        1 HD1      0.066200
     43 H2          0.3170    1.3000    6.8800 ho        1 HD1      0.413000
     44 H241       -0.1800    2.7080    3.7480 hc        1 HD1      0.075200
     45 H242       -0.8990    1.0540    3.5970 hc        1 HD1      0.075200
     46 H171        2.0340    3.2220    2.7380 hc        1 HD1      0.052200
     47 H172        2.9590    1.9880    1.8080 hc        1 HD1      0.052200
     48 H6          3.8480   -1.1840   -0.4380 ha        1 HD1      0.117000
     49 H7          4.9840   -1.1990   -2.5800 ha        1 HD1      0.163000
     50 H121        2.1550    0.1760   -6.0750 h1        1 HD1      0.065950
     51 H122        2.5940   -1.5740   -6.3870 h1        1 HD1      0.065950
     52 H91C        5.3270   -2.0330   -4.9740 h1        1 HD1      0.065950
     53 H92C        5.7650   -0.4130   -4.2310 h1        1 HD1      0.065950
     54 H111        3.8720    1.0400   -7.4370 h1        1 HD1      0.052950
     55 H112        3.1810   -0.3810   -8.3480 h1        1 HD1      0.052950
     56 H131        6.7400   -0.9810   -8.8300 h1        1 HD1      0.044700
     57 H132        6.0250    0.6980   -8.8890 h1        1 HD1      0.044700
     58 H133        5.1360   -0.7020   -9.6510 h1        1 HD1      0.044700
     59 H101        6.8600   -1.0270   -6.4600 h1        1 HD1      0.052950
     60 H102        6.1490    0.6440   -6.2760 h1        1 HD1      0.052950
     61 H31C       -0.8020   -0.9250   -4.7760 h1        1 HD1      0.087200
     62 H32C       -0.5260    0.8470   -4.5950 h1        1 HD1      0.087200
     63 H21C       -3.0130   -0.7020   -3.5620 hc        1 HD1      0.057700
     64 H22C       -2.7390    1.0820   -3.4110 hc        1 HD1      0.057700
     65 H11C       -4.2180    0.5560   -5.3400 hc        1 HD1      0.045033
     66 H12C       -2.9400   -0.5020   -6.0690 hc        1 HD1      0.045033
     67 H13C       -2.6620    1.2820   -5.9190 hc        1 HD1      0.045033
     68 H42         2.3790   -1.5380    1.4050 hn        1 HD1      0.445800
@<TRIPOS>BOND
     1    1    2 2   
     2    2    3 1   
     3    2   15 1   
     4    3    4 1   
     5    3   32 1   
     6    3   68 1   
     7    4    5 1   
     8    4   14 1   
     9    4   33 1   
    10    5    6 1   
    11    5    7 1   
    12    5   34 1   
    13    6   10 1   
    14    6   36 1   
    15    6   37 1   
    16    7    8 1   
    17    7   38 1   
    18    7   39 1   
    19    8    9 1   
    20    8   12 1   
    21    8   13 1   
    22    9   10 1   
    23    9   41 1   
    24    9   42 1   
    25   10   11 1   
    26   10   40 1   
    27   11   14 1   
    28   11   46 1   
    29   11   47 1   
    30   12   43 1   
    31   13   14 1   
    32   13   44 1   
    33   13   45 1   
    34   14   35 1   
    35   15   16 ar  
    36   15   27 ar  
    37   16   17 ar  
    38   16   48 1   
    39   17   18 ar  
    40   17   49 1   
    41   18   19 1   
    42   18   26 ar  
    43   19   20 1   
    44   19   25 1   
    45   20   21 1   
    46   20   50 1   
    47   20   51 1   
    48   21   22 1   
    49   21   54 1   
    50   21   55 1   
    51   22   23 1   
    52   22   24 1   
    53   23   56 1   
    54   23   57 1   
    55   23   58 1   
    56   24   25 1   
    57   24   59 1   
    58   24   60 1   
    59   25   52 1   
    60   25   53 1   
    61   26   27 ar  
    62   27   28 1   
    63   28   29 1   
    64   29   30 1   
    65   29   61 1   
    66   29   62 1   
    67   30   31 1   
    68   30   63 1   
    69   30   64 1   
    70   31   65 1   
    71   31   66 1   
    72   31   67 1   
@<TRIPOS>SUBSTRUCTURE
     1 HD1         1 TEMP              0 ****  ****    0 ROOT
