@<TRIPOS>MOLECULE
HD1
   68    72     1     0     0
SMALL
bcc


@<TRIPOS>ATOM
      1 O1         -0.0740   -0.5320    0.1630 o         1 HD1     -0.466100
      2 C14         1.1390   -0.5770   -0.0320 c         1 HD1      0.576700
      3 N4          1.9900   -0.5470    1.2390 n4        1 HD1     -0.669800
      4 C15         1.2430   -0.1560    2.4810 c3        1 HD1      0.121500
      5 C20         2.0020   -0.5900    3.7550 c3        1 HD1     -0.070200
      6 C19         3.2870    0.2120    3.9210 c3        1 HD1     -0.086400
      7 C21         1.0810   -0.3340    4.9430 c3        1 HD1     -0.105400
      8 C22         0.7610    1.1660    5.0320 c3        1 HD1      0.151800
      9 C23         2.0640    1.9600    5.2040 c3        1 HD1     -0.067400
     10 C18         2.9670    1.7000    4.0050 c3        1 HD1     -0.067700
     11 C17         2.2590    2.1500    2.7310 c3        1 HD1     -0.086400
     12 O2         -0.0320    1.4470    6.1720 oh        1 HD1     -0.570800
     13 C24         0.0520    1.6050    3.7430 c3        1 HD1     -0.105400
     14 C16         0.9680    1.3620    2.5480 c3        1 HD1     -0.070200
     15 C5          1.8660   -0.6440   -1.2670 ca        1 HD1     -0.421900
     16 C6          3.2600   -0.8970   -1.3460 ca        1 HD1     -0.010000
     17 C7          3.9130   -0.9210   -2.5460 ca        1 HD1     -0.315300
     18 C8          3.1650   -0.6660   -3.7690 ca        1 HD1      0.753200
     19 N2          3.7990   -0.5790   -4.9860 nh        1 HD1     -0.718300
     20 C12         3.0160   -0.5600   -6.2130 c3        1 HD1      0.202800
     21 C11         3.7940   -0.1210   -7.4680 c3        1 HD1      0.155800
     22 N3          5.0980   -0.7540   -7.5670 n3        1 HD1     -0.729600
     23 C13         5.7850   -0.4500   -8.8020 c3        1 HD1      0.153100
     24 C10         5.8950   -0.4680   -6.3880 c3        1 HD1      0.155800
     25 C9          5.2100   -0.9100   -5.0790 c3        1 HD1      0.202800
     26 N1          1.8030   -0.4840   -3.7040 nb        1 HD1     -0.791000
     27 C4          1.1720   -0.4730   -2.5150 ca        1 HD1      0.620600
     28 S1         -0.5010   -0.2540   -2.4870 ss        1 HD1     -0.124400
     29 C3         -1.0320   -0.0260   -4.1590 c3        1 HD1     -0.051300
     30 C2         -2.5230    0.1970   -4.0760 c3        1 HD1     -0.078400
     31 C1         -3.1140    0.3830   -5.4510 c3        1 HD1     -0.092100
     32 H4          2.7610    0.1120    1.0970 hn        1 HD1      0.446800
     33 H15         0.2500   -0.7010    2.4410 hx        1 HD1      0.121700
     34 H20         2.2400   -1.6880    3.7090 hc        1 HD1      0.070700
     35 H16         0.4440    1.6890    1.6080 hc        1 HD1      0.070700
     36 H191        3.8030   -0.1130    4.8630 hc        1 HD1      0.052950
     37 H192        3.9910    0.0150    3.0720 hc        1 HD1      0.052950
     38 H211        0.1340   -0.9220    4.8380 hc        1 HD1      0.070700
     39 H212        1.5860   -0.6620    5.8880 hc        1 HD1      0.070700
     40 H18         3.9210    2.2800    4.1270 hc        1 HD1      0.078700
     41 H231        1.8260    3.0510    5.2880 hc        1 HD1      0.074200
     42 H232        2.5690    1.6450    6.1530 hc        1 HD1      0.074200
     43 H2         -0.8640    0.9680    6.0680 ho        1 HD1      0.409000
     44 H241       -0.1970    2.6960    3.8100 hc        1 HD1      0.070700
     45 H242       -0.9080    1.0420    3.6210 hc        1 HD1      0.070700
     46 H171        2.9370    2.0330    1.8480 hc        1 HD1      0.052950
     47 H172        2.0100    3.2420    2.8080 hc        1 HD1      0.052950
     48 H6          3.8510   -1.1090   -0.4400 ha        1 HD1      0.117000
     49 H7          4.9870   -1.1540   -2.5820 ha        1 HD1      0.163000
     50 H121        2.5960   -1.5940   -6.3830 h1        1 HD1      0.065950
     51 H122        2.1560    0.1600   -6.0970 h1        1 HD1      0.065950
     52 H91C        5.3310   -2.0260   -4.9620 h1        1 HD1      0.065950
     53 H92C        5.7660   -0.3940   -4.2450 h1        1 HD1      0.065950
     54 H111        3.8710    1.0060   -7.4720 h1        1 HD1      0.053200
     55 H112        3.1810   -0.4300   -8.3610 h1        1 HD1      0.053200
     56 H131        5.1370   -0.7710   -9.6600 h1        1 HD1      0.045033
     57 H132        6.7420   -1.0330   -8.8350 h1        1 HD1      0.045033
     58 H133        6.0240    0.6430   -8.9200 h1        1 HD1      0.045033
     59 H101        6.8620   -1.0410   -6.4650 h1        1 HD1      0.053200
     60 H102        6.1480    0.6310   -6.3060 h1        1 HD1      0.053200
     61 H31C       -0.5250    0.8510   -4.6310 h1        1 HD1      0.087200
     62 H32C       -0.8000   -0.9250   -4.7810 h1        1 HD1      0.087200
     63 H21C       -2.7380    1.1040   -3.4500 hc        1 HD1      0.057700
     64 H22C       -3.0120   -0.6820   -3.5740 hc        1 HD1      0.057700
     65 H11C       -2.9360   -0.5200   -6.0840 hc        1 HD1      0.045033
     66 H12C       -4.2160    0.5480   -5.3720 hc        1 HD1      0.045033
     67 H13C       -2.6590    1.2660   -5.9600 hc        1 HD1      0.045033
     68 H42         2.3850   -1.4820    1.3780 hn        1 HD1      0.446800
@<TRIPOS>BOND
     1    1    2 2   
     2    2    3 1   
     3    2   15 1   
     4    3    4 1   
     5    3   32 1   
     6    3   68 1   
     7    4    5 1   
     8    4   14 1   
     9    4   33 1   
    10    5    6 1   
    11    5    7 1   
    12    5   34 1   
    13    6   10 1   
    14    6   36 1   
    15    6   37 1   
    16    7    8 1   
    17    7   38 1   
    18    7   39 1   
    19    8    9 1   
    20    8   12 1   
    21    8   13 1   
    22    9   10 1   
    23    9   41 1   
    24    9   42 1   
    25   10   11 1   
    26   10   40 1   
    27   11   14 1   
    28   11   46 1   
    29   11   47 1   
    30   12   43 1   
    31   13   14 1   
    32   13   44 1   
    33   13   45 1   
    34   14   35 1   
    35   15   16 ar  
    36   15   27 ar  
    37   16   17 ar  
    38   16   48 1   
    39   17   18 ar  
    40   17   49 1   
    41   18   19 1   
    42   18   26 ar  
    43   19   20 1   
    44   19   25 1   
    45   20   21 1   
    46   20   50 1   
    47   20   51 1   
    48   21   22 1   
    49   21   54 1   
    50   21   55 1   
    51   22   23 1   
    52   22   24 1   
    53   23   56 1   
    54   23   57 1   
    55   23   58 1   
    56   24   25 1   
    57   24   59 1   
    58   24   60 1   
    59   25   52 1   
    60   25   53 1   
    61   26   27 ar  
    62   27   28 1   
    63   28   29 1   
    64   29   30 1   
    65   29   61 1   
    66   29   62 1   
    67   30   31 1   
    68   30   63 1   
    69   30   64 1   
    70   31   65 1   
    71   31   66 1   
    72   31   67 1   
@<TRIPOS>SUBSTRUCTURE
     1 HD1         1 TEMP              0 ****  ****    0 ROOT
