@<TRIPOS>MOLECULE
HD1
   68    72     1     0     0
SMALL
bcc


@<TRIPOS>ATOM
      1 O1         -0.0510   -0.3400    0.1420 o         1 HD1     -0.465100
      2 C14         1.1600   -0.4350   -0.0480 c         1 HD1      0.574700
      3 N4          2.0080   -0.4400    1.2240 n4        1 HD1     -0.669800
      4 C15         1.2560   -0.1070    2.4800 c3        1 HD1      0.123500
      5 C20         2.0220   -0.5810    3.7350 c3        1 HD1     -0.072700
      6 C19         3.2930    0.2330    3.9380 c3        1 HD1     -0.086900
      7 C21         1.0950   -0.3950    4.9320 c3        1 HD1     -0.085400
      8 C22         0.7480    1.0930    5.0800 c3        1 HD1      0.151800
      9 C23         2.0350    1.9030    5.2870 c3        1 HD1     -0.106400
     10 C18         2.9490    1.7110    4.0830 c3        1 HD1     -0.063700
     11 C17         2.2400    2.2010    2.8260 c3        1 HD1     -0.086900
     12 O2         -0.1120    1.1860    6.2020 oh        1 HD1     -0.576800
     13 C24         0.0380    1.5840    3.8090 c3        1 HD1     -0.085400
     14 C16         0.9600    1.4030    2.6070 c3        1 HD1     -0.072700
     15 C5          1.8840   -0.5340   -1.2840 ca        1 HD1     -0.420900
     16 C6          3.2770   -0.7920   -1.3610 ca        1 HD1     -0.010000
     17 C7          3.9250   -0.8510   -2.5630 ca        1 HD1     -0.315300
     18 C8          3.1720   -0.6300   -3.7890 ca        1 HD1      0.753200
     19 N2          3.8010   -0.5830   -5.0120 nh        1 HD1     -0.718300
     20 C12         3.0110   -0.5970   -6.2340 c3        1 HD1      0.202800
     21 C11         3.7860   -0.2040   -7.5060 c3        1 HD1      0.155800
     22 N3          5.0850   -0.8480   -7.5920 n3        1 HD1     -0.729600
     23 C13         5.7680   -0.5880   -8.8400 c3        1 HD1      0.153100
     24 C10         5.8910   -0.5300   -6.4260 c3        1 HD1      0.155800
     25 C9          5.2090   -0.9260   -5.1010 c3        1 HD1      0.202800
     26 N1          1.8110   -0.4380   -3.7230 nb        1 HD1     -0.791000
     27 C4          1.1860   -0.3900   -2.5330 ca        1 HD1      0.619600
     28 S1         -0.4850   -0.1550   -2.5040 ss        1 HD1     -0.120400
     29 C3         -1.0230    0.0170   -4.1790 c3        1 HD1     -0.053300
     30 C2         -2.5130    0.2510   -4.0960 c3        1 HD1     -0.078400
     31 C1         -3.1100    0.3950   -5.4740 c3        1 HD1     -0.092100
     32 H4          2.4170   -1.3740    1.3270 hn        1 HD1      0.446300
     33 H15         0.2700   -0.6630    2.4180 hx        1 HD1      0.124700
     34 H20         2.2780   -1.6730    3.6450 hc        1 HD1      0.071700
     35 H16         0.4330    1.7600    1.6800 hc        1 HD1      0.071700
     36 H191        4.0020    0.0850    3.0830 hc        1 HD1      0.052200
     37 H192        3.8130   -0.1240    4.8660 hc        1 HD1      0.052200
     38 H211        1.6030   -0.7520    5.8650 hc        1 HD1      0.075200
     39 H212        0.1540   -0.9880    4.8050 hc        1 HD1      0.075200
     40 H18         3.8940    2.3010    4.2340 hc        1 HD1      0.076700
     41 H231        2.5450    1.5590    6.2230 hc        1 HD1      0.066200
     42 H232        1.7860    2.9880    5.4110 hc        1 HD1      0.066200
     43 H2         -0.2840    2.1240    6.3530 ho        1 HD1      0.413000
     44 H241       -0.2250    2.6670    3.9150 hc        1 HD1      0.075200
     45 H242       -0.9140    1.0130    3.6660 hc        1 HD1      0.075200
     46 H171        1.9760    3.2850    2.9430 hc        1 HD1      0.052200
     47 H172        2.9230    2.1270    1.9420 hc        1 HD1      0.052200
     48 H6          3.8730   -0.9750   -0.4520 ha        1 HD1      0.117000
     49 H7          4.9980   -1.0840   -2.5950 ha        1 HD1      0.163000
     50 H121        2.5830   -1.6330   -6.3700 h1        1 HD1      0.065950
     51 H122        2.1570    0.1330   -6.1370 h1        1 HD1      0.065950
     52 H91C        5.7720   -0.3870   -4.2860 h1        1 HD1      0.065950
     53 H92C        5.3240   -2.0390   -4.9490 h1        1 HD1      0.065950
     54 H111        3.8710    0.9220   -7.5470 h1        1 HD1      0.052950
     55 H112        3.1670   -0.5360   -8.3860 h1        1 HD1      0.052950
     56 H131        6.7200   -1.1790   -8.8590 h1        1 HD1      0.045033
     57 H132        5.1130   -0.9300   -9.6840 h1        1 HD1      0.045033
     58 H133        6.0140    0.4990   -8.9930 h1        1 HD1      0.045033
     59 H101        6.8530   -1.1130   -6.4900 h1        1 HD1      0.052950
     60 H102        6.1520    0.5680   -6.3810 h1        1 HD1      0.052950
     61 H31C       -0.5140    0.8740   -4.6840 h1        1 HD1      0.087200
     62 H32C       -0.8000   -0.9040   -4.7710 h1        1 HD1      0.087200
     63 H21C       -3.0040   -0.6070   -3.5630 hc        1 HD1      0.057700
     64 H22C       -2.7190    1.1810   -3.4990 hc        1 HD1      0.057700
     65 H11C       -4.2100    0.5690   -5.3950 hc        1 HD1      0.045033
     66 H12C       -2.6530    1.2580   -6.0150 hc        1 HD1      0.045033
     67 H13C       -2.9400   -0.5300   -6.0770 hc        1 HD1      0.045033
     68 H42         2.7700    0.2350    1.1050 hn        1 HD1      0.446300
@<TRIPOS>BOND
     1    1    2 2   
     2    2    3 1   
     3    2   15 1   
     4    3    4 1   
     5    3   32 1   
     6    3   68 1   
     7    4    5 1   
     8    4   14 1   
     9    4   33 1   
    10    5    6 1   
    11    5    7 1   
    12    5   34 1   
    13    6   10 1   
    14    6   36 1   
    15    6   37 1   
    16    7    8 1   
    17    7   38 1   
    18    7   39 1   
    19    8    9 1   
    20    8   12 1   
    21    8   13 1   
    22    9   10 1   
    23    9   41 1   
    24    9   42 1   
    25   10   11 1   
    26   10   40 1   
    27   11   14 1   
    28   11   46 1   
    29   11   47 1   
    30   12   43 1   
    31   13   14 1   
    32   13   44 1   
    33   13   45 1   
    34   14   35 1   
    35   15   16 ar  
    36   15   27 ar  
    37   16   17 ar  
    38   16   48 1   
    39   17   18 ar  
    40   17   49 1   
    41   18   19 1   
    42   18   26 ar  
    43   19   20 1   
    44   19   25 1   
    45   20   21 1   
    46   20   50 1   
    47   20   51 1   
    48   21   22 1   
    49   21   54 1   
    50   21   55 1   
    51   22   23 1   
    52   22   24 1   
    53   23   56 1   
    54   23   57 1   
    55   23   58 1   
    56   24   25 1   
    57   24   59 1   
    58   24   60 1   
    59   25   52 1   
    60   25   53 1   
    61   26   27 ar  
    62   27   28 1   
    63   28   29 1   
    64   29   30 1   
    65   29   61 1   
    66   29   62 1   
    67   30   31 1   
    68   30   63 1   
    69   30   64 1   
    70   31   65 1   
    71   31   66 1   
    72   31   67 1   
@<TRIPOS>SUBSTRUCTURE
     1 HD1         1 TEMP              0 ****  ****    0 ROOT
