@<TRIPOS>MOLECULE
HD1
   67    71     1     0     0
SMALL
bcc


@<TRIPOS>ATOM
      1 O1          1.5590    1.1400   -2.8510 o         1 HD1     -0.604100
      2 C14         1.1300    1.0560   -1.6820 c         1 HD1      0.678700
      3 N4          1.9860    0.9640   -0.5990 n         1 HD1     -0.545900
      4 C15         3.3910    0.6730   -0.7720 c3        1 HD1      0.101700
      5 C20         4.2550    1.2600    0.3710 c3        1 HD1     -0.073700
      6 C19         3.9930    0.5350    1.6860 c3        1 HD1     -0.074900
      7 C21         5.7230    1.1030   -0.0100 c3        1 HD1     -0.079900
      8 C22         6.0520   -0.3880   -0.1590 c3        1 HD1      0.148800
      9 C23         5.7790   -1.1150    1.1650 c3        1 HD1     -0.099400
     10 C18         4.3090   -0.9490    1.5340 c3        1 HD1     -0.059700
     11 C17         3.4370   -1.5480    0.4360 c3        1 HD1     -0.074900
     12 O2          7.4300   -0.4640   -0.5020 oh        1 HD1     -0.592800
     13 C24         5.1760   -0.9980   -1.2610 c3        1 HD1     -0.079900
     14 C16         3.7090   -0.8420   -0.8850 c3        1 HD1     -0.073700
     15 C5         -0.3290    1.1650   -1.3990 ca        1 HD1     -0.284900
     16 C6         -1.0480    2.1510   -2.0910 ca        1 HD1     -0.014000
     17 C7         -2.4090    2.3010   -1.8780 ca        1 HD1     -0.287300
     18 C8         -3.0650    1.4280   -0.9540 ca        1 HD1      0.660200
     19 N2         -4.4400    1.6480   -0.6650 nh        1 HD1     -0.734300
     20 C12        -5.0130    0.9030    0.4480 c3        1 HD1      0.186800
     21 C11        -6.4420    1.3730    0.7870 c3        1 HD1      0.163300
     22 N3         -7.3220    1.4030   -0.3720 n3        1 HD1     -0.732600
     23 C13        -8.6550    1.8540   -0.0450 c3        1 HD1      0.157100
     24 C10        -6.7400    2.1430   -1.4820 c3        1 HD1      0.163300
     25 C9         -5.3130    1.6740   -1.8310 c3        1 HD1      0.186800
     26 N1         -2.3700    0.4470   -0.3010 nb        1 HD1     -0.749000
     27 C4         -1.0430    0.3250   -0.5140 ca        1 HD1      0.559600
     28 S1         -0.1870   -0.9240    0.2900 ss        1 HD1     -0.295400
     29 C3         -1.3610   -1.7810    1.3040 c3        1 HD1     -0.016300
     30 C2         -0.5910   -2.8870    1.9830 c3        1 HD1     -0.077400
     31 C1         -1.4780   -3.6610    2.9270 c3        1 HD1     -0.090100
     32 H4          1.5960    0.7550    0.2930 hn        1 HD1      0.313500
     33 H15         3.7100    1.1610   -1.7440 h1        1 HD1      0.087700
     34 H20         4.0240    2.3520    0.4940 hc        1 HD1      0.065700
     35 H16         3.0720   -1.2930   -1.6930 hc        1 HD1      0.065700
     36 H191        4.6410    0.9770    2.4870 hc        1 HD1      0.043950
     37 H192        2.9290    0.6670    2.0060 hc        1 HD1      0.043950
     38 H211        5.9380    1.6290   -0.9750 hc        1 HD1      0.054700
     39 H212        6.3760    1.5510    0.7810 hc        1 HD1      0.054700
     40 H18         4.1070   -1.4760    2.5040 hc        1 HD1      0.049700
     41 H231        6.0290   -2.2010    1.0580 hc        1 HD1      0.047200
     42 H232        6.4330   -0.6860    1.9660 hc        1 HD1      0.047200
     43 H2          7.6350   -1.3990   -0.6200 ho        1 HD1      0.399000
     44 H241        5.3880   -0.4860   -2.2330 hc        1 HD1      0.054700
     45 H242        5.4230   -2.0830   -1.3820 hc        1 HD1      0.054700
     46 H171        3.6640   -2.6410    0.3300 hc        1 HD1      0.043950
     47 H172        2.3520   -1.4540    0.7100 hc        1 HD1      0.043950
     48 H6         -0.5150    2.7990   -2.8070 ha        1 HD1      0.161000
     49 H7         -2.9640    3.0910   -2.4000 ha        1 HD1      0.152000
     50 H121       -5.0350   -0.2040    0.2350 h1        1 HD1      0.052450
     51 H122       -4.3740    1.0760    1.3590 h1        1 HD1      0.052450
     52 H91C       -4.8970    2.3930   -2.5890 h1        1 HD1      0.052450
     53 H92C       -5.3730    0.6540   -2.3110 h1        1 HD1      0.052450
     54 H111       -6.8720    0.6390    1.5260 h1        1 HD1      0.040450
     55 H112       -6.3830    2.3810    1.2930 h1        1 HD1      0.040450
     56 H131       -8.6900    2.9180    0.3200 h1        1 HD1      0.034033
     57 H132       -9.2990    1.7700   -0.9600 h1        1 HD1      0.034033
     58 H133       -9.0740    1.1890    0.7540 h1        1 HD1      0.034033
     59 H101       -7.3850    1.9680   -2.3890 h1        1 HD1      0.040450
     60 H102       -6.7170    3.2530   -1.2800 h1        1 HD1      0.040450
     61 H31C       -1.8120   -1.0890    2.0550 h1        1 HD1      0.079200
     62 H32C       -2.1910   -2.1970    0.6850 h1        1 HD1      0.079200
     63 H21C       -0.1680   -3.5830    1.2100 hc        1 HD1      0.052200
     64 H22C        0.2750   -2.4540    2.5520 hc        1 HD1      0.052200
     65 H11C       -1.8860   -2.9920    3.7230 hc        1 HD1      0.038367
     66 H12C       -2.3360   -4.1170    2.3760 hc        1 HD1      0.038367
     67 H13C       -0.8950   -4.4790    3.4150 hc        1 HD1      0.038367
@<TRIPOS>BOND
     1    1    2 2   
     2    2    3 1   
     3    2   15 1   
     4    3    4 1   
     5    3   32 1   
     6    4    5 1   
     7    4   14 1   
     8    4   33 1   
     9    5    6 1   
    10    5    7 1   
    11    5   34 1   
    12    6   10 1   
    13    6   36 1   
    14    6   37 1   
    15    7    8 1   
    16    7   38 1   
    17    7   39 1   
    18    8    9 1   
    19    8   12 1   
    20    8   13 1   
    21    9   10 1   
    22    9   41 1   
    23    9   42 1   
    24   10   11 1   
    25   10   40 1   
    26   11   14 1   
    27   11   46 1   
    28   11   47 1   
    29   12   43 1   
    30   13   14 1   
    31   13   44 1   
    32   13   45 1   
    33   14   35 1   
    34   15   16 ar  
    35   15   27 ar  
    36   16   17 ar  
    37   16   48 1   
    38   17   18 ar  
    39   17   49 1   
    40   18   19 1   
    41   18   26 ar  
    42   19   20 1   
    43   19   25 1   
    44   20   21 1   
    45   20   50 1   
    46   20   51 1   
    47   21   22 1   
    48   21   54 1   
    49   21   55 1   
    50   22   23 1   
    51   22   24 1   
    52   23   56 1   
    53   23   57 1   
    54   23   58 1   
    55   24   25 1   
    56   24   59 1   
    57   24   60 1   
    58   25   52 1   
    59   25   53 1   
    60   26   27 ar  
    61   27   28 1   
    62   28   29 1   
    63   29   30 1   
    64   29   61 1   
    65   29   62 1   
    66   30   31 1   
    67   30   63 1   
    68   30   64 1   
    69   31   65 1   
    70   31   66 1   
    71   31   67 1   
@<TRIPOS>SUBSTRUCTURE
     1 HD1         1 TEMP              0 ****  ****    0 ROOT
