@<TRIPOS>MOLECULE
HD2
   67    72     1     0     0
SMALL
bcc


@<TRIPOS>ATOM
      1 C1         -0.1170   -2.1680    0.3040 ca        1 HD2      0.523200
      2 C2          1.1130   -1.5070    0.0700 ca        1 HD2     -0.423200
      3 C3          1.6890   -0.7610    1.1360 ca        1 HD2      0.561600
      4 N4          1.0480   -0.6760    2.3330 nb        1 HD2     -0.660000
      5 C5         -0.1300   -1.3580    2.4580 ca        1 HD2      0.771900
      6 N6         -0.7580   -2.1020    1.4830 nb        1 HD2     -0.656000
      7 N7         -0.7920   -1.3120    3.7960 n4        1 HD2     -0.750700
      8 C8          3.0080   -0.0610    0.9590 c3        1 HD2     -0.153000
      9 C9          4.0040   -0.2660    2.1090 c3        1 HD2     -0.069400
     10 C10         4.8760    0.9840    2.1230 c3        1 HD2     -0.083900
     11 C11         4.1200    2.0780    1.3810 c3        1 HD2     -0.083900
     12 C12         2.8440    1.4580    0.8200 c3        1 HD2     -0.069400
     13 C13         1.8090   -1.7280   -1.2130 c         1 HD2      0.561700
     14 O14         2.3920   -2.7470   -1.5440 o         1 HD2     -0.349100
     15 N15         1.7560   -0.5750   -2.1760 n4        1 HD2     -0.670800
     16 C16         2.4090   -0.8430   -3.5170 c3        1 HD2      0.122500
     17 C17         2.7690    0.4840   -4.2230 c3        1 HD2     -0.071200
     18 C18         1.5110    1.2380   -4.6340 c3        1 HD2     -0.089400
     19 C19         0.6660    0.3770   -5.5660 c3        1 HD2     -0.067700
     20 C20         0.2640   -0.9130   -4.8610 c3        1 HD2     -0.089400
     21 C21         1.5080   -1.6880   -4.4430 c3        1 HD2     -0.071200
     22 C22         2.3320   -2.0290   -5.6820 c3        1 HD2     -0.109400
     23 C23         2.7310   -0.7360   -6.4090 c3        1 HD2      0.155800
     24 C24         1.4700    0.0410   -6.8160 c3        1 HD2     -0.071400
     25 C25         3.5830    0.1250   -5.4630 c3        1 HD2     -0.109400
     26 O26         3.4270   -1.0170   -7.6060 oh        1 HD2     -0.558800
     27 C27        -2.0390   -0.4540    3.8010 c3        1 HD2      0.089500
     28 C28        -2.8370   -0.6630    5.1080 c3        1 HD2     -0.141400
     29 C29        -2.5330    0.5730    5.9620 c3        1 HD2      0.105400
     30 O30        -1.5710    1.3610    5.2400 os        1 HD2     -0.390600
     31 C31        -1.6860    1.0550    3.8570 c3        1 HD2      0.101400
     32 H1         -0.6150   -2.7920   -0.4710 h4        1 HD2      0.087100
     33 H8          3.4920   -0.4700    0.0270 hc        1 HD2      0.049700
     34 H7         -0.1320   -0.9280    4.4950 hn        1 HD2      0.489300
     35 H27        -2.6470   -0.7210    2.8940 hx        1 HD2      0.132700
     36 H91C        3.4850   -0.3760    3.0930 hc        1 HD2      0.056450
     37 H92C        4.6140   -1.1880    1.9390 hc        1 HD2      0.056450
     38 H121        2.6940    1.7440   -0.2510 hc        1 HD2      0.056450
     39 H122        1.9570    1.8200    1.3980 hc        1 HD2      0.056450
     40 H101        5.8580    0.7790    1.6240 hc        1 HD2      0.073950
     41 H102        5.0990    1.2920    3.1750 hc        1 HD2      0.073950
     42 H111        3.8680    2.9250    2.0670 hc        1 HD2      0.073950
     43 H112        4.7480    2.4980    0.5550 hc        1 HD2      0.073950
     44 H15         2.2220    0.2340   -1.7420 hn        1 HD2      0.464300
     45 H16         3.3580   -1.4200   -3.2970 hx        1 HD2      0.118700
     46 H17         3.4000    1.1240   -3.5470 hc        1 HD2      0.065200
     47 H21         1.2180   -2.6410   -3.9220 hc        1 HD2      0.065200
     48 H181        1.8090    2.1810   -5.1660 hc        1 HD2      0.054700
     49 H182        0.9150    1.5390   -3.7350 hc        1 HD2      0.054700
     50 H251        3.8890    1.0650   -5.9930 hc        1 HD2      0.079950
     51 H252        4.5150   -0.4240   -5.1760 hc        1 HD2      0.079950
     52 H19        -0.2580    0.9450   -5.8630 hc        1 HD2      0.090700
     53 H201       -0.3400   -1.5480   -5.5630 hc        1 HD2      0.054700
     54 H202       -0.3920   -0.6880   -3.9810 hc        1 HD2      0.054700
     55 H241        1.7670    0.9750   -7.3580 hc        1 HD2      0.085700
     56 H242        0.8610   -0.5820   -7.5210 hc        1 HD2      0.085700
     57 H221        3.2460   -2.6100   -5.3970 hc        1 HD2      0.079950
     58 H222        1.7220   -2.6680   -6.3720 hc        1 HD2      0.079950
     59 H26         4.2230   -1.5120   -7.3730 ho        1 HD2      0.414000
     60 H281       -2.5840   -1.6070    5.6510 hc        1 HD2      0.100700
     61 H282       -3.9290   -0.7100    4.8550 hc        1 HD2      0.100700
     62 H311       -0.7110    1.3420    3.3890 h1        1 HD2      0.094700
     63 H312       -2.5290    1.6360    3.3960 h1        1 HD2      0.094700
     64 H291       -2.0480    0.3300    6.9420 h1        1 HD2      0.097200
     65 H292       -3.4510    1.1940    6.1310 h1        1 HD2      0.097200
     66 H72        -1.0450   -2.2760    4.0660 hn        1 HD2      0.489300
     67 H152        0.7720   -0.3250   -2.3430 hn        1 HD2      0.464300
@<TRIPOS>BOND
     1    1    2 ar  
     2    1    6 ar  
     3    1   32 1   
     4    2    3 ar  
     5    2   13 1   
     6    3    4 ar  
     7    3    8 1   
     8    4    5 ar  
     9    5    6 ar  
    10    5    7 1   
    11    7   27 1   
    12    7   34 1   
    13    7   66 1   
    14    8    9 1   
    15    8   12 1   
    16    8   33 1   
    17    9   10 1   
    18    9   36 1   
    19    9   37 1   
    20   10   11 1   
    21   10   40 1   
    22   10   41 1   
    23   11   12 1   
    24   11   42 1   
    25   11   43 1   
    26   12   38 1   
    27   12   39 1   
    28   13   14 2   
    29   13   15 1   
    30   15   16 1   
    31   15   44 1   
    32   15   67 1   
    33   16   17 1   
    34   16   21 1   
    35   16   45 1   
    36   17   18 1   
    37   17   25 1   
    38   17   46 1   
    39   18   19 1   
    40   18   48 1   
    41   18   49 1   
    42   19   20 1   
    43   19   24 1   
    44   19   52 1   
    45   20   21 1   
    46   20   53 1   
    47   20   54 1   
    48   21   22 1   
    49   21   47 1   
    50   22   23 1   
    51   22   57 1   
    52   22   58 1   
    53   23   24 1   
    54   23   25 1   
    55   23   26 1   
    56   24   55 1   
    57   24   56 1   
    58   25   50 1   
    59   25   51 1   
    60   26   59 1   
    61   27   28 1   
    62   27   31 1   
    63   27   35 1   
    64   28   29 1   
    65   28   60 1   
    66   28   61 1   
    67   29   30 1   
    68   29   64 1   
    69   29   65 1   
    70   30   31 1   
    71   31   62 1   
    72   31   63 1   
@<TRIPOS>SUBSTRUCTURE
     1 HD2         1 TEMP              0 ****  ****    0 ROOT
