@<TRIPOS>MOLECULE
HD2
   65    70     1     0     0
SMALL
bcc


@<TRIPOS>ATOM
      1 C1          1.1990    0.6090    1.5540 ca        1 HD2      0.487200
      2 C2          0.6630   -0.5600    0.9740 ca        1 HD2     -0.439200
      3 C3          1.5740   -1.4300    0.3170 ca        1 HD2      0.546600
      4 N4          2.8910   -1.1460    0.2560 nb        1 HD2     -0.756000
      5 C5          3.3330    0.0150    0.8820 ca        1 HD2      0.885900
      6 N6          2.4970    0.9280    1.5220 nb        1 HD2     -0.753000
      7 N7          4.7190    0.2170    0.9150 nh        1 HD2     -0.819900
      8 C8          1.0770   -2.6880   -0.3490 c3        1 HD2     -0.133000
      9 C9          1.7200   -3.9600    0.2100 c3        1 HD2     -0.069900
     10 C10         1.7650   -4.9550   -0.9420 c3        1 HD2     -0.077900
     11 C11         1.5360   -4.1770   -2.2320 c3        1 HD2     -0.077900
     12 C12         1.3340   -2.7140   -1.8580 c3        1 HD2     -0.069900
     13 C13        -0.7880   -0.8440    1.1070 c         1 HD2      0.694700
     14 O14        -1.2240   -1.8900    1.6280 o         1 HD2     -0.600100
     15 N15        -1.6390    0.1460    0.6510 n         1 HD2     -0.567900
     16 C16        -3.0750    0.0160    0.6770 c3        1 HD2      0.104700
     17 C17        -3.7000   -0.1750   -0.7300 c3        1 HD2     -0.073200
     18 C18        -3.5630    1.0900   -1.5660 c3        1 HD2     -0.072900
     19 C19        -4.2670    2.2510   -0.8710 c3        1 HD2     -0.060700
     20 C20        -3.6390    2.4810    0.4990 c3        1 HD2     -0.072900
     21 C21        -3.7750    1.2250    1.3500 c3        1 HD2     -0.073200
     22 C22        -5.2490    0.8840    1.5280 c3        1 HD2     -0.080900
     23 C23        -5.8850    0.6530    0.1510 c3        1 HD2      0.148800
     24 C24        -5.7450    1.9220   -0.7030 c3        1 HD2     -0.099400
     25 C25        -5.1760   -0.5110   -0.5530 c3        1 HD2     -0.080900
     26 O26        -7.2540    0.3490    0.3840 oh        1 HD2     -0.590800
     27 C27         5.2710    1.5150    1.2360 c3        1 HD2      0.191500
     28 C28         6.8120    1.4740    1.3700 c3        1 HD2     -0.119400
     29 C29         7.3510    2.3230    0.2250 c3        1 HD2      0.120400
     30 O30         6.2500    2.8220   -0.5390 os        1 HD2     -0.422600
     31 C31         5.0300    2.6170    0.1720 c3        1 HD2      0.099400
     32 H1          0.5470    1.3330    2.0800 h4        1 HD2      0.032100
     33 H8         -0.0340   -2.7590   -0.1760 hc        1 HD2      0.080700
     34 H7          5.2440   -0.3170    0.2530 hn        1 HD2      0.435800
     35 H27         4.8200    1.8450    2.2160 h1        1 HD2      0.095700
     36 H91C        2.7540   -3.7630    0.5870 hc        1 HD2      0.052450
     37 H92C        1.1170   -4.3540    1.0650 hc        1 HD2      0.052450
     38 H121        0.4680   -2.2720   -2.4100 hc        1 HD2      0.052450
     39 H122        2.2440   -2.1220   -2.1270 hc        1 HD2      0.052450
     40 H101        2.7520   -5.4820   -0.9650 hc        1 HD2      0.041950
     41 H102        0.9740   -5.7360   -0.8140 hc        1 HD2      0.041950
     42 H111        2.4090   -4.2860   -2.9230 hc        1 HD2      0.041950
     43 H112        0.6360   -4.5710   -2.7690 hc        1 HD2      0.041950
     44 H15        -1.2600    0.9250    0.1700 hn        1 HD2      0.309500
     45 H16        -3.3160   -0.9080    1.2880 h1        1 HD2      0.093700
     46 H17        -3.1900   -1.0280   -1.2540 hc        1 HD2      0.061700
     47 H21        -3.3190    1.4060    2.3600 hc        1 HD2      0.061700
     48 H181       -2.4830    1.3400   -1.7240 hc        1 HD2      0.041700
     49 H182       -4.0200    0.9220   -2.5750 hc        1 HD2      0.041700
     50 H251       -5.6460   -0.6910   -1.5530 hc        1 HD2      0.055950
     51 H252       -5.2950   -1.4430    0.0570 hc        1 HD2      0.055950
     52 H19        -4.1610    3.1800   -1.4930 hc        1 HD2      0.052700
     53 H201       -2.5620    2.7630    0.3820 hc        1 HD2      0.041700
     54 H202       -4.1570    3.3330    1.0110 hc        1 HD2      0.041700
     55 H241       -6.2780    2.7680   -0.2010 hc        1 HD2      0.048700
     56 H242       -6.2200    1.7580   -1.7040 hc        1 HD2      0.048700
     57 H221       -5.3700   -0.0360    2.1520 hc        1 HD2      0.055950
     58 H222       -5.7800    1.7240    2.0440 hc        1 HD2      0.055950
     59 H26        -7.6550    0.1940   -0.4800 ho        1 HD2      0.399000
     60 H281        7.1030    1.9100    2.3570 hc        1 HD2      0.066200
     61 H282        7.2250    0.4360    1.3280 hc        1 HD2      0.066200
     62 H311        4.2630    2.3480   -0.5960 h1        1 HD2      0.058700
     63 H312        4.7460    3.5780    0.6730 h1        1 HD2      0.058700
     64 H291        7.9340    3.2040    0.5990 h1        1 HD2      0.050200
     65 H292        7.9800    1.7320   -0.4890 h1        1 HD2      0.050200
@<TRIPOS>BOND
     1    1    2 ar  
     2    1    6 ar  
     3    1   32 1   
     4    2    3 ar  
     5    2   13 1   
     6    3    4 ar  
     7    3    8 1   
     8    4    5 ar  
     9    5    6 ar  
    10    5    7 1   
    11    7   27 1   
    12    7   34 1   
    13    8    9 1   
    14    8   12 1   
    15    8   33 1   
    16    9   10 1   
    17    9   36 1   
    18    9   37 1   
    19   10   11 1   
    20   10   40 1   
    21   10   41 1   
    22   11   12 1   
    23   11   42 1   
    24   11   43 1   
    25   12   38 1   
    26   12   39 1   
    27   13   14 2   
    28   13   15 1   
    29   15   16 1   
    30   15   44 1   
    31   16   17 1   
    32   16   21 1   
    33   16   45 1   
    34   17   18 1   
    35   17   25 1   
    36   17   46 1   
    37   18   19 1   
    38   18   48 1   
    39   18   49 1   
    40   19   20 1   
    41   19   24 1   
    42   19   52 1   
    43   20   21 1   
    44   20   53 1   
    45   20   54 1   
    46   21   22 1   
    47   21   47 1   
    48   22   23 1   
    49   22   57 1   
    50   22   58 1   
    51   23   24 1   
    52   23   25 1   
    53   23   26 1   
    54   24   55 1   
    55   24   56 1   
    56   25   50 1   
    57   25   51 1   
    58   26   59 1   
    59   27   28 1   
    60   27   31 1   
    61   27   35 1   
    62   28   29 1   
    63   28   60 1   
    64   28   61 1   
    65   29   30 1   
    66   29   64 1   
    67   29   65 1   
    68   30   31 1   
    69   31   62 1   
    70   31   63 1   
@<TRIPOS>SUBSTRUCTURE
     1 HD2         1 TEMP              0 ****  ****    0 ROOT
