@<TRIPOS>MOLECULE
HD2
   66    71     1     0     0
SMALL
bcc


@<TRIPOS>ATOM
      1 C1         -0.1970   -0.7360    0.2110 ca        1 HD2      0.522200
      2 C2          1.2180   -0.6470    0.0890 ca        1 HD2     -0.567200
      3 C3          1.9430   -0.3040    1.2870 ca        1 HD2      0.609600
      4 N4          1.3090   -0.0960    2.4430 nb        1 HD2     -0.758000
      5 C5         -0.0900   -0.2230    2.4730 ca        1 HD2      0.945900
      6 N6         -0.8650   -0.5350    1.3340 nb        1 HD2     -0.741000
      7 N7         -0.7050   -0.0550    3.6800 nu        1 HD2     -0.786900
      8 C8          3.4430   -0.1720    1.2470 c3        1 HD2     -0.141000
      9 C9          4.1270   -1.4680    1.7050 c3        1 HD2     -0.070400
     10 C10         5.4600   -1.0530    2.3140 c3        1 HD2     -0.080400
     11 C11         5.4280    0.4570    2.5090 c3        1 HD2     -0.080400
     12 C12         4.0360    0.9390    2.1180 c3        1 HD2     -0.070400
     13 C13         1.8950   -0.9590   -1.1440 c         1 HD2      0.606700
     14 O14         2.9680   -1.5120   -1.3430 o         1 HD2     -0.441100
     15 N15         1.1440   -0.5180   -2.4030 ny        1 HD2     -0.681800
     16 C16         2.0250   -0.2840   -3.5990 c3        1 HD2      0.127500
     17 C17         1.4150    0.7690   -4.5500 c3        1 HD2     -0.072200
     18 C18         0.1530    0.2310   -5.2130 c3        1 HD2     -0.086900
     19 C19         0.4750   -1.0330   -6.0010 c3        1 HD2     -0.067700
     20 C20         1.0360   -2.0970   -5.0650 c3        1 HD2     -0.086900
     21 C21         2.3020   -1.5820   -4.3910 c3        1 HD2     -0.072200
     22 C22         3.3430   -1.2510   -5.4550 c3        1 HD2     -0.105900
     23 C23         2.7820   -0.1890   -6.4120 c3        1 HD2      0.151800
     24 C24         1.5030   -0.7140   -7.0790 c3        1 HD2     -0.068400
     25 C25         2.4610    1.0840   -5.6140 c3        1 HD2     -0.105900
     26 O26         3.6940    0.0870   -7.4600 oh        1 HD2     -0.569800
     27 C27        -2.1450   -0.0910    3.8590 c3        1 HD2      0.188500
     28 C28        -2.5480   -0.1330    5.3520 c3        1 HD2     -0.124400
     29 C29        -3.2110    1.2120    5.6360 c3        1 HD2      0.117400
     30 O30        -3.1530    2.0070    4.4460 os        1 HD2     -0.409600
     31 C31        -2.8770    1.1700    3.3270 c3        1 HD2      0.112400
     32 H1         -0.8370   -1.0130   -0.6500 h4        1 HD2      0.015100
     33 H8          3.7460    0.0360    0.1820 hc        1 HD2      0.056700
     34 H7         -0.1490    0.2290    4.4620 hn        1 HD2      0.474800
     35 H27        -2.5400   -1.0060    3.3300 h1        1 HD2      0.095700
     36 H91C        4.2680   -2.1570    0.8360 hc        1 HD2      0.057950
     37 H92C        3.5010   -1.9960    2.4670 hc        1 HD2      0.057950
     38 H121        4.0830    1.9000    1.5480 hc        1 HD2      0.057950
     39 H122        3.4280    1.1200    3.0390 hc        1 HD2      0.057950
     40 H101        6.3040   -1.3430    1.6390 hc        1 HD2      0.054950
     41 H102        5.6200   -1.5770    3.2890 hc        1 HD2      0.054950
     42 H111        6.2040    0.9490    1.8700 hc        1 HD2      0.054950
     43 H112        5.6510    0.7290    3.5710 hc        1 HD2      0.054950
     44 H15         0.4550   -1.2400   -2.6390 hn        1 HD2      0.449800
     45 H16         3.0070    0.1070   -3.1950 hx        1 HD2      0.109700
     46 H17         1.1780    1.7110   -3.9840 hc        1 HD2      0.073700
     47 H21         2.7190   -2.3630   -3.6970 hc        1 HD2      0.073700
     48 H181       -0.2570    1.0110   -5.9080 hc        1 HD2      0.053700
     49 H182       -0.6370    0.0190   -4.4480 hc        1 HD2      0.053700
     50 H251        3.3930    1.4850   -5.1410 hc        1 HD2      0.071700
     51 H252        2.0640    1.8670   -6.3110 hc        1 HD2      0.071700
     52 H19        -0.4630   -1.4190   -6.4860 hc        1 HD2      0.080700
     53 H201        0.2640   -2.3970   -4.3110 hc        1 HD2      0.053700
     54 H202        1.2890   -3.0180   -5.6540 hc        1 HD2      0.053700
     55 H241        1.7440   -1.6310   -7.6760 hc        1 HD2      0.076200
     56 H242        1.1070    0.0600   -7.7850 hc        1 HD2      0.076200
     57 H221        4.2850   -0.8800   -4.9790 hc        1 HD2      0.071700
     58 H222        3.5930   -2.1770   -6.0350 hc        1 HD2      0.071700
     59 H26         4.5130    0.3980   -7.0530 ho        1 HD2      0.409000
     60 H281       -1.6830   -0.3050    6.0400 hc        1 HD2      0.074700
     61 H282       -3.2710   -0.9720    5.5090 hc        1 HD2      0.074700
     62 H311       -2.2760    1.7890    2.6160 h1        1 HD2      0.065700
     63 H312       -3.8440    0.8640    2.8510 h1        1 HD2      0.065700
     64 H291       -4.2890    1.0900    5.9190 h1        1 HD2      0.065700
     65 H292       -2.6770    1.8020    6.4240 h1        1 HD2      0.065700
     66 H152        0.6390    0.3480   -2.1890 hn        1 HD2      0.449800
@<TRIPOS>BOND
     1    1    2 ar  
     2    1    6 ar  
     3    1   32 1   
     4    2    3 ar  
     5    2   13 1   
     6    3    4 ar  
     7    3    8 1   
     8    4    5 ar  
     9    5    6 ar  
    10    5    7 1   
    11    7   27 1   
    12    7   34 1   
    13    8    9 1   
    14    8   12 1   
    15    8   33 1   
    16    9   10 1   
    17    9   36 1   
    18    9   37 1   
    19   10   11 1   
    20   10   40 1   
    21   10   41 1   
    22   11   12 1   
    23   11   42 1   
    24   11   43 1   
    25   12   38 1   
    26   12   39 1   
    27   13   14 2   
    28   13   15 1   
    29   15   16 1   
    30   15   44 1   
    31   15   66 1   
    32   16   17 1   
    33   16   21 1   
    34   16   45 1   
    35   17   18 1   
    36   17   25 1   
    37   17   46 1   
    38   18   19 1   
    39   18   48 1   
    40   18   49 1   
    41   19   20 1   
    42   19   24 1   
    43   19   52 1   
    44   20   21 1   
    45   20   53 1   
    46   20   54 1   
    47   21   22 1   
    48   21   47 1   
    49   22   23 1   
    50   22   57 1   
    51   22   58 1   
    52   23   24 1   
    53   23   25 1   
    54   23   26 1   
    55   24   55 1   
    56   24   56 1   
    57   25   50 1   
    58   25   51 1   
    59   26   59 1   
    60   27   28 1   
    61   27   31 1   
    62   27   35 1   
    63   28   29 1   
    64   28   60 1   
    65   28   61 1   
    66   29   30 1   
    67   29   64 1   
    68   29   65 1   
    69   30   31 1   
    70   31   62 1   
    71   31   63 1   
@<TRIPOS>SUBSTRUCTURE
     1 HD2         1 TEMP              0 ****  ****    0 ROOT
