@<TRIPOS>MOLECULE
HD2
   66    71     1     0     0
SMALL
bcc


@<TRIPOS>ATOM
      1 C1         -0.1980   -0.7140    0.2020 ca        1 HD2      0.522200
      2 C2          1.2180   -0.6360    0.0850 ca        1 HD2     -0.567200
      3 C3          1.9410   -0.3130    1.2900 ca        1 HD2      0.609600
      4 N4          1.3050   -0.1130    2.4460 nb        1 HD2     -0.758000
      5 C5         -0.0950   -0.2280    2.4700 ca        1 HD2      0.945900
      6 N6         -0.8690   -0.5200    1.3240 nb        1 HD2     -0.741000
      7 N7         -0.7130   -0.0680    3.6760 nh        1 HD2     -0.786900
      8 C8          3.4430   -0.1940    1.2560 c3        1 HD2     -0.141000
      9 C9          4.1130   -1.5010    1.7030 c3        1 HD2     -0.070400
     10 C10         5.4480   -1.1050    2.3210 c3        1 HD2     -0.080400
     11 C11         5.4280    0.4040    2.5330 c3        1 HD2     -0.080400
     12 C12         4.0420    0.9020    2.1410 c3        1 HD2     -0.070400
     13 C13         1.8970   -0.9410   -1.1490 c         1 HD2      0.606700
     14 O14         2.9650   -1.5020   -1.3500 o         1 HD2     -0.441100
     15 N15         1.1540   -0.4790   -2.4050 n4        1 HD2     -0.681800
     16 C16         2.0370   -0.2640   -3.6030 c3        1 HD2      0.127500
     17 C17         1.4480    0.8030   -4.5530 c3        1 HD2     -0.072200
     18 C18         0.1730    0.2920   -5.2130 c3        1 HD2     -0.086900
     19 C19         0.4660   -0.9790   -6.0020 c3        1 HD2     -0.067700
     20 C20         1.0070   -2.0550   -5.0670 c3        1 HD2     -0.086900
     21 C21         2.2850   -1.5670   -4.3950 c3        1 HD2     -0.072200
     22 C22         3.3300   -1.2580   -5.4630 c3        1 HD2     -0.105900
     23 C23         2.7900   -0.1840   -6.4180 c3        1 HD2      0.151800
     24 C24         1.4980   -0.6810   -7.0820 c3        1 HD2     -0.068400
     25 C25         2.4980    1.0950   -5.6190 c3        1 HD2     -0.105900
     26 O26         3.7060    0.0730   -7.4670 oh        1 HD2     -0.569800
     27 C27        -2.1540   -0.0930    3.8500 c3        1 HD2      0.188500
     28 C28        -2.5620   -0.1490    5.3410 c3        1 HD2     -0.124400
     29 C29        -3.2150    1.1980    5.6390 c3        1 HD2      0.117400
     30 O30        -3.1450    2.0060    4.4580 os        1 HD2     -0.409600
     31 C31        -2.8720    1.1800    3.3300 c3        1 HD2      0.112400
     32 H1         -0.8380   -0.9750   -0.6650 h4        1 HD2      0.015100
     33 H8          3.7520    0.0230    0.1950 hc        1 HD2      0.056700
     34 H7         -0.1570    0.2020    4.4630 hn        1 HD2      0.474800
     35 H27        -2.5550   -0.9980    3.3080 h1        1 HD2      0.095700
     36 H91C        4.2520   -2.1820    0.8270 hc        1 HD2      0.057700
     37 H92C        3.4800   -2.0320    2.4570 hc        1 HD2      0.057700
     38 H121        3.4320    1.0780    3.0620 hc        1 HD2      0.057700
     39 H122        4.0990    1.8690    1.5830 hc        1 HD2      0.057700
     40 H101        6.2920   -1.3940    1.6460 hc        1 HD2      0.054950
     41 H102        5.6000   -1.6400    3.2910 hc        1 HD2      0.054950
     42 H111        5.6500    0.6620    3.5980 hc        1 HD2      0.054950
     43 H112        6.2110    0.8960    1.9010 hc        1 HD2      0.054950
     44 H15         0.4470   -1.1830   -2.6410 hn        1 HD2      0.449800
     45 H16         3.0290    0.1070   -3.2010 hx        1 HD2      0.109700
     46 H17         1.2330    1.7500   -3.9860 hc        1 HD2      0.073700
     47 H21         2.6870   -2.3570   -3.7030 hc        1 HD2      0.073700
     48 H181       -0.2220    1.0810   -5.9060 hc        1 HD2      0.053700
     49 H182       -0.6200    0.0970   -4.4460 hc        1 HD2      0.053700
     50 H251        3.4390    1.4760   -5.1470 hc        1 HD2      0.071700
     51 H252        2.1170    1.8870   -6.3140 hc        1 HD2      0.071700
     52 H19        -0.4800   -1.3440   -6.4850 hc        1 HD2      0.080700
     53 H201        0.2300   -2.3380   -4.3120 hc        1 HD2      0.053700
     54 H202        1.2390   -2.9810   -5.6570 hc        1 HD2      0.053700
     55 H241        1.7190   -1.6020   -7.6800 hc        1 HD2      0.076200
     56 H242        1.1170    0.1010   -7.7870 hc        1 HD2      0.076200
     57 H221        4.2820   -0.9080   -4.9880 hc        1 HD2      0.071700
     58 H222        3.5590   -2.1890   -6.0430 hc        1 HD2      0.071700
     59 H26         4.5320    0.3660   -7.0630 ho        1 HD2      0.409000
     60 H281       -1.7020   -0.3380    6.0290 hc        1 HD2      0.074700
     61 H282       -3.2930   -0.9840    5.4850 hc        1 HD2      0.074700
     62 H311       -3.8410    0.8890    2.8470 h1        1 HD2      0.065700
     63 H312       -2.2640    1.8030    2.6280 h1        1 HD2      0.065700
     64 H291       -2.6780    1.7740    6.4350 h1        1 HD2      0.065700
     65 H292       -4.2940    1.0820    5.9160 h1        1 HD2      0.065700
     66 H152        0.6710    0.3990   -2.1880 hn        1 HD2      0.449800
@<TRIPOS>BOND
     1    1    2 ar  
     2    1    6 ar  
     3    1   32 1   
     4    2    3 ar  
     5    2   13 1   
     6    3    4 ar  
     7    3    8 1   
     8    4    5 ar  
     9    5    6 ar  
    10    5    7 1   
    11    7   27 1   
    12    7   34 1   
    13    8    9 1   
    14    8   12 1   
    15    8   33 1   
    16    9   10 1   
    17    9   36 1   
    18    9   37 1   
    19   10   11 1   
    20   10   40 1   
    21   10   41 1   
    22   11   12 1   
    23   11   42 1   
    24   11   43 1   
    25   12   38 1   
    26   12   39 1   
    27   13   14 2   
    28   13   15 1   
    29   15   16 1   
    30   15   44 1   
    31   15   66 1   
    32   16   17 1   
    33   16   21 1   
    34   16   45 1   
    35   17   18 1   
    36   17   25 1   
    37   17   46 1   
    38   18   19 1   
    39   18   48 1   
    40   18   49 1   
    41   19   20 1   
    42   19   24 1   
    43   19   52 1   
    44   20   21 1   
    45   20   53 1   
    46   20   54 1   
    47   21   22 1   
    48   21   47 1   
    49   22   23 1   
    50   22   57 1   
    51   22   58 1   
    52   23   24 1   
    53   23   25 1   
    54   23   26 1   
    55   24   55 1   
    56   24   56 1   
    57   25   50 1   
    58   25   51 1   
    59   26   59 1   
    60   27   28 1   
    61   27   31 1   
    62   27   35 1   
    63   28   29 1   
    64   28   60 1   
    65   28   61 1   
    66   29   30 1   
    67   29   64 1   
    68   29   65 1   
    69   30   31 1   
    70   31   62 1   
    71   31   63 1   
@<TRIPOS>SUBSTRUCTURE
     1 HD2         1 TEMP              0 ****  ****    0 ROOT
