@<TRIPOS>MOLECULE
HDA
   12    11     1     0     0
SMALL
bcc


@<TRIPOS>ATOM
      1 NA         -0.0420    0.4270   -0.1170 n         1 HDA     -0.289300
      2 C           1.2110   -0.1800    0.1160 c         1 HDA      0.635900
      3 O           1.6830   -0.2390    1.2700 o         1 HDA     -0.665100
      4 OB         -0.8540    0.5320    0.9540 oh        1 HDA     -0.457100
      5 CB         -0.8160    0.0220   -1.2900 c3        1 HDA     -0.067000
      6 CG         -0.4860   -1.3260   -1.9850 c         1 HDA      0.902600
      7 OD1         0.5010   -2.0120   -1.5970 o         1 HDA     -0.830800
      8 OD2        -1.2500   -1.6380   -2.9380 o         1 HDA     -0.830800
      9 HC          1.7650   -0.4730   -0.8030 h5        1 HDA      0.088200
     10 HOB        -0.2850    0.7700    1.7110 ho        1 HDA      0.410000
     11 HB1        -0.6590    0.8400   -2.0460 h1        1 HDA      0.051200
     12 HB2        -1.9070   -0.0020   -1.0160 h1        1 HDA      0.051200
@<TRIPOS>BOND
     1    1    2 1   
     2    1    4 1   
     3    1    5 1   
     4    2    3 2   
     5    2    9 1   
     6    4   10 1   
     7    5    6 1   
     8    5   11 1   
     9    5   12 1   
    10    6    7 1   
    11    6    8 1   
@<TRIPOS>SUBSTRUCTURE
     1 HDA         1 TEMP              0 ****  ****    0 ROOT
