@<TRIPOS>MOLECULE
HDA
   12    11     1     0     0
SMALL
bcc


@<TRIPOS>ATOM
      1 NA          0.7490    0.7120   -0.4880 n         1 HDA     -0.289300
      2 C           1.3630   -0.5360   -0.2440 c         1 HDA      0.635900
      3 O           2.4670   -0.5970    0.3350 o         1 HDA     -0.665100
      4 OB          1.1690    1.7360    0.2810 oh        1 HDA     -0.457100
      5 CB         -0.7050    0.7660   -0.6390 c3        1 HDA     -0.067000
      6 CG         -1.5640   -0.4100   -0.1040 c         1 HDA      0.902600
      7 OD1        -1.0040   -1.4400    0.3650 o         1 HDA     -0.830800
      8 OD2        -2.8110   -0.2500   -0.2020 o         1 HDA     -0.830800
      9 HC          0.8510   -1.4070   -0.7090 h5        1 HDA      0.088200
     10 HOB         2.1350    1.6330    0.3760 ho        1 HDA      0.410000
     11 HB1        -1.0860    1.7060   -0.1530 h1        1 HDA      0.051200
     12 HB2        -0.8860    0.8420   -1.7470 h1        1 HDA      0.051200
@<TRIPOS>BOND
     1    1    2 1   
     2    1    4 1   
     3    1    5 1   
     4    2    3 2   
     5    2    9 1   
     6    4   10 1   
     7    5    6 1   
     8    5   11 1   
     9    5   12 1   
    10    6    7 1   
    11    6    8 1   
@<TRIPOS>SUBSTRUCTURE
     1 HDA         1 TEMP              0 ****  ****    0 ROOT
