@<TRIPOS>MOLECULE
HDA
   12    11     1     0     0
SMALL
bcc


@<TRIPOS>ATOM
      1 NA          0.3060    0.2450   -0.4760 n         1 HDA     -0.289300
      2 C           1.7090    0.2220   -0.4490 c         1 HDA      0.635900
      3 O           2.3230   -0.1610   -1.4150 o         1 HDA     -0.665100
      4 OB         -0.3570    0.2080   -1.6780 oh        1 HDA     -0.457100
      5 CB         -0.4340    0.3030    0.7490 c3        1 HDA     -0.067000
      6 CG         -1.2940   -0.9270    0.8730 c         1 HDA      0.902600
      7 OD1        -0.7590   -2.0540    1.0330 o         1 HDA     -0.830800
      8 OD2        -2.5460   -0.8300    0.7970 o         1 HDA     -0.830800
      9 HC          2.1910    0.5130    0.3580 h5        1 HDA      0.088200
     10 HOB        -0.3390    1.0380   -2.0610 ho        1 HDA      0.410000
     11 HB1        -1.0000    1.0980    0.7500 h1        1 HDA      0.051200
     12 HB2         0.1990    0.3450    1.5190 h1        1 HDA      0.051200
@<TRIPOS>BOND
     1    1    2 1   
     2    1    4 1   
     3    1    5 1   
     4    2    3 2   
     5    2    9 1   
     6    4   10 1   
     7    5    6 1   
     8    5   11 1   
     9    5   12 1   
    10    6    7 1   
    11    6    8 1   
@<TRIPOS>SUBSTRUCTURE
     1 HDA         1 TEMP              0 ****  ****    0 ROOT
