@<TRIPOS>MOLECULE
HDF
   43    45     1     0     0
SMALL
bcc


@<TRIPOS>ATOM
      1 N1          0.0110    0.2850   -0.0050 nc        1 HDF     -0.434400
      2 C2          1.4240    0.3260   -0.0050 c         1 HDF      0.851900
      3 O2          2.0700    0.5030   -1.0550 o         1 HDF     -0.595500
      4 N3          2.1600    0.1640    1.2000 n         1 HDF     -0.608500
      5 C4          1.5390   -0.0230    2.4280 c         1 HDF      0.723100
      6 O4          2.2140   -0.1590    3.4660 o         1 HDF     -0.627500
      7 C4A         0.0570   -0.0520    2.4350 cd        1 HDF     -0.256600
      8 C5         -0.6290   -0.1970    3.5990 cc        1 HDF      0.057000
      9 C5A        -2.0590   -0.1970    3.5920 ca        1 HDF     -0.177000
     10 C6         -2.7800   -0.3110    4.7970 ca        1 HDF     -0.018000
     11 C7         -4.1580   -0.2850    4.8100 ca        1 HDF     -0.243000
     12 C8         -4.8440   -0.1340    3.5850 ca        1 HDF      0.190100
     13 O8         -6.2130   -0.0840    3.5180 oh        1 HDF     -0.488100
     14 C9         -4.1670   -0.0200    2.3720 ca        1 HDF     -0.229000
     15 C9A        -2.7490   -0.0660    2.3490 ca        1 HDF      0.137700
     16 N10        -2.0420   -0.0080    1.1440 na        1 HDF     -0.100100
     17 C10        -0.6350    0.0920    1.1410 cd        1 HDF      0.209700
     18 C1'        -2.7650    0.0920   -0.1130 c3        1 HDF     -0.007700
     19 C2'        -3.2310    1.5170   -0.4780 c3        1 HDF      0.099100
     20 O2'        -2.1670    2.4390   -0.4780 oh        1 HDF     -0.583800
     21 C3'        -3.9800    1.4700   -1.8270 c3        1 HDF      0.113100
     22 O3'        -3.4290    0.5170   -2.7120 oh        1 HDF     -0.598800
     23 C4'        -4.0080    2.8700   -2.4630 c3        1 HDF      0.116100
     24 O4'        -2.7280    3.0620   -3.0490 oh        1 HDF     -0.616800
     25 C5'        -5.1030    2.9450   -3.5320 c3        1 HDF      0.093400
     26 O5'        -4.9650    4.2160   -4.1480 oh        1 HDF     -0.611800
     27 HN3         3.1550    0.1970    1.1560 hn        1 HDF      0.345500
     28 H5         -0.0900   -0.3050    4.5580 ha        1 HDF      0.172000
     29 H6         -2.2190   -0.4190    5.7400 ha        1 HDF      0.148000
     30 H7         -4.7190   -0.3760    5.7500 ha        1 HDF      0.147000
     31 HO8        -6.5650   -0.1660    4.4180 ho        1 HDF      0.431000
     32 H9         -4.7650    0.1130    1.4580 ha        1 HDF      0.163000
     33 H1'1       -2.1120   -0.2970   -0.9480 h1        1 HDF      0.091700
     34 H1'2       -3.6660   -0.5830   -0.0700 h1        1 HDF      0.091700
     35 H2'        -3.9330    1.9140    0.3120 h1        1 HDF      0.076700
     36 HO2'       -1.5950    2.2370   -1.2330 ho        1 HDF      0.431000
     37 H3'        -5.0330    1.1110   -1.6490 h1        1 HDF      0.077700
     38 HO3'       -2.5830    0.8640   -3.0330 ho        1 HDF      0.430000
     39 H4'        -4.1790    3.6530   -1.6740 h1        1 HDF      0.069700
     40 HO4'       -2.7610    3.9010   -3.5260 ho        1 HDF      0.436000
     41 H5'1       -4.9600    2.1220   -4.2810 h1        1 HDF      0.042200
     42 H5'2       -6.1160    2.8570   -3.0590 h1        1 HDF      0.042200
     43 HO5'       -5.5240    4.2070   -4.9340 ho        1 HDF      0.412000
@<TRIPOS>BOND
     1    1    2 1   
     2    1   17 2   
     3    2    3 2   
     4    2    4 1   
     5    4    5 1   
     6    4   27 1   
     7    5    6 2   
     8    5    7 1   
     9    7    8 2   
    10    7   17 1   
    11    8    9 1   
    12    8   28 1   
    13    9   10 ar  
    14    9   15 ar  
    15   10   11 ar  
    16   10   29 1   
    17   11   12 ar  
    18   11   30 1   
    19   12   13 1   
    20   12   14 ar  
    21   13   31 1   
    22   14   15 ar  
    23   14   32 1   
    24   15   16 1   
    25   16   17 1   
    26   16   18 1   
    27   18   19 1   
    28   18   33 1   
    29   18   34 1   
    30   19   20 1   
    31   19   21 1   
    32   19   35 1   
    33   20   36 1   
    34   21   22 1   
    35   21   23 1   
    36   21   37 1   
    37   22   38 1   
    38   23   24 1   
    39   23   25 1   
    40   23   39 1   
    41   24   40 1   
    42   25   26 1   
    43   25   41 1   
    44   25   42 1   
    45   26   43 1   
@<TRIPOS>SUBSTRUCTURE
     1 HDF         1 TEMP              0 ****  ****    0 ROOT
