@<TRIPOS>MOLECULE
HDF
   43    45     1     0     0
SMALL
bcc


@<TRIPOS>ATOM
      1 N1          0.0130    0.3190   -0.0250 nc        1 HDF     -0.434400
      2 C2          1.4270    0.3720   -0.0330 c         1 HDF      0.851900
      3 O2          2.0640    0.5630   -1.0850 o         1 HDF     -0.595500
      4 N3          2.1700    0.2060    1.1670 ns        1 HDF     -0.608500
      5 C4          1.5580    0.0030    2.3970 c         1 HDF      0.723100
      6 O4          2.2400   -0.1360    3.4300 o         1 HDF     -0.627500
      7 C4A         0.0760   -0.0380    2.4120 cd        1 HDF     -0.256600
      8 C5         -0.6020   -0.1970    3.5780 cc        1 HDF      0.057000
      9 C5A        -2.0320   -0.2100    3.5790 ca        1 HDF     -0.177000
     10 C6         -2.7450   -0.3390    4.7870 ca        1 HDF     -0.018000
     11 C7         -4.1230   -0.3250    4.8090 ca        1 HDF     -0.243000
     12 C8         -4.8170   -0.1690    3.5880 ca        1 HDF      0.190100
     13 O8         -6.1870   -0.1290    3.5290 oh        1 HDF     -0.488100
     14 C9         -4.1490   -0.0400    2.3730 ca        1 HDF     -0.229000
     15 C9A        -2.7300   -0.0730    2.3410 ca        1 HDF      0.137700
     16 N10        -2.0310    0.0000    1.1330 na        1 HDF     -0.100100
     17 C10        -0.6240    0.1120    1.1230 cd        1 HDF      0.209700
     18 C1'        -2.7610    0.1050   -0.1190 c3        1 HDF     -0.007700
     19 C2'        -3.2410    1.5290   -0.4690 c3        1 HDF      0.099100
     20 O2'        -2.1850    2.4600   -0.4680 oh        1 HDF     -0.583800
     21 C3'        -3.9970    1.4870   -1.8140 c3        1 HDF      0.113100
     22 O3'        -3.4430    0.5460   -2.7110 oh        1 HDF     -0.598800
     23 C4'        -4.0410    2.8920   -2.4390 c3        1 HDF      0.116100
     24 O4'        -2.7660    3.0990   -3.0300 oh        1 HDF     -0.616800
     25 C5'        -5.1420    2.9670   -3.5000 c3        1 HDF      0.093400
     26 O5'        -5.0190    4.2440   -4.1060 oh        1 HDF     -0.611800
     27 HN3         3.1650    0.2470    1.1180 hn        1 HDF      0.345500
     28 H5         -0.0570   -0.3090    4.5330 ha        1 HDF      0.172000
     29 H6         -2.1780   -0.4510    5.7260 ha        1 HDF      0.148000
     30 H7         -4.6780   -0.4280    5.7510 ha        1 HDF      0.147000
     31 HO8        -6.5330   -0.2220    4.4310 ho        1 HDF      0.431000
     32 H9         -4.7530    0.0970    1.4640 ha        1 HDF      0.163000
     33 H1'1       -2.1100   -0.2730   -0.9610 h1        1 HDF      0.091700
     34 H1'2       -3.6560   -0.5790   -0.0770 h1        1 HDF      0.091700
     35 H2'        -3.9410    1.9130    0.3280 h1        1 HDF      0.076700
     36 HO2'       -1.6150    2.2680   -1.2280 ho        1 HDF      0.431000
     37 H3'        -5.0460    1.1170   -1.6330 h1        1 HDF      0.077700
     38 HO3'       -2.6030    0.9030   -3.0330 ho        1 HDF      0.430000
     39 H4'        -4.2130    3.6670   -1.6420 h1        1 HDF      0.069700
     40 HO4'       -2.8080    3.9420   -3.5000 ho        1 HDF      0.436000
     41 H5'1       -4.9970    2.1510   -4.2570 h1        1 HDF      0.042200
     42 H5'2       -6.1520    2.8670   -3.0220 h1        1 HDF      0.042200
     43 HO5'       -5.5810    4.2370   -4.8890 ho        1 HDF      0.412000
@<TRIPOS>BOND
     1    1    2 1   
     2    1   17 2   
     3    2    3 2   
     4    2    4 1   
     5    4    5 1   
     6    4   27 1   
     7    5    6 2   
     8    5    7 1   
     9    7    8 2   
    10    7   17 1   
    11    8    9 1   
    12    8   28 1   
    13    9   10 ar  
    14    9   15 ar  
    15   10   11 ar  
    16   10   29 1   
    17   11   12 ar  
    18   11   30 1   
    19   12   13 1   
    20   12   14 ar  
    21   13   31 1   
    22   14   15 ar  
    23   14   32 1   
    24   15   16 1   
    25   16   17 1   
    26   16   18 1   
    27   18   19 1   
    28   18   33 1   
    29   18   34 1   
    30   19   20 1   
    31   19   21 1   
    32   19   35 1   
    33   20   36 1   
    34   21   22 1   
    35   21   23 1   
    36   21   37 1   
    37   22   38 1   
    38   23   24 1   
    39   23   25 1   
    40   23   39 1   
    41   24   40 1   
    42   25   26 1   
    43   25   41 1   
    44   25   42 1   
    45   26   43 1   
@<TRIPOS>SUBSTRUCTURE
     1 HDF         1 TEMP              0 ****  ****    0 ROOT
