@<TRIPOS>MOLECULE
HDF
   43    45     1     0     0
SMALL
bcc


@<TRIPOS>ATOM
      1 N1          2.0990    0.4210   -0.7620 nc        1 HDF     -0.437400
      2 C2          3.3190    0.1670   -1.4310 c         1 HDF      0.851900
      3 O2          4.4150    0.3070   -0.8570 o         1 HDF     -0.596500
      4 N3          3.3340   -0.2580   -2.7870 n         1 HDF     -0.608500
      5 C4          2.1680   -0.4580   -3.5140 c         1 HDF      0.723100
      6 O4          2.2170   -0.8340   -4.7010 o         1 HDF     -0.626500
      7 C4A         0.8860   -0.2060   -2.8130 cd        1 HDF     -0.258600
      8 C5         -0.3010   -0.4080   -3.4420 cc        1 HDF      0.059000
      9 C5A        -1.5280   -0.1830   -2.7450 ca        1 HDF     -0.177000
     10 C6         -2.7660   -0.4210   -3.3790 ca        1 HDF     -0.027000
     11 C7         -3.9590   -0.2350   -2.7190 ca        1 HDF     -0.186000
     12 C8         -3.9210    0.1960   -1.3720 ca        1 HDF      0.195100
     13 O8         -5.1390    0.3490   -0.7620 oh        1 HDF     -0.483100
     14 C9         -2.7220    0.4410   -0.7100 ca        1 HDF     -0.286000
     15 C9A        -1.4880    0.2710   -1.3930 ca        1 HDF      0.143700
     16 N10        -0.2680    0.5620   -0.7750 na        1 HDF     -0.101100
     17 C10         0.9530    0.2590   -1.4160 cd        1 HDF      0.209700
     18 C1'        -0.2470    1.0590    0.5900 c3        1 HDF     -0.005700
     19 C2'        -0.3650   -0.0310    1.6760 c3        1 HDF      0.100100
     20 O2'         0.6170   -1.0300    1.5340 oh        1 HDF     -0.582800
     21 C3'        -0.3370    0.6370    3.0670 c3        1 HDF      0.113100
     22 O3'         0.4820    1.7880    3.0930 oh        1 HDF     -0.599800
     23 C4'         0.0990   -0.3810    4.1350 c3        1 HDF      0.116100
     24 O4'         1.5110   -0.4860    4.0230 oh        1 HDF     -0.616800
     25 C5'        -0.2930    0.1130    5.5310 c3        1 HDF      0.093400
     26 O5'         0.2600   -0.8190    6.4470 oh        1 HDF     -0.610800
     27 HN3         4.2150   -0.4240   -3.2220 hn        1 HDF      0.346500
     28 H5         -0.3280   -0.7560   -4.4910 ha        1 HDF      0.173000
     29 H6         -2.7620   -0.7650   -4.4270 ha        1 HDF      0.150000
     30 H7         -4.9300   -0.4150   -3.2020 ha        1 HDF      0.164000
     31 HO8        -4.9950    0.6490    0.1480 ho        1 HDF      0.427000
     32 H9         -2.7530    0.7540    0.3440 ha        1 HDF      0.145000
     33 H1'1       -1.0880    1.7960    0.7240 h1        1 HDF      0.090200
     34 H1'2        0.7110    1.6330    0.7600 h1        1 HDF      0.090200
     35 H2'        -1.3370   -0.5930    1.5630 h1        1 HDF      0.072700
     36 HO2'        1.4780   -0.6380    1.7460 ho        1 HDF      0.433000
     37 H3'        -1.3680    1.0230    3.3080 h1        1 HDF      0.073700
     38 HO3'        1.4050    1.4960    3.0670 ho        1 HDF      0.432000
     39 H4'        -0.3680   -1.3830    3.9300 h1        1 HDF      0.069700
     40 HO4'        1.8070   -1.0600    4.7420 ho        1 HDF      0.437000
     41 H5'1       -1.4090    0.1370    5.6380 h1        1 HDF      0.041700
     42 H5'2        0.1280    1.1390    5.7030 h1        1 HDF      0.041700
     43 HO5'        0.1870   -0.4260    7.3240 ho        1 HDF      0.413000
@<TRIPOS>BOND
     1    1    2 1   
     2    1   17 2   
     3    2    3 2   
     4    2    4 1   
     5    4    5 1   
     6    4   27 1   
     7    5    6 2   
     8    5    7 1   
     9    7    8 2   
    10    7   17 1   
    11    8    9 1   
    12    8   28 1   
    13    9   10 ar  
    14    9   15 ar  
    15   10   11 ar  
    16   10   29 1   
    17   11   12 ar  
    18   11   30 1   
    19   12   13 1   
    20   12   14 ar  
    21   13   31 1   
    22   14   15 ar  
    23   14   32 1   
    24   15   16 1   
    25   16   17 1   
    26   16   18 1   
    27   18   19 1   
    28   18   33 1   
    29   18   34 1   
    30   19   20 1   
    31   19   21 1   
    32   19   35 1   
    33   20   36 1   
    34   21   22 1   
    35   21   23 1   
    36   21   37 1   
    37   22   38 1   
    38   23   24 1   
    39   23   25 1   
    40   23   39 1   
    41   24   40 1   
    42   25   26 1   
    43   25   41 1   
    44   25   42 1   
    45   26   43 1   
@<TRIPOS>SUBSTRUCTURE
     1 HDF         1 TEMP              0 ****  ****    0 ROOT
