@<TRIPOS>MOLECULE
HDI
   30    29     1     0     0
SMALL
bcc


@<TRIPOS>ATOM
      1 C12        -0.2110    0.3420    0.7670 c3        1 HDI     -0.067000
      2 C11         1.2580    1.1590    2.4590 c2        1 HDI      0.252000
      3 O3          0.2690    1.6940    2.9540 o         1 HDI     -0.353000
      4 O4          1.1030    0.4320    1.3150 os        1 HDI     -0.299000
      5 C10         4.2810   -0.6330    0.6840 c2        1 HDI     -0.223000
      6 N1          5.4430    1.0450    3.5410 n2        1 HDI      0.028000
      7 O2          4.5090    0.6680    2.6860 os        1 HDI     -0.145000
      8 C9          5.0690   -0.1530    1.6390 c2        1 HDI     -0.045000
      9 C8          6.5390   -0.2670    1.9220 c3        1 HDI     -0.126000
     10 C7          6.6320    0.5660    3.1990 c2        1 HDI     -0.092000
     11 C5          7.8860    1.2930    5.1310 c1        1 HDI      0.021000
     12 C6          7.8840    0.7800    3.9160 c2        1 HDI     -0.007000
     13 C1          9.1200    0.4030    3.2360 c2        1 HDI     -0.126000
     14 C2         10.3220    0.8930    3.5430 c2        1 HDI     -0.193000
     15 C3          7.8150    0.9140    7.5120 c1        1 HDI      0.038000
     16 C4          7.8820    1.7950    6.3350 c2        1 HDI     -0.217000
     17 H121       -0.8970   -0.1400    1.5050 h1        1 HDI      0.088333
     18 H122       -0.5860    1.3610    0.5080 h1        1 HDI      0.088333
     19 H123       -0.0830   -0.2910   -0.1450 h1        1 HDI      0.088333
     20 H101        2.3150    1.1600    2.7920 h5        1 HDI      0.202000
     21 H102        3.2010   -0.4250    0.6610 ha        1 HDI      0.145500
     22 HC9         4.6800   -1.2580   -0.1230 ha        1 HDI      0.145500
     23 HC81        6.8520   -1.3250    2.1010 hc        1 HDI      0.128500
     24 HC82        7.1580    0.1700    1.1010 hc        1 HDI      0.128500
     25 HO1         7.6070    0.9720    9.3600 ho        1 HDI      0.258000
     26 HC1        11.2290    0.5760    3.0120 ha        1 HDI      0.121000
     27 HC2         9.0040   -0.3410    2.4290 ha        1 HDI      0.130000
     28 HC4        10.4800    1.6350    4.3370 ha        1 HDI      0.121000
     29 HC5         7.9310    2.8930    6.4760 ha        1 HDI      0.148000
     30 O1          7.6440    1.6120    8.6270 oh        1 HDI     -0.238000
@<TRIPOS>BOND
     1    1    4 1   
     2    1   17 1   
     3    1   18 1   
     4    1   19 1   
     5    2    3 1   
     6    2    4 1   
     7    2   20 1   
     8    5    8 1   
     9    5   21 1   
    10    5   22 1   
    11    6    7 1   
    12    6   10 1   
    13    7    8 1   
    14    8    9 1   
    15    9   10 1   
    16    9   23 1   
    17    9   24 1   
    18   10   12 1   
    19   11   12 1   
    20   11   16 1   
    21   12   13 1   
    22   13   14 1   
    23   13   27 1   
    24   14   26 1   
    25   14   28 1   
    26   15   16 1   
    27   15   30 1   
    28   16   29 1   
    29   25   30 1   
@<TRIPOS>SUBSTRUCTURE
     1 HDI         1 TEMP              0 ****  ****    0 ROOT
