@<TRIPOS>MOLECULE
HDI
   30    27     1     0     0
SMALL
bcc


@<TRIPOS>ATOM
      1 C12        -5.1420    0.6880   -3.2050 c3        1 HDI     -0.064000
      2 C11        -3.2190    0.2030   -1.8870 c1        1 HDI      0.305000
      3 O3         -3.8770    0.3850   -0.9350 o         1 HDI     -0.350000
      4 O4         -3.8240    0.1140   -3.1500 o         1 HDI     -0.275000
      5 C10        -1.7310    0.0930   -1.7580 c3        1 HDI     -0.167000
      6 N1         -0.7070    0.4770    1.2460 n1        1 HDI      0.028000
      7 O2         -1.7560    0.4100    0.6100 o         1 HDI     -0.172000
      8 C9         -1.4230   -0.5150   -0.5510 c3        1 HDI     -0.019000
      9 C8          0.1270   -0.7630   -0.4300 c3        1 HDI     -0.171000
     10 C7          0.4040    0.0610    0.5360 c2        1 HDI     -0.109000
     11 O1          5.4360    0.1440    3.3080 oh        1 HDI     -0.247000
     12 C5          2.8160    0.7860    0.7200 c1        1 HDI     -0.081000
     13 C6          1.7560    0.0050    1.2090 c1        1 HDI     -0.066000
     14 C1          1.9310   -0.7690    2.3590 c1        1 HDI     -0.055000
     15 C2          3.1560   -0.7670    3.0220 c1        1 HDI     -0.219000
     16 C3          4.2190    0.0160    2.5320 c2        1 HDI      0.094000
     17 C4          4.0420    0.7910    1.3800 c2        1 HDI     -0.161000
     18 H121       -5.1100    1.6320   -2.8700 h1        1 HDI      0.092333
     19 H122       -5.7720    0.1440   -2.6250 h1        1 HDI      0.092333
     20 H123       -5.4650    0.6810   -4.1430 h1        1 HDI      0.092333
     21 H101       -1.3870   -0.4340   -2.4820 hc        1 HDI      0.134500
     22 H102       -1.3310    0.9920   -1.7860 hc        1 HDI      0.134500
     23 HC9        -1.9190   -1.3820   -0.4600 h1        1 HDI      0.148000
     24 HC81        0.6480   -0.7570   -1.2340 hc        1 HDI      0.116500
     25 HC82        0.2860   -1.6660   -0.1120 hc        1 HDI      0.116500
     26 HO1         5.9090   -0.6340    3.2640 ho        1 HDI      0.222000
     27 HC5         2.6890    1.3400   -0.1040 ha        1 HDI      0.134000
     28 HC1         1.1750   -1.3260    2.7070 ha        1 HDI      0.155000
     29 HC2         3.2730   -1.2970    3.8100 ha        1 HDI      0.139000
     30 HC4         4.7960    1.3480    1.0300 ha        1 HDI      0.154000
@<TRIPOS>BOND
     1    1    4 1   
     2    1   18 1   
     3    1   19 1   
     4    1   20 1   
     5    2    3 1   
     6    2    5 1   
     7    5    8 1   
     8    5   21 1   
     9    5   22 1   
    10    6   10 1   
    11    7    8 1   
    12    8    9 1   
    13    8   23 1   
    14    9   10 1   
    15    9   24 1   
    16    9   25 1   
    17   10   13 1   
    18   11   16 1   
    19   11   26 1   
    20   12   17 1   
    21   12   27 1   
    22   13   14 1   
    23   14   28 1   
    24   15   16 1   
    25   15   29 1   
    26   16   17 1   
    27   17   30 1   
@<TRIPOS>SUBSTRUCTURE
     1 HDI         1 TEMP              0 ****  ****    0 ROOT
