@<TRIPOS>MOLECULE
HDI
   30    29     1     0     0
SMALL
bcc


@<TRIPOS>ATOM
      1 C12        -1.3940   -0.5080    0.8320 c2        1 HDI      0.135000
      2 C11         1.8990    0.1200   -0.0030 c2        1 HDI      0.185000
      3 O3          1.7800    0.0220    1.2240 o         1 HDI     -0.333000
      4 O4         -1.2860   -0.4120   -0.3900 o         1 HDI     -0.302000
      5 C10         3.1990    0.3870   -0.6750 c3        1 HDI     -0.296000
      6 N1          6.7210    0.7850    2.4540 n2        1 HDI     -0.048000
      7 O2          5.5290    0.6140    1.9210 os        1 HDI     -0.081000
      8 C9          4.5640    0.3940    2.9330 c2        1 HDI     -0.103000
      9 C8          5.2090    0.4340    4.1460 c2        1 HDI     -0.182000
     10 C7          6.6130    0.6910    3.8000 c2        1 HDI     -0.060000
     11 C5          7.2800    0.6710    6.1630 c1        1 HDI     -0.065000
     12 C6          7.6790    0.8150    4.7800 c2        1 HDI     -0.071000
     13 C1          8.9650    1.0520    4.4150 c2        1 HDI     -0.089000
     14 C2         10.0510    1.1790    5.4130 c3        1 HDI     -0.181000
     15 C3          9.5940    1.0240    6.8230 c2        1 HDI      0.116000
     16 C4          8.2830    0.7850    7.1490 c2        1 HDI     -0.252000
     17 H121        1.0120    0.0080   -0.6710 h4        1 HDI      0.114000
     18 H122       -2.3710   -0.7090    1.3190 h4        1 HDI      0.083500
     19 H123       -0.5190   -0.3970    1.5090 h4        1 HDI      0.083500
     20 H101        3.4330   -0.4500   -1.3790 hc        1 HDI      0.111000
     21 H102        3.1260    1.3340   -1.2640 hc        1 HDI      0.111000
     22 HC9         4.0340    0.4830    0.0640 hc        1 HDI      0.111000
     23 HC81        3.5500    0.2430    2.5660 h4        1 HDI      0.224000
     24 HC82        4.8420    0.3150    5.1630 ha        1 HDI      0.202000
     25 HO1        11.3900    1.2920    7.4330 ho        1 HDI      0.222000
     26 HC1        10.8380    0.4010    5.1940 hc        1 HDI      0.139000
     27 HC2         9.2780    1.1630    3.3630 ha        1 HDI      0.152000
     28 HC4        10.5380    2.1900    5.2940 hc        1 HDI      0.139000
     29 HC5         7.9890    0.6770    8.2050 ha        1 HDI      0.164000
     30 O1         10.5170    1.1240    7.8210 oh        1 HDI     -0.229000
@<TRIPOS>BOND
     1    1    4 1   
     2    1   18 1   
     3    1   19 1   
     4    2    3 1   
     5    2    5 1   
     6    2   17 1   
     7    5   20 1   
     8    5   21 1   
     9    5   22 1   
    10    6    7 1   
    11    6   10 1   
    12    7    8 1   
    13    8    9 1   
    14    8   23 1   
    15    9   10 1   
    16    9   24 1   
    17   10   12 1   
    18   11   12 1   
    19   11   16 1   
    20   12   13 1   
    21   13   14 1   
    22   13   27 1   
    23   14   15 1   
    24   14   26 1   
    25   14   28 1   
    26   15   16 1   
    27   15   30 1   
    28   16   29 1   
    29   25   30 1   
@<TRIPOS>SUBSTRUCTURE
     1 HDI         1 TEMP              0 ****  ****    0 ROOT
