@<TRIPOS>MOLECULE
HDI
   30    28     1     0     0
SMALL
bcc


@<TRIPOS>ATOM
      1 C12         0.2020   -1.5040   -1.6030 c2        1 HDI      0.129000
      2 C11         2.0810    0.4760    1.2380 c2        1 HDI      0.174000
      3 O3          2.4590   -0.5160    0.6060 o         1 HDI     -0.332000
      4 O4         -0.7690   -0.7570   -1.5030 o         1 HDI     -0.299000
      5 C10         0.7620    1.1290    1.0080 c3        1 HDI     -0.299000
      6 N1          6.4020    2.4590    4.0460 n2        1 HDI     -0.028000
      7 O2          5.1050    2.5190    3.6100 os        1 HDI     -0.070000
      8 C9          4.5280    1.3340    3.4100 c1        1 HDI      0.044000
      9 C8          5.5710    0.2870    3.7460 c3        1 HDI     -0.292000
     10 C7          6.7480    1.1850    4.1520 c2        1 HDI     -0.064000
     11 C5          8.9740    1.4580    5.0470 c1        1 HDI      0.028000
     12 C6          8.0280    0.6550    4.5980 c2        1 HDI     -0.018000
     13 C1          8.2150   -0.7920    4.5230 c2        1 HDI     -0.136000
     14 C2          9.0360   -1.4790    5.3200 c2        1 HDI     -0.184000
     15 C3         10.0280    2.5730    6.9090 c1        1 HDI      0.041000
     16 C4          9.9080    2.2590    5.4750 c2        1 HDI     -0.212000
     17 H121        2.7240    0.9380    2.0270 h4        1 HDI      0.127000
     18 H122        1.1100   -1.3840   -0.9710 h4        1 HDI      0.084000
     19 H123        0.2210   -2.3410   -2.3340 h4        1 HDI      0.084000
     20 H101        0.1740    0.6070    0.2120 hc        1 HDI      0.109000
     21 H102        0.1730    1.1210    1.9580 hc        1 HDI      0.109000
     22 HC9         0.9230    2.1920    0.7010 hc        1 HDI      0.109000
     23 HC81        5.2420   -0.3770    4.5830 hc        1 HDI      0.166000
     24 HC82        5.8050   -0.3460    2.8540 hc        1 HDI      0.166000
     25 HO1        10.8390    3.7770    8.0720 ho        1 HDI      0.261000
     26 HC1         9.1550   -2.5670    5.2270 ha        1 HDI      0.125500
     27 HC2         7.6210   -1.3000    3.7440 ha        1 HDI      0.131000
     28 HC4         9.6330   -1.0070    6.1120 ha        1 HDI      0.125500
     29 HC5        10.6320    2.6980    4.7600 ha        1 HDI      0.155000
     30 O1         10.8000    3.6300    7.1100 oh        1 HDI     -0.234000
@<TRIPOS>BOND
     1    1    4 1   
     2    1   18 1   
     3    1   19 1   
     4    2    3 1   
     5    2    5 1   
     6    2   17 1   
     7    5   20 1   
     8    5   21 1   
     9    5   22 1   
    10    6    7 1   
    11    6   10 1   
    12    7    8 1   
    13    8    9 1   
    14    9   10 1   
    15    9   23 1   
    16    9   24 1   
    17   10   12 1   
    18   11   12 1   
    19   11   16 1   
    20   12   13 1   
    21   13   14 1   
    22   13   27 1   
    23   14   26 1   
    24   14   28 1   
    25   15   16 1   
    26   15   30 1   
    27   16   29 1   
    28   25   30 1   
@<TRIPOS>SUBSTRUCTURE
     1 HDI         1 TEMP              0 ****  ****    0 ROOT
