@<TRIPOS>MOLECULE
HDI
   30    31     1     0     0
SMALL
bcc


@<TRIPOS>ATOM
      1 C12         0.0360   -0.5820    6.3030 c3        1 HDI      0.125700
      2 C11         0.3850    0.1520    4.0650 c         1 HDI      0.634100
      3 O3          0.3130    1.2960    4.5200 o         1 HDI     -0.539000
      4 O4          0.2630   -0.9010    4.9290 os        1 HDI     -0.436900
      5 C10         0.6260   -0.2850    2.6540 c3        1 HDI     -0.138400
      6 N1         -1.4390    0.0830    0.0250 n2        1 HDI     -0.358200
      7 O2         -1.3080    0.3160    1.3070 os        1 HDI     -0.145300
      8 C9          0.0810    0.7190    1.6590 c3        1 HDI      0.092100
      9 C8          0.8130    0.7150    0.3060 c3        1 HDI     -0.167700
     10 C7         -0.3060    0.2820   -0.6330 ce        1 HDI      0.337900
     11 C5         -1.1370   -0.3050   -2.9010 ca        1 HDI     -0.068000
     12 C6         -0.0960    0.1200   -2.0620 ca        1 HDI     -0.149900
     13 C1          1.1660    0.3920   -2.6170 ca        1 HDI     -0.068000
     14 C2          1.3930    0.2450   -3.9790 ca        1 HDI     -0.190000
     15 C3          0.3390   -0.1830   -4.8060 ca        1 HDI      0.139100
     16 C4         -0.9260   -0.4580   -4.2680 ca        1 HDI     -0.190000
     17 H121       -0.0420   -1.5820    6.7960 h1        1 HDI      0.053033
     18 H122        0.8950    0.0080    6.7030 h1        1 HDI      0.053033
     19 H123       -0.9100    0.0020    6.4060 h1        1 HDI      0.053033
     20 H101        1.7370   -0.3940    2.5250 hc        1 HDI      0.095200
     21 H102        0.1530   -1.2910    2.4890 hc        1 HDI      0.095200
     22 HC9        -0.0100    1.7430    2.1070 h1        1 HDI      0.108700
     23 HC81        1.1890    1.7320    0.0430 hc        1 HDI      0.077200
     24 HC82        1.6630   -0.0070    0.2800 hc        1 HDI      0.077200
     25 HO1        -0.1820   -0.6050   -6.5950 ho        1 HDI      0.423000
     26 HC1         1.9910    0.7290   -1.9700 ha        1 HDI      0.144500
     27 HC2         2.3770    0.4560   -4.4200 ha        1 HDI      0.146500
     28 HC4        -1.7460   -0.7910   -4.9200 ha        1 HDI      0.146500
     29 HC5        -2.1330   -0.5220   -2.4840 ha        1 HDI      0.144500
     30 O1          0.6240   -0.3110   -6.1440 oh        1 HDI     -0.493100
@<TRIPOS>BOND
     1    1    4 1   
     2    1   17 1   
     3    1   18 1   
     4    1   19 1   
     5    2    3 2   
     6    2    4 1   
     7    2    5 1   
     8    5    8 1   
     9    5   20 1   
    10    5   21 1   
    11    6    7 1   
    12    6   10 2   
    13    7    8 1   
    14    8    9 1   
    15    8   22 1   
    16    9   10 1   
    17    9   23 1   
    18    9   24 1   
    19   10   12 1   
    20   11   12 ar  
    21   11   16 ar  
    22   11   29 1   
    23   12   13 ar  
    24   13   14 ar  
    25   13   26 1   
    26   14   15 ar  
    27   14   27 1   
    28   15   16 ar  
    29   15   30 1   
    30   16   28 1   
    31   25   30 1   
@<TRIPOS>SUBSTRUCTURE
     1 HDI         1 TEMP              0 ****  ****    0 ROOT
