@<TRIPOS>MOLECULE
HDL
   21    20     1     0     0
SMALL
bcc


@<TRIPOS>ATOM
      1 O1A        -2.8650    1.3310   -2.2440 o         1 HDL     -0.817800
      2 C1         -1.6120    1.4400   -2.2500 c         1 HDL      0.899600
      3 O1B        -1.0000    1.6380   -3.3390 o         1 HDL     -0.817800
      4 C2         -0.8470    1.4300   -0.9430 c3        1 HDL     -0.032900
      5 O2         -1.5990    2.0870    0.0440 oh        1 HDL     -0.647800
      6 C3         -0.5950    0.0000   -0.5170 c3        1 HDL      0.112100
      7 O3         -1.5720   -0.3890    0.4190 oh        1 HDL     -0.657800
      8 C4          0.7750   -0.1040    0.1120 c3        1 HDL      0.068100
      9 O4          1.7590    0.0400   -0.8820 oh        1 HDL     -0.589800
     10 C5          0.9240   -1.4610    0.7790 c         1 HDL      0.601100
     11 O5          0.5450   -2.4680    0.2030 o         1 HDL     -0.572100
     12 N6          1.5260   -1.5600    2.0750 n         1 HDL     -0.362400
     13 O6          1.6870   -2.8010    2.6710 oh        1 HDL     -0.450100
     14 H2          0.0080    1.8900   -1.0630 h1        1 HDL      0.069700
     15 HO2        -1.5200    2.9660   -0.0600 ho        1 HDL      0.430000
     16 H3         -0.6400   -0.5860   -1.3000 h1        1 HDL      0.067700
     17 HO3        -2.1030   -1.0120    0.0550 ho        1 HDL      0.460000
     18 H4          0.8810    0.6000    0.7800 h1        1 HDL      0.068700
     19 HO4         2.4560    0.4660   -0.5470 ho        1 HDL      0.426000
     20 H8          1.7890   -0.8100    2.5130 hn        1 HDL      0.326500
     21 H9          2.0040   -2.6960    3.4930 ho        1 HDL      0.421000
@<TRIPOS>BOND
     1    1    2 1   
     2    2    3 1   
     3    2    4 1   
     4    4    5 1   
     5    4    6 1   
     6    4   14 1   
     7    5   15 1   
     8    6    7 1   
     9    6    8 1   
    10    6   16 1   
    11    7   17 1   
    12    8    9 1   
    13    8   10 1   
    14    8   18 1   
    15    9   19 1   
    16   10   11 2   
    17   10   12 1   
    18   12   13 1   
    19   12   20 1   
    20   13   21 1   
@<TRIPOS>SUBSTRUCTURE
     1 HDL         1 TEMP              0 ****  ****    0 ROOT
