@<TRIPOS>MOLECULE
HDL
   21    20     1     0     0
SMALL
bcc


@<TRIPOS>ATOM
      1 O1A        -3.4310    0.3390   -1.2400 o         1 HDL     -0.823800
      2 C1         -2.8050   -0.1420   -0.2660 c         1 HDL      0.893600
      3 O1B        -3.0450   -1.2510    0.3030 o         1 HDL     -0.823800
      4 C2         -1.5980    0.6390    0.3230 c3        1 HDL     -0.021900
      5 O2         -1.5820    0.5450    1.7360 oh        1 HDL     -0.627800
      6 C3         -0.3030    0.0300   -0.2430 c3        1 HDL      0.112100
      7 O3         -0.1220   -1.3130    0.1770 oh        1 HDL     -0.661800
      8 C4          0.9190    0.8360    0.2450 c3        1 HDL      0.068100
      9 O4          0.9550    2.1160   -0.3490 oh        1 HDL     -0.579800
     10 C5          2.2180    0.0990   -0.0720 c         1 HDL      0.576100
     11 O5          2.9590    0.4580   -1.0060 o         1 HDL     -0.608100
     12 N6          2.6280   -0.9280    0.8290 n         1 HDL     -0.347400
     13 O6          3.5760   -1.7470    0.3570 oh        1 HDL     -0.448100
     14 H2         -1.6420    1.7310    0.0790 h1        1 HDL      0.078700
     15 HO2        -2.0150   -0.2930    1.9610 ho        1 HDL      0.420000
     16 H3         -0.3450    0.0510   -1.3680 h1        1 HDL      0.051700
     17 HO3        -1.0070   -1.6940    0.3260 ho        1 HDL      0.463000
     18 H4          0.8190    1.0320    1.3510 h1        1 HDL      0.119700
     19 HO4         1.0870    1.9900   -1.2990 ho        1 HDL      0.411000
     20 H8          1.8390   -1.5060    1.1180 hn        1 HDL      0.328500
     21 H9          4.3550   -1.1840    0.1840 ho        1 HDL      0.421000
@<TRIPOS>BOND
     1    1    2 1   
     2    2    3 1   
     3    2    4 1   
     4    4    5 1   
     5    4    6 1   
     6    4   14 1   
     7    5   15 1   
     8    6    7 1   
     9    6    8 1   
    10    6   16 1   
    11    7   17 1   
    12    8    9 1   
    13    8   10 1   
    14    8   18 1   
    15    9   19 1   
    16   10   11 2   
    17   10   12 1   
    18   12   13 1   
    19   12   20 1   
    20   13   21 1   
@<TRIPOS>SUBSTRUCTURE
     1 HDL         1 TEMP              0 ****  ****    0 ROOT
