@<TRIPOS>MOLECULE
HDN
    7     6     1     0     0
SMALL
bcc


@<TRIPOS>ATOM
      1 N1         -0.0030    0.0190   -0.0460 n2        1 HDN     -0.342400
      2 N2          1.1660   -0.2270    0.0880 n2        1 HDN     -0.168200
      3 C1          1.9580   -0.0660    1.2980 c3        1 HDN     -0.002900
      4 HN1        -0.5460    0.3810    0.7380 hn        1 HDN      0.333400
      5 H11         2.3870   -1.0700    1.5530 h1        1 HDN      0.060367
      6 H12         2.8020    0.6310    1.0550 h1        1 HDN      0.060367
      7 H13         1.4050    0.3310    2.1910 h1        1 HDN      0.060367
@<TRIPOS>BOND
     1    1    2 2   
     2    1    4 1   
     3    2    3 1   
     4    3    5 1   
     5    3    6 1   
     6    3    7 1   
@<TRIPOS>SUBSTRUCTURE
     1 HDN         1 TEMP              0 ****  ****    0 ROOT
