@<TRIPOS>MOLECULE
HDN
    7     6     1     0     0
SMALL
bcc


@<TRIPOS>ATOM
      1 N1         -0.0130   -0.0340   -0.0320 n2        1 HDN     -0.342400
      2 N2          1.1560    0.2150    0.0870 n2        1 HDN     -0.168200
      3 C1          1.9610    0.0710    1.2900 c3        1 HDN     -0.002900
      4 HN1        -0.5480   -0.3880    0.7620 hn        1 HDN      0.333400
      5 H11         2.3900    1.0790    1.5290 h1        1 HDN      0.060367
      6 H12         1.4180   -0.3160    2.1940 h1        1 HDN      0.060367
      7 H13         2.8040   -0.6270    1.0470 h1        1 HDN      0.060367
@<TRIPOS>BOND
     1    1    2 2   
     2    1    4 1   
     3    2    3 1   
     4    3    5 1   
     5    3    6 1   
     6    3    7 1   
@<TRIPOS>SUBSTRUCTURE
     1 HDN         1 TEMP              0 ****  ****    0 ROOT
