@<TRIPOS>MOLECULE
HDN
    7     6     1     0     0
SMALL
bcc


@<TRIPOS>ATOM
      1 N1         -0.1410   -0.3310   -1.1030 n2        1 HDN     -0.399400
      2 N2          0.2390    0.3380   -0.1590 n2        1 HDN     -0.234200
      3 C1         -0.2060    0.0330    1.1900 c3        1 HDN      0.063100
      4 HN1         0.2570    0.0050   -1.9770 hn        1 HDN      0.393400
      5 H11         0.7170   -0.1620    1.7980 h1        1 HDN      0.059033
      6 H12        -0.7100    0.9560    1.5790 h1        1 HDN      0.059033
      7 H13        -0.9060   -0.8380    1.3010 h1        1 HDN      0.059033
@<TRIPOS>BOND
     1    1    2 2   
     2    1    4 1   
     3    2    3 1   
     4    3    5 1   
     5    3    6 1   
     6    3    7 1   
@<TRIPOS>SUBSTRUCTURE
     1 HDN         1 TEMP              0 ****  ****    0 ROOT
