@<TRIPOS>MOLECULE
HDN
    7     6     1     0     0
SMALL
bcc


@<TRIPOS>ATOM
      1 N1          0.0030    0.0000   -0.0500 n2        1 HDN     -0.340400
      2 N2          1.2010    0.0000    0.0460 n2        1 HDN     -0.167200
      3 C1          1.9680    0.0000    1.2870 c3        1 HDN     -0.004900
      4 HN1        -0.5830   -0.0000    0.7840 hn        1 HDN      0.332400
      5 H11         1.7650   -0.9110    1.9090 h1        1 HDN      0.060033
      6 H12         3.0500   -0.0000    0.9930 h1        1 HDN      0.060033
      7 H13         1.7650    0.9110    1.9090 h1        1 HDN      0.060033
@<TRIPOS>BOND
     1    1    2 2   
     2    1    4 1   
     3    2    3 1   
     4    3    5 1   
     5    3    6 1   
     6    3    7 1   
@<TRIPOS>SUBSTRUCTURE
     1 HDN         1 TEMP              0 ****  ****    0 ROOT
