@<TRIPOS>MOLECULE
HDP
   37    38     1     0     0
SMALL
bcc


@<TRIPOS>ATOM
      1 P           2.3570   -1.2960    0.9730 p5        1 HDP      1.346900
      2 OP1         0.9470   -1.7180    0.6110 o         1 HDP     -0.925833
      3 OP2         3.4700   -2.2670    0.7530 o         1 HDP     -0.925833
      4 O5'         2.5840   -0.0940   -0.2530 os        1 HDP     -0.573200
      5 C5B         2.6680    1.2110    0.1430 c3        1 HDP      0.234400
      6 C4'         1.3230    1.9840    0.0700 c3        1 HDP     -0.118500
      7 C1'        -1.6390    1.6640   -0.3810 c3        1 HDP      0.164900
      8 N1         -2.3960    0.4030   -0.3470 n         1 HDP     -0.348000
      9 C6         -1.7670   -0.8220   -0.1800 cc        1 HDP      0.067600
     10 C2         -3.7920    0.4550   -0.5410 c         1 HDP      0.787500
     11 O2         -4.4260    1.5320   -0.7060 o         1 HDP     -0.722500
     12 N3         -4.5140   -0.7480   -0.5550 n         1 HDP     -0.597500
     13 C4         -3.9080   -2.0130   -0.3880 c         1 HDP      0.714700
     14 O4         -4.6650   -3.0070   -0.4280 o         1 HDP     -0.693500
     15 C5         -2.4640   -2.0050   -0.1920 cd        1 HDP     -0.298400
     16 C5A        -1.7610   -3.2880    0.0100 c3        1 HDP     -0.043900
     17 C2'        -1.0310    2.0530    0.9760 c3        1 HDP     -0.084400
     18 C3'         0.3770    1.5100    1.1800 c3        1 HDP      0.136100
     19 O3'         0.8320    1.9780    2.4410 oh        1 HDP     -0.671800
     20 C5'         0.6970    1.8290   -1.2640 c2        1 HDP     -0.045200
     21 C6'        -0.6130    1.6710   -1.4750 c2        1 HDP     -0.267200
     22 OP3         2.3850   -0.4520    2.2260 o         1 HDP     -0.925833
     23 H5'1        3.0490    1.2950    1.2010 h1        1 HDP     -0.003300
     24 H5''        3.3810    1.7530   -0.5520 h1        1 HDP     -0.003300
     25 H4'         1.5530    3.0750    0.2330 hc        1 HDP      0.026700
     26 H1'        -2.4000    2.4700   -0.6370 h1        1 HDP      0.062700
     27 H6         -0.6340   -0.8370   -0.0170 h4        1 HDP      0.314000
     28 H3         -5.4970   -0.6820   -0.6840 hn        1 HDP      0.317500
     29 H51        -2.2320   -3.8580    0.8480 hc        1 HDP      0.058033
     30 H52        -1.8280   -3.9150   -0.9130 hc        1 HDP      0.058033
     31 H53        -0.6730   -3.0950    0.2530 hc        1 HDP      0.058033
     32 H2'        -1.0000    3.1740    1.0170 hc        1 HDP      0.037700
     33 H2''       -1.6790    1.7070    1.8210 hc        1 HDP      0.037700
     34 H3'         0.3900    0.3710    1.1800 h1        1 HDP      0.130700
     35 HO3'        1.4680    1.3000    2.7520 ho        1 HDP      0.478000
     36 H5'         1.4050    1.8210   -2.1110 ha        1 HDP      0.114000
     37 H6'        -1.0140    1.5300   -2.4900 ha        1 HDP      0.102000
@<TRIPOS>BOND
     1    1    2 1   
     2    1    3 1   
     3    1    4 1   
     4    1   22 1   
     5    4    5 1   
     6    5    6 1   
     7    5   23 1   
     8    5   24 1   
     9    6   18 1   
    10    6   20 1   
    11    6   25 1   
    12    7    8 1   
    13    7   17 1   
    14    7   21 1   
    15    7   26 1   
    16    8    9 1   
    17    8   10 1   
    18    9   15 2   
    19    9   27 1   
    20   10   11 2   
    21   10   12 1   
    22   12   13 1   
    23   12   28 1   
    24   13   14 2   
    25   13   15 1   
    26   15   16 1   
    27   16   29 1   
    28   16   30 1   
    29   16   31 1   
    30   17   18 1   
    31   17   32 1   
    32   17   33 1   
    33   18   19 1   
    34   18   34 1   
    35   19   35 1   
    36   20   21 2   
    37   20   36 1   
    38   21   37 1   
@<TRIPOS>SUBSTRUCTURE
     1 HDP         1 TEMP              0 ****  ****    0 ROOT
