@<TRIPOS>MOLECULE
HDS
   53    52     1     0     0
SMALL
bcc


@<TRIPOS>ATOM
      1 C1          0.7480    0.0080   -6.4540 c3        1 HDS     -0.290600
      2 C2         -0.1120   -0.0010   -5.2230 c3        1 HDS     -0.038400
      3 C3          0.7100    0.0080   -3.9510 c3        1 HDS     -0.073400
      4 C4         -0.1730   -0.0020   -2.7220 c3        1 HDS     -0.079400
      5 C5          0.6470    0.0070   -1.4500 c3        1 HDS     -0.078400
      6 C6         -0.2370   -0.0030   -0.2220 c3        1 HDS     -0.079400
      7 C7          0.5840    0.0060    1.0500 c3        1 HDS     -0.078400
      8 C8         -0.3010   -0.0030    2.2780 c3        1 HDS     -0.079400
      9 C9          0.5200    0.0060    3.5490 c3        1 HDS     -0.078400
     10 C10        -0.3650   -0.0040    4.7770 c3        1 HDS     -0.079400
     11 C11         0.4560    0.0050    6.0480 c3        1 HDS     -0.078400
     12 C12        -0.4300   -0.0050    7.2760 c3        1 HDS     -0.079400
     13 C13         0.3920    0.0040    8.5470 c3        1 HDS     -0.079400
     14 C14        -0.4940   -0.0050    9.7740 c3        1 HDS     -0.079400
     15 C15         0.3260    0.0040   11.0470 c3        1 HDS     -0.080400
     16 C16        -0.5520   -0.0060   12.2710 c3        1 HDS     -0.092100
     17 S1         -0.2060   -0.0020   -7.9570 s6        1 HDS      1.426800
     18 O1S        -0.9650   -1.1970   -7.9090 o         1 HDS     -0.753533
     19 O2S        -0.9910    1.1760   -7.9090 o         1 HDS     -0.753533
     20 O3S         0.7750    0.0080   -8.9790 o         1 HDS     -0.753533
     21 H11         1.4030    0.9120   -6.4530 h1        1 HDS      0.060700
     22 H12         1.4220   -0.8810   -6.4530 h1        1 HDS      0.060700
     23 H21        -0.7680   -0.9130   -5.2390 hc        1 HDS      0.046700
     24 H22        -0.7880    0.8960   -5.2390 hc        1 HDS      0.046700
     25 H31         1.3660    0.9170   -3.9360 hc        1 HDS      0.028700
     26 H32         1.3860   -0.8870   -3.9360 hc        1 HDS      0.028700
     27 H41        -0.8300   -0.9110   -2.7400 hc        1 HDS      0.037700
     28 H42        -0.8500    0.8930   -2.7400 hc        1 HDS      0.037700
     29 H51         1.3040    0.9160   -1.4330 hc        1 HDS      0.034700
     30 H52         1.3230   -0.8880   -1.4330 hc        1 HDS      0.034700
     31 H61        -0.8940   -0.9120   -0.2390 hc        1 HDS      0.037700
     32 H62        -0.9130    0.8920   -0.2390 hc        1 HDS      0.037700
     33 H71         1.2400    0.9160    1.0670 hc        1 HDS      0.036700
     34 H72         1.2600   -0.8890    1.0670 hc        1 HDS      0.036700
     35 H81        -0.9580   -0.9130    2.2600 hc        1 HDS      0.038700
     36 H82        -0.9770    0.8920    2.2600 hc        1 HDS      0.038700
     37 H91         1.1770    0.9150    3.5660 hc        1 HDS      0.037700
     38 H92         1.1960   -0.8900    3.5660 hc        1 HDS      0.037700
     39 H101       -1.0220   -0.9140    4.7590 hc        1 HDS      0.038700
     40 H102       -1.0420    0.8910    4.7600 hc        1 HDS      0.038700
     41 H111        1.1120    0.9140    6.0650 hc        1 HDS      0.038700
     42 H112        1.1320   -0.8900    6.0650 hc        1 HDS      0.038700
     43 H121       -1.0860   -0.9140    7.2580 hc        1 HDS      0.038700
     44 H122       -1.1060    0.8910    7.2580 hc        1 HDS      0.038700
     45 H131        1.0480    0.9140    8.5640 hc        1 HDS      0.038700
     46 H132        1.0670   -0.8910    8.5640 hc        1 HDS      0.038700
     47 H141       -1.1510   -0.9150    9.7570 hc        1 HDS      0.038700
     48 H142       -1.1700    0.8900    9.7570 hc        1 HDS      0.038700
     49 H151        0.9830    0.9130   11.0610 hc        1 HDS      0.037700
     50 H152        1.0030   -0.8920   11.0610 hc        1 HDS      0.037700
     51 H161        0.0730    0.0010   13.1970 hc        1 HDS      0.031033
     52 H162       -1.2160    0.8920   12.2870 hc        1 HDS      0.031033
     53 H163       -1.1960   -0.9180   12.2870 hc        1 HDS      0.031033
@<TRIPOS>BOND
     1    1    2 1   
     2    1   17 1   
     3    1   21 1   
     4    1   22 1   
     5    2    3 1   
     6    2   23 1   
     7    2   24 1   
     8    3    4 1   
     9    3   25 1   
    10    3   26 1   
    11    4    5 1   
    12    4   27 1   
    13    4   28 1   
    14    5    6 1   
    15    5   29 1   
    16    5   30 1   
    17    6    7 1   
    18    6   31 1   
    19    6   32 1   
    20    7    8 1   
    21    7   33 1   
    22    7   34 1   
    23    8    9 1   
    24    8   35 1   
    25    8   36 1   
    26    9   10 1   
    27    9   37 1   
    28    9   38 1   
    29   10   11 1   
    30   10   39 1   
    31   10   40 1   
    32   11   12 1   
    33   11   41 1   
    34   11   42 1   
    35   12   13 1   
    36   12   43 1   
    37   12   44 1   
    38   13   14 1   
    39   13   45 1   
    40   13   46 1   
    41   14   15 1   
    42   14   47 1   
    43   14   48 1   
    44   15   16 1   
    45   15   49 1   
    46   15   50 1   
    47   16   51 1   
    48   16   52 1   
    49   16   53 1   
    50   17   18 1   
    51   17   19 1   
    52   17   20 1   
@<TRIPOS>SUBSTRUCTURE
     1 HDS         1 TEMP              0 ****  ****    0 ROOT
