@<TRIPOS>MOLECULE
HDT
   40    43     1     0     0
SMALL
bcc


@<TRIPOS>ATOM
      1 C22        -1.6810    0.2250    2.9100 ca        1 HDT     -0.180500
      2 N1          0.1950    0.0480   -5.1980 na        1 HDT      0.039700
      3 C2          1.5350    0.1580   -5.4850 cc        1 HDT     -0.076300
      4 C6         -0.7870    0.1630   -6.2410 cc        1 HDT     -0.019300
      5 C5         -0.3410    0.3400   -7.5890 cc        1 HDT     -0.092000
      6 C4          1.0020    0.4180   -7.8460 cd        1 HDT     -0.117000
      7 C3          1.9490    0.3340   -6.7870 cd        1 HDT     -0.162000
      8 C11         1.2350   -1.0330   -2.4900 ca        1 HDT     -0.422600
      9 C10         0.0470   -0.2870   -2.6750 ca        1 HDT      0.584100
     10 C9         -0.5180   -0.1030   -4.0010 cc        1 HDT     -0.290900
     11 C8         -1.8960   -0.0630   -4.3660 cd        1 HDT      0.083600
     12 C12         1.6900   -1.1850   -1.1710 ca        1 HDT      0.468200
     13 C17        -0.5670    0.4100    2.0510 ca        1 HDT      0.216600
     14 C14        -0.0970    0.0460   -0.3670 ca        1 HDT      0.882900
     15 N15        -0.6350    0.2490   -1.6320 nb        1 HDT     -0.743000
     16 C18         0.7250    0.4290    2.6200 ca        1 HDT     -0.180500
     17 C19         0.8820    0.2550    3.9890 ca        1 HDT      0.002000
     18 C20        -0.2130    0.0750    4.8410 ca        1 HDT     -0.412500
     19 O26         1.2900   -0.6950    6.7100 o         1 HDT     -0.660300
     20 S23         0.0030   -0.1560    6.4960 sy        1 HDT      1.531200
     21 O25        -1.1030   -0.8790    6.9950 o         1 HDT     -0.660300
     22 N24        -0.0420    1.3350    7.0860 n3        1 HDT     -1.026700
     23 C21        -1.4920    0.0620    4.2740 ca        1 HDT      0.002000
     24 N16        -0.8020    0.6570    0.6890 nh        1 HDT     -0.724300
     25 N13         1.0640   -0.6670   -0.1030 nb        1 HDT     -0.735000
     26 N7         -2.0560    0.0870   -5.7210 nd        1 HDT     -0.288600
     27 H22        -2.7030    0.2040    2.5020 ha        1 HDT      0.152500
     28 H5         -1.1050    0.4120   -8.3770 ha        1 HDT      0.168000
     29 H4          1.3700    0.5530   -8.8740 ha        1 HDT      0.147000
     30 H3          3.0220    0.4140   -7.0080 ha        1 HDT      0.154000
     31 H11         1.7560   -1.5080   -3.3270 ha        1 HDT      0.156000
     32 H8         -2.7460   -0.1430   -3.6840 h4        1 HDT      0.194000
     33 H12         2.6070   -1.7610   -0.9460 h4        1 HDT      0.032100
     34 H18         1.6190    0.5830    1.9970 ha        1 HDT      0.152500
     35 H19         1.9020    0.2470    4.4170 ha        1 HDT      0.154000
     36 H241        0.7590    1.9020    7.1990 hn        1 HDT      0.445800
     37 H242       -0.8700    1.7740    7.3990 hn        1 HDT      0.445800
     38 H21        -2.3690   -0.1080    4.9260 ha        1 HDT      0.154000
     39 H16        -1.7350    0.9430    0.4650 hn        1 HDT      0.452800
     40 H2          2.2330    0.1100   -4.6310 h4        1 HDT      0.171000
@<TRIPOS>BOND
     1    1   13 ar  
     2    1   23 ar  
     3    1   27 1   
     4    2    3 1   
     5    2    4 1   
     6    2   10 1   
     7    3    7 2   
     8    3   40 1   
     9    4    5 1   
    10    4   26 2   
    11    5    6 2   
    12    5   28 1   
    13    6    7 1   
    14    6   29 1   
    15    7   30 1   
    16    8    9 ar  
    17    8   12 ar  
    18    8   31 1   
    19    9   10 1   
    20    9   15 ar  
    21   10   11 2   
    22   11   26 1   
    23   11   32 1   
    24   12   25 ar  
    25   12   33 1   
    26   13   16 ar  
    27   13   24 1   
    28   14   15 ar  
    29   14   24 1   
    30   14   25 ar  
    31   16   17 ar  
    32   16   34 1   
    33   17   18 ar  
    34   17   35 1   
    35   18   20 1   
    36   18   23 ar  
    37   19   20 2   
    38   20   21 2   
    39   20   22 1   
    40   22   36 1   
    41   22   37 1   
    42   23   38 1   
    43   24   39 1   
@<TRIPOS>SUBSTRUCTURE
     1 HDT         1 TEMP              0 ****  ****    0 ROOT
