@<TRIPOS>MOLECULE
HDT
   42    45     1     0     0
SMALL
bcc


@<TRIPOS>ATOM
      1 C22         0.6210   -1.1150    0.6010 ca        1 HDT     -0.111500
      2 N1          7.2490   -0.8900   -3.4450 na        1 HDT      0.066700
      3 C2          8.0180   -1.8520   -2.8460 cc        1 HDT     -0.088300
      4 C6          7.8580    0.0900   -4.2890 cc        1 HDT      0.021700
      5 C5          9.2490    0.0140   -4.5670 cc        1 HDT     -0.085000
      6 C4          9.9910   -0.9930   -3.9870 cd        1 HDT     -0.076000
      7 C3          9.3760   -1.9220   -3.1150 cd        1 HDT     -0.128000
      8 C11         4.8930   -2.6150   -2.3370 ca        1 HDT     -0.349600
      9 C10         4.8250   -1.2350   -2.7060 ca        1 HDT      0.630100
     10 C9          5.8810   -0.5430   -3.3580 cc        1 HDT     -0.378900
     11 C8          5.7480    0.6620   -4.1590 cd        1 HDT      0.139600
     12 C12         3.7930   -3.1980   -1.7030 ca        1 HDT      0.474200
     13 C17         1.1640   -0.1400   -0.2550 ca        1 HDT      0.088600
     14 C14         2.6630   -1.2230   -1.8730 ca        1 HDT      0.719900
     15 N15         3.6680   -0.5220   -2.4620 nb        1 HDT     -0.722000
     16 C18         1.5100    1.1310    0.2390 ca        1 HDT     -0.111500
     17 C19         1.3100    1.4120    1.5880 ca        1 HDT      0.020500
     18 C20         0.7700    0.4550    2.4670 ca        1 HDT     -0.475500
     19 O26         1.4300    1.8410    4.4630 o         1 HDT     -0.535300
     20 S23         0.6950    0.7440    4.0790 sy        1 HDT      1.466200
     21 O25         0.5510   -0.4010    4.8250 o         1 HDT     -0.535300
     22 N24        -1.0560    1.4470    4.1840 n4        1 HDT     -0.800500
     23 C21         0.4320   -0.8080    1.9460 ca        1 HDT      0.020500
     24 N16         1.3790   -0.4510   -1.6720 n4        1 HDT     -0.636100
     25 N13         2.6460   -2.5210   -1.4420 nb        1 HDT     -0.723000
     26 N7          6.9170    1.0270   -4.7200 nd        1 HDT     -0.257600
     27 H22         0.3680   -2.1300    0.2340 ha        1 HDT      0.203000
     28 H4         11.0720   -1.0790   -4.1900 ha        1 HDT      0.179000
     29 H3          9.9790   -2.7100   -2.6360 ha        1 HDT      0.179000
     30 H11         5.7690   -3.2270   -2.5910 ha        1 HDT      0.188000
     31 H8          4.8200    1.2170   -4.3250 h4        1 HDT      0.195000
     32 H12         3.7920   -4.2610   -1.3880 h4        1 HDT      0.071100
     33 H18         1.9560    1.9060   -0.4120 ha        1 HDT      0.203000
     34 H19         1.6150    2.4080    1.9740 ha        1 HDT      0.197000
     35 H241       -1.6300    0.8800    4.8150 hn        1 HDT      0.470467
     36 H242       -1.5400    1.4920    3.2920 hn        1 HDT      0.470467
     37 H21         0.0330   -1.5950    2.6190 ha        1 HDT      0.197000
     38 H16         1.4250    0.4220   -2.2220 hn        1 HDT      0.489300
     39 H2          7.5290   -2.5420   -2.1380 h4        1 HDT      0.170000
     40 H243       -1.0370    2.3960    4.5700 hn        1 HDT      0.470467
     41 H162        0.6010   -1.0340   -2.0210 hn        1 HDT      0.489300
     42 H5          9.6920    0.7690   -5.2370 ha        1 HDT      0.197000
@<TRIPOS>BOND
     1    1   13 ar  
     2    1   23 ar  
     3    1   27 1   
     4    2    3 1   
     5    2    4 1   
     6    2   10 1   
     7    3    7 2   
     8    3   39 1   
     9    4    5 1   
    10    4   26 2   
    11    5    6 2   
    12    5   42 1   
    13    6    7 1   
    14    6   28 1   
    15    7   29 1   
    16    8    9 ar  
    17    8   12 ar  
    18    8   30 1   
    19    9   10 1   
    20    9   15 ar  
    21   10   11 2   
    22   11   26 1   
    23   11   31 1   
    24   12   25 ar  
    25   12   32 1   
    26   13   16 ar  
    27   13   24 1   
    28   14   15 ar  
    29   14   24 1   
    30   14   25 ar  
    31   16   17 ar  
    32   16   33 1   
    33   17   18 ar  
    34   17   34 1   
    35   18   20 1   
    36   18   23 ar  
    37   19   20 2   
    38   20   21 2   
    39   20   22 1   
    40   22   35 1   
    41   22   36 1   
    42   22   40 1   
    43   23   37 1   
    44   24   38 1   
    45   24   41 1   
@<TRIPOS>SUBSTRUCTURE
     1 HDT         1 TEMP              0 ****  ****    0 ROOT
