@<TRIPOS>MOLECULE
HDT
   41    44     1     0     0
SMALL
bcc


@<TRIPOS>ATOM
      1 C22         0.0030   -0.1410    0.0640 ca        1 HDT     -0.220500
      2 N1          7.3780   -0.8900   -3.8920 na        1 HDT      0.049700
      3 C2          8.4870   -0.8740   -3.0810 cc        1 HDT     -0.088300
      4 C6          7.5060   -0.6580   -5.3010 cc        1 HDT     -0.002300
      5 C5          8.8090   -0.4770   -5.8590 cc        1 HDT     -0.088000
      6 C4          9.9010   -0.5020   -5.0280 cd        1 HDT     -0.105000
      7 C3          9.7400   -0.6920   -3.6290 cd        1 HDT     -0.146000
      8 C11         6.0080   -2.0640   -1.3660 ca        1 HDT     -0.380600
      9 C10         5.3640   -1.3000   -2.3740 ca        1 HDT      0.603100
     10 C9          6.0020   -1.0160   -3.6380 cc        1 HDT     -0.334900
     11 C8          5.3600   -0.8430   -4.9080 cd        1 HDT      0.108600
     12 C12         5.2980   -2.2980   -0.1810 ca        1 HDT      0.464200
     13 C17         1.3970   -0.4760    0.2230 ca        1 HDT      0.335600
     14 C14         3.4820   -1.1420   -1.0060 ca        1 HDT      0.847900
     15 N15         4.0940   -0.8360   -2.2040 nb        1 HDT     -0.721000
     16 C18         1.8990   -0.5340    1.5630 ca        1 HDT     -0.220500
     17 C19         1.0700   -0.3110    2.6300 ca        1 HDT      0.052000
     18 C20        -0.3120   -0.0010    2.4850 ca        1 HDT     -0.668500
     19 O26        -0.7520   -0.2510    4.9370 o         1 HDT     -0.582800
     20 S23        -1.2560    0.1540    3.7190 sy        1 HDT      1.521200
     21 O25        -2.6110    0.1280    3.4650 o         1 HDT     -0.582800
     22 N24        -1.0530    2.1050    3.9660 nz        1 HDT     -0.777500
     23 C21        -0.7990    0.0730    1.1500 ca        1 HDT      0.052000
     24 N16         2.1290   -0.6910   -0.9030 nu        1 HDT     -0.685300
     25 N13         4.0450   -1.8510    0.0340 nb        1 HDT     -0.732000
     26 N7          6.2670   -0.6400   -5.9080 nd        1 HDT     -0.279600
     27 H22        -0.4310   -0.0740   -0.9490 ha        1 HDT      0.182000
     28 H4         10.9160   -0.3680   -5.4330 ha        1 HDT      0.159000
     29 H3         10.6230   -0.6900   -2.9730 ha        1 HDT      0.163000
     30 H11         7.0040   -2.4960   -1.5190 ha        1 HDT      0.171000
     31 H8          4.2840   -0.8750   -5.0950 h4        1 HDT      0.194000
     32 H12         5.7380   -2.8850    0.6490 h4        1 HDT      0.046100
     33 H18         2.9590   -0.7680    1.7580 ha        1 HDT      0.182000
     34 H19         1.4840   -0.3890    3.6540 ha        1 HDT      0.163000
     35 H241       -1.9560    2.5610    3.8820 hn        1 HDT      0.443467
     36 H242       -0.6840    2.3010    4.8910 hn        1 HDT      0.443467
     37 H21        -1.8730    0.2940    0.9940 ha        1 HDT      0.163000
     38 H16         1.6820   -0.5070   -1.7840 hn        1 HDT      0.480800
     39 H2          8.3230   -0.9940   -1.9970 h4        1 HDT      0.167000
     40 H243       -0.4260    2.5070    3.2800 hn        1 HDT      0.443467
     41 H5          8.8880   -0.3190   -6.9450 ha        1 HDT      0.179000
@<TRIPOS>BOND
     1    1   13 ar  
     2    1   23 ar  
     3    1   27 1   
     4    2    3 1   
     5    2    4 1   
     6    2   10 1   
     7    3    7 2   
     8    3   39 1   
     9    4    5 1   
    10    4   26 2   
    11    5    6 2   
    12    5   41 1   
    13    6    7 1   
    14    6   28 1   
    15    7   29 1   
    16    8    9 ar  
    17    8   12 ar  
    18    8   30 1   
    19    9   10 1   
    20    9   15 ar  
    21   10   11 2   
    22   11   26 1   
    23   11   31 1   
    24   12   25 ar  
    25   12   32 1   
    26   13   16 ar  
    27   13   24 1   
    28   14   15 ar  
    29   14   24 1   
    30   14   25 ar  
    31   16   17 ar  
    32   16   33 1   
    33   17   18 ar  
    34   17   34 1   
    35   18   20 1   
    36   18   23 ar  
    37   19   20 2   
    38   20   21 2   
    39   20   22 1   
    40   22   35 1   
    41   22   36 1   
    42   22   40 1   
    43   23   37 1   
    44   24   38 1   
@<TRIPOS>SUBSTRUCTURE
     1 HDT         1 TEMP              0 ****  ****    0 ROOT
