@<TRIPOS>MOLECULE
HDT
   41    44     1     0     0
SMALL
bcc


@<TRIPOS>ATOM
      1 C22         0.0010   -0.1080    0.0590 ca        1 HDT     -0.220500
      2 N1          7.3810   -0.8720   -3.8850 na        1 HDT      0.049700
      3 C2          8.4860   -0.9020   -3.0680 cc        1 HDT     -0.088300
      4 C6          7.5230   -0.5990   -5.2850 cc        1 HDT     -0.002300
      5 C5          8.8320   -0.4250   -5.8300 cc        1 HDT     -0.088000
      6 C4          9.9180   -0.4960   -4.9950 cd        1 HDT     -0.105000
      7 C3          9.7450   -0.7260   -3.6040 cd        1 HDT     -0.146000
      8 C11         5.9750   -2.0990   -1.4040 ca        1 HDT     -0.380600
      9 C10         5.3520   -1.2920   -2.3920 ca        1 HDT      0.603100
     10 C9          6.0020   -0.9810   -3.6420 cc        1 HDT     -0.334900
     11 C8          5.3710   -0.7570   -4.9100 cd        1 HDT      0.108600
     12 C12         5.2540   -2.3570   -0.2310 ca        1 HDT      0.464200
     13 C17         1.3900   -0.4670    0.2100 ca        1 HDT      0.335600
     14 C14         3.4650   -1.1420   -1.0290 ca        1 HDT      0.847900
     15 N15         4.0890   -0.8100   -2.2140 nb        1 HDT     -0.720000
     16 C18         1.8910   -0.5580    1.5490 ca        1 HDT     -0.220500
     17 C19         1.0650   -0.3440    2.6200 ca        1 HDT      0.052000
     18 C20        -0.3120   -0.0110    2.4820 ca        1 HDT     -0.668500
     19 O26        -0.7550   -0.3030    4.9290 o         1 HDT     -0.582800
     20 S23        -1.2540    0.1330    3.7190 sy        1 HDT      1.522200
     21 O25        -2.6090    0.1320    3.4640 o         1 HDT     -0.582800
     22 N24        -1.0230    2.0760    4.0030 n4        1 HDT     -0.777500
     23 C21        -0.7980    0.0970    1.1490 ca        1 HDT      0.052000
     24 N16         2.1190   -0.6710   -0.9190 nh        1 HDT     -0.685300
     25 N13         4.0080   -1.8930   -0.0090 nb        1 HDT     -0.732000
     26 N7          6.2880   -0.5400   -5.8980 nd        1 HDT     -0.279600
     27 H22        -0.4320   -0.0150   -0.9530 ha        1 HDT      0.181500
     28 H4         10.9380   -0.3680   -5.3890 ha        1 HDT      0.159000
     29 H3         10.6240   -0.7610   -2.9430 ha        1 HDT      0.163000
     30 H11         6.9640   -2.5440   -1.5650 ha        1 HDT      0.171000
     31 H8          4.2950   -0.7630   -5.1030 h4        1 HDT      0.195000
     32 H12         5.6790   -2.9760    0.5830 h4        1 HDT      0.046100
     33 H18         2.9480   -0.8100    1.7380 ha        1 HDT      0.181500
     34 H19         1.4780   -0.4470    3.6430 ha        1 HDT      0.163000
     35 H241       -1.9190    2.5470    3.9280 hn        1 HDT      0.443467
     36 H242       -0.6520    2.2490    4.9330 hn        1 HDT      0.443467
     37 H21        -1.8690    0.3360    0.9970 ha        1 HDT      0.163000
     38 H16         1.6770   -0.4620   -1.7970 hn        1 HDT      0.480800
     39 H2          8.3140   -1.0530   -1.9890 h4        1 HDT      0.167000
     40 H243       -0.3900    2.4830    3.3260 hn        1 HDT      0.443467
     41 H5          8.9200   -0.2340   -6.9100 ha        1 HDT      0.179000
@<TRIPOS>BOND
     1    1   13 ar  
     2    1   23 ar  
     3    1   27 1   
     4    2    3 1   
     5    2    4 1   
     6    2   10 1   
     7    3    7 2   
     8    3   39 1   
     9    4    5 1   
    10    4   26 2   
    11    5    6 2   
    12    5   41 1   
    13    6    7 1   
    14    6   28 1   
    15    7   29 1   
    16    8    9 ar  
    17    8   12 ar  
    18    8   30 1   
    19    9   10 1   
    20    9   15 ar  
    21   10   11 2   
    22   11   26 1   
    23   11   31 1   
    24   12   25 ar  
    25   12   32 1   
    26   13   16 ar  
    27   13   24 1   
    28   14   15 ar  
    29   14   24 1   
    30   14   25 ar  
    31   16   17 ar  
    32   16   33 1   
    33   17   18 ar  
    34   17   34 1   
    35   18   20 1   
    36   18   23 ar  
    37   19   20 2   
    38   20   21 2   
    39   20   22 1   
    40   22   35 1   
    41   22   36 1   
    42   22   40 1   
    43   23   37 1   
    44   24   38 1   
@<TRIPOS>SUBSTRUCTURE
     1 HDT         1 TEMP              0 ****  ****    0 ROOT
