@<TRIPOS>MOLECULE
HDU
   33    26     1     0     0
SMALL
bcc


@<TRIPOS>ATOM
      1 O20        -2.1480    0.5460    4.4430 o         1 HDU     -0.301000
      2 C18        -2.0850    1.5560    3.7710 c1        1 HDU      0.316000
      3 C19        -2.4870    2.8850    4.3660 c2        1 HDU     -0.201500
      4 N17        -1.5880    1.4940    2.4450 n3        1 HDU     -0.326000
      5 C15        -1.1650    0.2540    1.9030 c2        1 HDU      0.165000
      6 N16        -0.5810    0.2130    0.6730 n1        1 HDU     -0.239000
      7 N14        -1.3090   -0.8900    2.6290 n2        1 HDU     -0.162000
      8 C13        -0.8750   -2.0580    2.1330 c1        1 HDU     -0.011000
      9 C12        -0.2900   -2.1000    0.9020 c1        1 HDU     -0.181500
     10 C11        -0.1460   -0.9540    0.1750 c1        1 HDU      0.070500
     11 C7          0.4060   -1.0030   -1.0940 c1        1 HDU     -0.146000
     12 N6          1.5570   -0.4540   -1.5510 n2        1 HDU     -0.027000
     13 C5          1.3980   -0.1860   -2.8730 c1        1 HDU      0.070500
     14 N8          0.1320   -0.5750   -3.2350 n1        1 HDU     -0.151000
     15 C9         -0.4770   -1.0760   -2.1470 c1        1 HDU     -0.021000
     16 C10        -1.5820   -1.5910   -3.0430 c2        1 HDU     -0.201500
     17 C4          2.4540    0.3780   -3.6060 c1        1 HDU     -0.181500
     18 C3          3.6430    0.6590   -2.9880 c1        1 HDU     -0.145000
     19 C2          3.8020    0.3870   -1.6520 c1        1 HDU     -0.145000
     20 C1          2.7570   -0.1720   -0.9270 c1        1 HDU     -0.028000
     21 H191       -2.2920    2.8850    5.3270 ha        1 HDU      0.102833
     22 H192       -3.4460    3.0280    4.2270 ha        1 HDU      0.102833
     23 H193       -1.9830    3.6030    3.9310 ha        1 HDU      0.102833
     24 H17        -1.5170    2.2570    1.9490 hn        1 HDU      0.247000
     25 H13        -0.9780   -2.8770    2.6530 ha        1 HDU      0.171000
     26 H12         0.0260   -2.9500    0.5400 ha        1 HDU      0.164500
     27 H101       -2.1140   -0.8360   -3.3730 ha        1 HDU      0.102833
     28 H102       -1.1900   -2.0710   -3.8020 ha        1 HDU      0.102833
     29 H103       -2.1590   -2.1980   -2.5340 ha        1 HDU      0.102833
     30 H4          2.3400    0.5710   -4.5560 ha        1 HDU      0.164500
     31 H3          4.3770    1.0510   -3.4980 ha        1 HDU      0.148500
     32 H2          4.6500    0.5870   -1.2120 ha        1 HDU      0.148500
     33 H1          2.8710   -0.3640    0.0230 ha        1 HDU      0.184000
@<TRIPOS>BOND
     1    1    2 1   
     2    2    4 1   
     3    3   21 1   
     4    3   22 1   
     5    3   23 1   
     6    4    5 1   
     7    4   24 1   
     8    5    6 1   
     9    5    7 1   
    10    7    8 1   
    11    8   25 1   
    12    9   10 1   
    13    9   26 1   
    14   11   12 1   
    15   11   15 1   
    16   12   20 1   
    17   13   17 1   
    18   14   15 1   
    19   16   27 1   
    20   16   28 1   
    21   16   29 1   
    22   17   30 1   
    23   18   19 1   
    24   18   31 1   
    25   19   32 1   
    26   20   33 1   
@<TRIPOS>SUBSTRUCTURE
     1 HDU         1 TEMP              0 ****  ****    0 ROOT
