@<TRIPOS>MOLECULE
HDU
   34    36     1     0     0
SMALL
bcc


@<TRIPOS>ATOM
      1 O20         1.7750    2.0600   -0.3490 o         1 HDU     -0.394100
      2 C18         1.6560    0.8750   -0.0950 c         1 HDU      0.577100
      3 C19         0.9300    0.2140    1.0220 c3        1 HDU     -0.184100
      4 N17         2.3840   -0.0660   -1.0580 n4        1 HDU     -0.671500
      5 C15         1.5560   -0.3240   -2.2790 ca        1 HDU      0.724900
      6 N16         2.1740   -0.0880   -3.4720 nb        1 HDU     -0.693000
      7 N14         0.2800   -0.7750   -2.0570 nb        1 HDU     -0.714000
      8 C13        -0.4410   -0.9880   -3.1820 ca        1 HDU      0.468200
      9 C12         0.0710   -0.7710   -4.4660 ca        1 HDU     -0.347600
     10 C11         1.4180   -0.3200   -4.5930 ca        1 HDU      0.617100
     11 C7          2.0130   -0.0620   -5.8710 cc        1 HDU     -0.362900
     12 N6          1.6910   -0.7100   -7.0820 na        1 HDU      0.050700
     13 C5          2.4800   -0.0870   -8.0960 cc        1 HDU      0.021700
     14 N8          3.2650    0.9170   -7.5620 nd        1 HDU     -0.277600
     15 C9          3.0060    0.9330   -6.2180 cd        1 HDU      0.191400
     16 C10         3.6480    1.8680   -5.2720 c3        1 HDU     -0.041900
     17 C4          2.3810   -0.5500   -9.4430 cc        1 HDU     -0.091000
     18 C3          1.5500   -1.6080   -9.7230 cd        1 HDU     -0.091000
     19 C2          0.8150   -2.2410   -8.6880 cd        1 HDU     -0.140000
     20 C1          0.9020   -1.7930   -7.3840 cc        1 HDU     -0.089300
     21 H191        0.4960    1.0120    1.6810 hc        1 HDU      0.118700
     22 H192        1.6200   -0.4230    1.6300 hc        1 HDU      0.118700
     23 H193        0.0930   -0.4220    0.6280 hc        1 HDU      0.118700
     24 H17         2.5670   -0.9660   -0.6020 hn        1 HDU      0.474800
     25 H13        -1.4790   -1.3390   -3.0170 h4        1 HDU      0.064100
     26 H12        -0.5690   -0.9010   -5.3500 ha        1 HDU      0.185000
     27 H101        4.3660    1.3060   -4.6220 hc        1 HDU      0.066367
     28 H102        2.8750    2.3520   -4.6270 hc        1 HDU      0.066367
     29 H103        4.2150    2.6690   -5.8120 hc        1 HDU      0.066367
     30 H4          2.9830   -0.0430  -10.2120 ha        1 HDU      0.187000
     31 H3          1.4530   -1.9860  -10.7540 ha        1 HDU      0.167000
     32 H2          0.1710   -3.1030   -8.9210 ha        1 HDU      0.170000
     33 H1          0.3710   -2.2860   -6.5520 h4        1 HDU      0.167000
     34 H172        3.2770    0.3600   -1.3480 hn        1 HDU      0.474800
@<TRIPOS>BOND
     1    1    2 2   
     2    2    3 1   
     3    2    4 1   
     4    3   21 1   
     5    3   22 1   
     6    3   23 1   
     7    4    5 1   
     8    4   24 1   
     9    4   34 1   
    10    5    6 ar  
    11    5    7 ar  
    12    6   10 ar  
    13    7    8 ar  
    14    8    9 ar  
    15    8   25 1   
    16    9   10 ar  
    17    9   26 1   
    18   10   11 1   
    19   11   12 1   
    20   11   15 2   
    21   12   13 1   
    22   12   20 1   
    23   13   14 2   
    24   13   17 1   
    25   14   15 1   
    26   15   16 1   
    27   16   27 1   
    28   16   28 1   
    29   16   29 1   
    30   17   18 2   
    31   17   30 1   
    32   18   19 1   
    33   18   31 1   
    34   19   20 2   
    35   19   32 1   
    36   20   33 1   
@<TRIPOS>SUBSTRUCTURE
     1 HDU         1 TEMP              0 ****  ****    0 ROOT
