@<TRIPOS>MOLECULE
HDU
   33    35     1     0     0
SMALL
bcc


@<TRIPOS>ATOM
      1 O20         1.2640    0.7310    4.9100 o         1 HDU     -0.538100
      2 C18         0.0420    0.6730    4.7290 c         1 HDU      0.671100
      3 C19        -0.9400    1.0350    5.8210 c3        1 HDU     -0.179100
      4 N17        -0.5430    0.2840    3.5160 n         1 HDU     -0.554400
      5 C15         0.1520   -0.1910    2.3810 ca        1 HDU      0.768900
      6 N16        -0.4550    0.0480    1.1570 nb        1 HDU     -0.739000
      7 N14         1.3420   -0.8800    2.5610 nb        1 HDU     -0.688000
      8 C13         1.9310   -1.3300    1.4420 ca        1 HDU      0.456200
      9 C12         1.4020   -1.1410    0.1540 ca        1 HDU     -0.411600
     10 C11         0.1810   -0.4330    0.0600 ca        1 HDU      0.573100
     11 C7         -0.4440   -0.2220   -1.2370 cc        1 HDU     -0.287900
     12 N6          0.2410    0.0980   -2.4170 na        1 HDU      0.035700
     13 C5         -0.7490    0.1840   -3.4520 cc        1 HDU     -0.014300
     14 N8         -1.9970   -0.0720   -2.9510 nd        1 HDU     -0.292600
     15 C9         -1.8250   -0.3100   -1.5970 cd        1 HDU      0.135400
     16 C10        -2.9290   -0.6150   -0.6680 c3        1 HDU     -0.028900
     17 C4         -0.3280    0.5120   -4.7810 cc        1 HDU     -0.096000
     18 C3          0.9980    0.7520   -5.0220 cd        1 HDU     -0.116000
     19 C2          1.9520    0.6870   -3.9680 cd        1 HDU     -0.167000
     20 C1          1.5620    0.3670   -2.6860 cc        1 HDU     -0.073300
     21 H191       -0.3620    1.3170    6.7350 hc        1 HDU      0.070700
     22 H192       -1.5740    1.9010    5.5130 hc        1 HDU      0.070700
     23 H193       -1.5970    0.1650    6.0610 hc        1 HDU      0.070700
     24 H17        -1.4990    0.5270    3.3700 hn        1 HDU      0.333500
     25 H13         2.8770   -1.8810    1.5970 h4        1 HDU      0.033100
     26 H12         1.8980   -1.5560   -0.7290 ha        1 HDU      0.156000
     27 H101       -2.6350   -1.4530    0.0110 hc        1 HDU      0.057700
     28 H102       -3.1470    0.2880   -0.0430 hc        1 HDU      0.057700
     29 H103       -3.8600   -0.9040   -1.2170 hc        1 HDU      0.057700
     30 H4         -1.0970    0.5630   -5.5660 ha        1 HDU      0.167000
     31 H3          1.3470    1.0060   -6.0350 ha        1 HDU      0.146000
     32 H2          3.0100    0.8970   -4.1770 ha        1 HDU      0.153000
     33 H1          2.2630    0.3220   -1.8340 h4        1 HDU      0.171000
@<TRIPOS>BOND
     1    1    2 2   
     2    2    3 1   
     3    2    4 1   
     4    3   21 1   
     5    3   22 1   
     6    3   23 1   
     7    4    5 1   
     8    4   24 1   
     9    5    6 ar  
    10    5    7 ar  
    11    6   10 ar  
    12    7    8 ar  
    13    8    9 ar  
    14    8   25 1   
    15    9   10 ar  
    16    9   26 1   
    17   10   11 1   
    18   11   12 1   
    19   11   15 2   
    20   12   13 1   
    21   12   20 1   
    22   13   14 2   
    23   13   17 1   
    24   14   15 1   
    25   15   16 1   
    26   16   27 1   
    27   16   28 1   
    28   16   29 1   
    29   17   18 2   
    30   17   30 1   
    31   18   19 1   
    32   18   31 1   
    33   19   20 2   
    34   19   32 1   
    35   20   33 1   
@<TRIPOS>SUBSTRUCTURE
     1 HDU         1 TEMP              0 ****  ****    0 ROOT
