@<TRIPOS>MOLECULE
HDU
   33    35     1     0     0
SMALL
bcc


@<TRIPOS>ATOM
      1 O20         0.1140   -0.8750    0.2050 o         1 HDU     -0.538100
      2 C18         1.1970   -0.2870    0.0880 c         1 HDU      0.671100
      3 C19         2.0930   -0.0300    1.2790 c3        1 HDU     -0.179100
      4 N17         1.6940    0.1810   -1.1360 ns        1 HDU     -0.554400
      5 C15         1.0080    0.1500   -2.3700 ca        1 HDU      0.768900
      6 N16         1.8050    0.0730   -3.5030 nb        1 HDU     -0.739000
      7 N14        -0.3770    0.2350   -2.3730 nb        1 HDU     -0.688000
      8 C13        -0.9590    0.2320   -3.5810 ca        1 HDU      0.456200
      9 C12        -0.2460    0.1560   -4.7900 ca        1 HDU     -0.411600
     10 C11         1.1630    0.0790   -4.6980 ca        1 HDU      0.573100
     11 C7          1.9740    0.0260   -5.9060 cc        1 HDU     -0.287900
     12 N6          1.6530   -0.7070   -7.0570 na        1 HDU      0.035700
     13 C5          2.7000   -0.4520   -8.0050 cc        1 HDU     -0.014300
     14 N8          3.6320    0.4020   -7.4800 nd        1 HDU     -0.292600
     15 C9          3.2050    0.6920   -6.1950 cd        1 HDU      0.135400
     16 C10         3.9340    1.5740   -5.2650 c3        1 HDU     -0.028900
     17 C4          2.6370   -1.0890   -9.2870 cc        1 HDU     -0.096000
     18 C3          1.5960   -1.9350   -9.5620 cd        1 HDU     -0.116000
     19 C2          0.5890   -2.1890   -8.5890 cd        1 HDU     -0.167000
     20 C1          0.6340   -1.5800   -7.3550 cc        1 HDU     -0.073300
     21 H191        2.2610    1.0660    1.4130 hc        1 HDU      0.070700
     22 H192        1.5910   -0.4350    2.1920 hc        1 HDU      0.070700
     23 H193        3.0780   -0.5400    1.1510 hc        1 HDU      0.070700
     24 H17         2.6690    0.3860   -1.1850 hn        1 HDU      0.333500
     25 H13        -2.0630    0.3040   -3.5720 h4        1 HDU      0.033100
     26 H12        -0.7600    0.1920   -5.7550 ha        1 HDU      0.156000
     27 H101        4.4510    0.9510   -4.4910 hc        1 HDU      0.057700
     28 H102        4.7010    2.1900   -5.7980 hc        1 HDU      0.057700
     29 H103        3.2170    2.2580   -4.7470 hc        1 HDU      0.057700
     30 H4          3.4390   -0.8750  -10.0070 ha        1 HDU      0.167000
     31 H3          1.5240   -2.4370  -10.5390 ha        1 HDU      0.146000
     32 H2         -0.2310   -2.8820   -8.8230 ha        1 HDU      0.153000
     33 H1         -0.1140   -1.7600   -6.5630 h4        1 HDU      0.171000
@<TRIPOS>BOND
     1    1    2 2   
     2    2    3 1   
     3    2    4 1   
     4    3   21 1   
     5    3   22 1   
     6    3   23 1   
     7    4    5 1   
     8    4   24 1   
     9    5    6 ar  
    10    5    7 ar  
    11    6   10 ar  
    12    7    8 ar  
    13    8    9 ar  
    14    8   25 1   
    15    9   10 ar  
    16    9   26 1   
    17   10   11 1   
    18   11   12 1   
    19   11   15 2   
    20   12   13 1   
    21   12   20 1   
    22   13   14 2   
    23   13   17 1   
    24   14   15 1   
    25   15   16 1   
    26   16   27 1   
    27   16   28 1   
    28   16   29 1   
    29   17   18 2   
    30   17   30 1   
    31   18   19 1   
    32   18   31 1   
    33   19   20 2   
    34   19   32 1   
    35   20   33 1   
@<TRIPOS>SUBSTRUCTURE
     1 HDU         1 TEMP              0 ****  ****    0 ROOT
