@<TRIPOS>MOLECULE
HDU
   33    35     1     0     0
SMALL
bcc


@<TRIPOS>ATOM
      1 O20         0.1130   -0.8720    0.2050 o         1 HDU     -0.538100
      2 C18         1.1950   -0.2830    0.0880 c         1 HDU      0.671100
      3 C19         2.0900   -0.0240    1.2790 c3        1 HDU     -0.179100
      4 N17         1.6920    0.1850   -1.1360 n         1 HDU     -0.554400
      5 C15         1.0060    0.1520   -2.3710 ca        1 HDU      0.768900
      6 N16         1.8040    0.0760   -3.5030 nb        1 HDU     -0.739000
      7 N14        -0.3790    0.2340   -2.3740 nb        1 HDU     -0.688000
      8 C13        -0.9600    0.2290   -3.5830 ca        1 HDU      0.456200
      9 C12        -0.2470    0.1530   -4.7910 ca        1 HDU     -0.411600
     10 C11         1.1630    0.0790   -4.6980 ca        1 HDU      0.573100
     11 C7          1.9740    0.0260   -5.9060 cc        1 HDU     -0.287900
     12 N6          1.6560   -0.7080   -7.0570 na        1 HDU      0.035700
     13 C5          2.7010   -0.4520   -8.0050 cc        1 HDU     -0.014300
     14 N8          3.6320    0.4050   -7.4800 nd        1 HDU     -0.292600
     15 C9          3.2040    0.6950   -6.1960 cd        1 HDU      0.135400
     16 C10         3.9310    1.5790   -5.2660 c3        1 HDU     -0.028900
     17 C4          2.6410   -1.0910   -9.2850 cc        1 HDU     -0.096000
     18 C3          1.6020   -1.9400   -9.5600 cd        1 HDU     -0.116000
     19 C2          0.5950   -2.1950   -8.5880 cd        1 HDU     -0.167000
     20 C1          0.6380   -1.5840   -7.3540 cc        1 HDU     -0.073300
     21 H191        3.0750   -0.5340    1.1520 hc        1 HDU      0.070700
     22 H192        1.5870   -0.4280    2.1920 hc        1 HDU      0.070700
     23 H193        2.2570    1.0720    1.4120 hc        1 HDU      0.070700
     24 H17         2.6660    0.3920   -1.1850 hn        1 HDU      0.333500
     25 H13        -2.0650    0.2990   -3.5750 h4        1 HDU      0.033100
     26 H12        -0.7610    0.1880   -5.7570 ha        1 HDU      0.156000
     27 H101        3.2120    2.2630   -4.7490 hc        1 HDU      0.057700
     28 H102        4.4480    0.9580   -4.4910 hc        1 HDU      0.057700
     29 H103        4.6960    2.1960   -5.7990 hc        1 HDU      0.057700
     30 H4          3.4430   -0.8750  -10.0050 ha        1 HDU      0.167000
     31 H3          1.5320   -2.4430  -10.5360 ha        1 HDU      0.146000
     32 H2         -0.2240   -2.8900   -8.8200 ha        1 HDU      0.153000
     33 H1         -0.1100   -1.7640   -6.5620 h4        1 HDU      0.171000
@<TRIPOS>BOND
     1    1    2 2   
     2    2    3 1   
     3    2    4 1   
     4    3   21 1   
     5    3   22 1   
     6    3   23 1   
     7    4    5 1   
     8    4   24 1   
     9    5    6 ar  
    10    5    7 ar  
    11    6   10 ar  
    12    7    8 ar  
    13    8    9 ar  
    14    8   25 1   
    15    9   10 ar  
    16    9   26 1   
    17   10   11 1   
    18   11   12 1   
    19   11   15 2   
    20   12   13 1   
    21   12   20 1   
    22   13   14 2   
    23   13   17 1   
    24   14   15 1   
    25   15   16 1   
    26   16   27 1   
    27   16   28 1   
    28   16   29 1   
    29   17   18 2   
    30   17   30 1   
    31   18   19 1   
    32   18   31 1   
    33   19   20 2   
    34   19   32 1   
    35   20   33 1   
@<TRIPOS>SUBSTRUCTURE
     1 HDU         1 TEMP              0 ****  ****    0 ROOT
