@<TRIPOS>MOLECULE
HDX
   29    29     1     0     0
SMALL
bcc


@<TRIPOS>ATOM
      1 OAA        -0.0720   -0.7160   -0.2950 o         1 HDX     -0.781500
      2 OAB         0.0290    1.8430    4.3840 o         1 HDX     -0.923500
      3 OAC         4.7520    2.3090   -5.8450 o         1 HDX     -0.945500
      4 OAD         1.5310   -0.8520   -2.4840 oh        1 HDX     -0.521100
      5 OAE         2.5340    1.5800    3.9790 o         1 HDX     -0.923500
      6 OAF         1.1370   -0.3900    4.7980 o         1 HDX     -0.923500
      7 OAG         7.0370    1.1850   -5.9340 o         1 HDX     -0.945500
      8 OAH         6.7960    3.5070   -4.9290 o         1 HDX     -0.945500
      9 CAI         3.5890    1.0610   -0.1210 cc        1 HDX     -0.292000
     10 CAJ         2.7650    1.0130    0.9880 cd        1 HDX     -0.005400
     11 CAK         4.6970    1.6990   -3.0620 c3        1 HDX      0.228400
     12 CAL         4.1430    0.3700   -2.5070 c3        1 HDX     -0.078200
     13 CAM         0.7230    0.3780    2.1780 c3        1 HDX     -0.120200
     14 OAN         5.8890    1.4680   -3.7090 os        1 HDX     -0.585200
     15 CAO         1.0740   -0.1810   -0.2010 c         1 HDX      0.618700
     16 CAP         3.2070    0.4510   -1.3510 cc        1 HDX      0.031800
     17 CAQ         1.9700   -0.1640   -1.3610 cd        1 HDX     -0.120100
     18 NAR         1.5280    0.4140    0.9810 n         1 HDX     -0.192000
     19 PAS         1.1830    0.9310    4.0860 p5        1 HDX      1.191700
     20 PAT         6.1360    2.1900   -5.2590 p5        1 HDX      1.324900
     21 HOAD        0.5660   -0.9000   -2.4010 ho        1 HDX      0.401000
     22 HAI         4.5580    1.5700   -0.0610 ha        1 HDX      0.140000
     23 HAJ         3.0370    1.4400    1.9930 h4        1 HDX      0.238000
     24 HAK         3.9470    2.1620   -3.7630 h1        1 HDX     -0.002800
     25 HAKA        4.8580    2.3940   -2.1820 h1        1 HDX     -0.002800
     26 HAL         5.0240   -0.2510   -2.1830 hc        1 HDX      0.042700
     27 HALA        3.6460   -0.1740   -3.3530 hc        1 HDX      0.042700
     28 HAM        -0.1850    1.0050    2.0090 h1        1 HDX      0.025700
     29 HAMA        0.4080   -0.6770    2.3570 h1        1 HDX      0.025700
@<TRIPOS>BOND
     1    1   15 2   
     2    2   19 1   
     3    3   20 1   
     4    4   17 1   
     5    4   21 1   
     6    5   19 1   
     7    6   19 1   
     8    7   20 1   
     9    8   20 1   
    10    9   10 2   
    11    9   16 1   
    12    9   22 1   
    13   10   18 1   
    14   10   23 1   
    15   11   12 1   
    16   11   14 1   
    17   11   24 1   
    18   11   25 1   
    19   12   16 1   
    20   12   26 1   
    21   12   27 1   
    22   13   18 1   
    23   13   19 1   
    24   13   28 1   
    25   13   29 1   
    26   14   20 1   
    27   15   17 1   
    28   15   18 1   
    29   16   17 2   
@<TRIPOS>SUBSTRUCTURE
     1 HDX         1 TEMP              0 ****  ****    0 ROOT
