@<TRIPOS>MOLECULE
HDX
   29    29     1     0     0
SMALL
bcc


@<TRIPOS>ATOM
      1 OAA        -0.1470   -0.5670   -0.3100 o         1 HDX     -0.781500
      2 OAB         0.1500    1.8060    4.4580 o         1 HDX     -0.923500
      3 OAC         4.7680    2.4030   -5.8110 o         1 HDX     -0.945500
      4 OAD         1.4200   -0.7070   -2.5250 oh        1 HDX     -0.521100
      5 OAE         2.6320    1.4230    4.0080 o         1 HDX     -0.923500
      6 OAF         1.1400   -0.4980    4.7740 o         1 HDX     -0.923500
      7 OAG         6.9840    1.1570   -5.9760 o         1 HDX     -0.945500
      8 OAH         6.8880    3.4490   -4.8820 o         1 HDX     -0.945500
      9 CAI         3.6080    1.0020   -0.1230 cc        1 HDX     -0.292000
     10 CAJ         2.7960    0.9570    0.9960 cd        1 HDX     -0.005400
     11 CAK         4.7140    1.6900   -3.0530 c3        1 HDX      0.228400
     12 CAL         4.0940    0.3720   -2.5400 c3        1 HDX     -0.078200
     13 CAM         0.7370    0.3890    2.1900 c3        1 HDX     -0.120200
     14 OAN         5.8830    1.4190   -3.7250 os        1 HDX     -0.585200
     15 CAO         1.0280   -0.0980   -0.2130 c         1 HDX      0.618700
     16 CAP         3.1790    0.4600   -1.3690 cc        1 HDX      0.031800
     17 CAQ         1.9100   -0.0860   -1.3840 cd        1 HDX     -0.120100
     18 NAR         1.5280    0.4270    0.9840 n         1 HDX     -0.192000
     19 PAS         1.2490    0.8440    4.1100 p5        1 HDX      1.191700
     20 PAT         6.1510    2.1840   -5.2500 p5        1 HDX      1.324900
     21 HOAD        0.4550   -0.7060   -2.4300 ho        1 HDX      0.401000
     22 HAI         4.6040    1.4550   -0.0570 ha        1 HDX      0.140000
     23 HAJ         3.1030    1.3310    2.0120 h4        1 HDX      0.238000
     24 HAK         3.9820    2.2190   -3.7250 h1        1 HDX     -0.002800
     25 HAKA        4.9230    2.3410   -2.1500 h1        1 HDX     -0.002800
     26 HAL         4.9430   -0.3070   -2.2520 hc        1 HDX      0.042700
     27 HALA        3.5580   -0.1110   -3.3990 hc        1 HDX      0.042700
     28 HAM        -0.1370    1.0700    2.0570 h1        1 HDX      0.025700
     29 HAMA        0.3670   -0.6540    2.3350 h1        1 HDX      0.025700
@<TRIPOS>BOND
     1    1   15 2   
     2    2   19 1   
     3    3   20 1   
     4    4   17 1   
     5    4   21 1   
     6    5   19 1   
     7    6   19 1   
     8    7   20 1   
     9    8   20 1   
    10    9   10 2   
    11    9   16 1   
    12    9   22 1   
    13   10   18 1   
    14   10   23 1   
    15   11   12 1   
    16   11   14 1   
    17   11   24 1   
    18   11   25 1   
    19   12   16 1   
    20   12   26 1   
    21   12   27 1   
    22   13   18 1   
    23   13   19 1   
    24   13   28 1   
    25   13   29 1   
    26   14   20 1   
    27   15   17 1   
    28   15   18 1   
    29   16   17 2   
@<TRIPOS>SUBSTRUCTURE
     1 HDX         1 TEMP              0 ****  ****    0 ROOT
