@<TRIPOS>MOLECULE
HDX
   29    26     1     0     0
SMALL
bcc


@<TRIPOS>ATOM
      1 OAA        -3.1020   -0.4160    0.8130 o         1 HDX     -0.745500
      2 OAB        -2.6750   -2.5590    2.9170 o         1 HDX     -0.923167
      3 OAC         2.8070    1.9900   -5.6900 o         1 HDX     -0.946167
      4 OAD        -1.8310   -0.4500   -1.7300 oh        1 HDX     -0.510600
      5 OAE        -1.2690   -2.0960    4.8940 o         1 HDX     -0.923167
      6 OAF        -3.6260   -1.3570    4.8560 o         1 HDX     -0.923167
      7 OAG         2.1830    3.3350   -3.7120 o         1 HDX     -0.946167
      8 OAH         4.2600    2.0070   -3.6890 o         1 HDX     -0.946167
      9 CAI         1.0730   -0.3540    0.7790 c1        1 HDX     -0.090000
     10 CAJ         0.3040   -0.2790    2.0900 c1        1 HDX     -0.090000
     11 CAK         1.6470    0.8560   -2.2150 c3        1 HDX      0.234400
     12 CAL         1.1070   -0.4850   -1.8150 c3        1 HDX     -0.110300
     13 CAM        -1.8810   -0.0020    3.3000 c3        1 HDX     -0.032400
     14 OAN         2.0330    0.8210   -3.5810 os        1 HDX     -0.582200
     15 CAO        -1.8880   -0.3530    0.8140 c1        1 HDX      0.707900
     16 CAP         0.3440   -0.3570   -0.5000 c1        1 HDX      0.063900
     17 CAQ        -1.1270   -0.3440   -0.5040 c1        1 HDX     -0.124400
     18 NAR        -1.1620   -0.2430    2.0790 n2        1 HDX     -0.426600
     19 PAS        -2.3820   -1.5640    4.0190 p5        1 HDX      1.191700
     20 PAT         2.8290    2.0530   -4.1720 p5        1 HDX      1.323900
     21 HOAD       -2.2470   -1.2510   -1.7710 ho        1 HDX      0.401000
     22 HAI         2.0560   -0.3790    0.7850 ha        1 HDX      0.134500
     23 HAJ         0.7960   -0.2780    2.9550 ha        1 HDX      0.134500
     24 HAK         0.9550    1.5390   -2.0870 h1        1 HDX     -0.008300
     25 HAKA        2.4300    1.0740   -1.6580 h1        1 HDX     -0.008300
     26 HAL         1.8500   -1.1150   -1.7030 hc        1 HDX      0.047200
     27 HALA        0.5060   -0.8120   -2.5080 hc        1 HDX      0.047200
     28 HAM        -1.3070    0.4750    3.9280 h1        1 HDX      0.025200
     29 HAMA       -2.6860    0.5450    3.1070 h1        1 HDX      0.025200
@<TRIPOS>BOND
     1    1   15 2   
     2    2   19 1   
     3    3   20 1   
     4    4   17 1   
     5    4   21 1   
     6    5   19 1   
     7    6   19 1   
     8    7   20 1   
     9    8   20 1   
    10    9   10 3   
    11    9   22 1   
    12   10   23 1   
    13   11   12 1   
    14   11   14 1   
    15   11   24 1   
    16   11   25 1   
    17   12   16 1   
    18   12   26 1   
    19   12   27 1   
    20   13   18 1   
    21   13   19 1   
    22   13   28 1   
    23   13   29 1   
    24   14   20 1   
    25   15   18 2   
    26   16   17 3   
@<TRIPOS>SUBSTRUCTURE
     1 HDX         1 TEMP              0 ****  ****    0 ROOT
