@<TRIPOS>MOLECULE
HDX
   29    29     1     0     0
SMALL
bcc


@<TRIPOS>ATOM
      1 OAA        -2.4810    2.4690    1.1730 o         1 HDX     -0.781500
      2 OAB        -5.9010   -1.5050    0.1870 o         1 HDX     -0.923500
      3 OAC         5.1840    0.3520    1.1060 o         1 HDX     -0.945500
      4 OAD         0.1750    2.8990    0.7990 oh        1 HDX     -0.521100
      5 OAE        -4.2510   -1.8670   -1.7260 o         1 HDX     -0.923500
      6 OAF        -5.9880   -0.0030   -1.8440 o         1 HDX     -0.923500
      7 OAG         6.3200    0.7050   -1.1480 o         1 HDX     -0.945500
      8 OAH         5.7170   -1.6410   -0.3770 o         1 HDX     -0.945500
      9 CAI        -0.3700   -0.2490   -1.0070 cc        1 HDX     -0.292000
     10 CAJ        -1.7410   -0.3610   -0.8600 cd        1 HDX     -0.005400
     11 CAK         2.7590   -0.0890   -0.3250 c3        1 HDX      0.228400
     12 CAL         1.7960    1.0530   -0.7120 c3        1 HDX     -0.078200
     13 CAM        -3.9270    0.3780   -0.0460 c3        1 HDX     -0.120200
     14 OAN         3.9030   -0.0050   -1.0850 os        1 HDX     -0.585200
     15 CAO        -1.8560    1.6220    0.4640 c         1 HDX      0.618700
     16 CAP         0.3460    0.8440   -0.4410 cc        1 HDX      0.031800
     17 CAQ        -0.4100    1.7570    0.2680 cd        1 HDX     -0.120100
     18 NAR        -2.4960    0.5370   -0.1450 n         1 HDX     -0.192000
     19 PAS        -5.1700   -0.9310   -0.9930 p5        1 HDX      1.191700
     20 PAT         5.4290   -0.1620   -0.2910 p5        1 HDX      1.324900
     21 HOAD       -0.4230    3.1970    1.5020 ho        1 HDX      0.401000
     22 HAI         0.1820   -1.0090   -1.5730 ha        1 HDX      0.140000
     23 HAJ        -2.3590   -1.1800   -1.3220 h4        1 HDX      0.238000
     24 HAK         3.0040   -0.0260    0.7720 h1        1 HDX     -0.002800
     25 HAKA        2.2260   -1.0670   -0.5290 h1        1 HDX     -0.002800
     26 HAL         2.1430    1.9850   -0.1920 hc        1 HDX      0.042700
     27 HALA        1.9080    1.2270   -1.8170 hc        1 HDX      0.042700
     28 HAM        -4.1820    0.1520    1.0160 h1        1 HDX      0.025700
     29 HAMA       -4.4080    1.3410   -0.3380 h1        1 HDX      0.025700
@<TRIPOS>BOND
     1    1   15 2   
     2    2   19 1   
     3    3   20 1   
     4    4   17 1   
     5    4   21 1   
     6    5   19 1   
     7    6   19 1   
     8    7   20 1   
     9    8   20 1   
    10    9   10 2   
    11    9   16 1   
    12    9   22 1   
    13   10   18 1   
    14   10   23 1   
    15   11   12 1   
    16   11   14 1   
    17   11   24 1   
    18   11   25 1   
    19   12   16 1   
    20   12   26 1   
    21   12   27 1   
    22   13   18 1   
    23   13   19 1   
    24   13   28 1   
    25   13   29 1   
    26   14   20 1   
    27   15   17 1   
    28   15   18 1   
    29   16   17 2   
@<TRIPOS>SUBSTRUCTURE
     1 HDX         1 TEMP              0 ****  ****    0 ROOT
