@<TRIPOS>MOLECULE
HDX
   29    29     1     0     0
SMALL
bcc


@<TRIPOS>ATOM
      1 OAA        -0.1250   -0.6180   -0.3230 o         1 HDX     -0.781500
      2 OAB         0.0970    1.7890    4.4320 o         1 HDX     -0.923500
      3 OAC         4.7750    2.4060   -5.8070 o         1 HDX     -0.945500
      4 OAD         1.4590   -0.7440   -2.5260 oh        1 HDX     -0.521100
      5 OAE         2.5880    1.4470    4.0020 o         1 HDX     -0.923500
      6 OAF         1.1250   -0.4950    4.7700 o         1 HDX     -0.923500
      7 OAG         7.0120    1.1930   -5.9520 o         1 HDX     -0.945500
      8 OAH         6.8740    3.4890   -4.8710 o         1 HDX     -0.945500
      9 CAI         3.6000    1.0170   -0.1200 cc        1 HDX     -0.292000
     10 CAJ         2.7810    0.9650    0.9940 cd        1 HDX     -0.005400
     11 CAK         4.7150    1.7060   -3.0460 c3        1 HDX      0.228400
     12 CAL         4.1150    0.3810   -2.5290 c3        1 HDX     -0.078200
     13 CAM         0.7240    0.3680    2.1770 c3        1 HDX     -0.120200
     14 OAN         5.8930    1.4510   -3.7090 os        1 HDX     -0.585200
     15 CAO         1.0410   -0.1290   -0.2200 c         1 HDX      0.618700
     16 CAP         3.1890    0.4600   -1.3650 cc        1 HDX      0.031800
     17 CAQ         1.9300   -0.1080   -1.3850 cd        1 HDX     -0.120100
     18 NAR         1.5240    0.4120    0.9760 n         1 HDX     -0.192000
     19 PAS         1.2150    0.8440    4.0980 p5        1 HDX      1.191700
     20 PAT         6.1580    2.2120   -5.2370 p5        1 HDX      1.324900
     21 HOAD        0.4940   -0.7600   -2.4380 ho        1 HDX      0.401000
     22 HAI         4.5880    1.4880   -0.0500 ha        1 HDX      0.140000
     23 HAJ         3.0740    1.3500    2.0100 h4        1 HDX      0.238000
     24 HAK         4.9070    2.3650   -2.1460 h1        1 HDX     -0.002800
     25 HAKA        3.9780    2.2180   -3.7260 h1        1 HDX     -0.002800
     26 HAL         3.5930   -0.1170   -3.3890 hc        1 HDX      0.042700
     27 HALA        4.9730   -0.2820   -2.2310 hc        1 HDX      0.042700
     28 HAM        -0.1610    1.0330    2.0340 h1        1 HDX      0.025700
     29 HAMA        0.3720   -0.6800    2.3260 h1        1 HDX      0.025700
@<TRIPOS>BOND
     1    1   15 2   
     2    2   19 1   
     3    3   20 1   
     4    4   17 1   
     5    4   21 1   
     6    5   19 1   
     7    6   19 1   
     8    7   20 1   
     9    8   20 1   
    10    9   10 2   
    11    9   16 1   
    12    9   22 1   
    13   10   18 1   
    14   10   23 1   
    15   11   12 1   
    16   11   14 1   
    17   11   24 1   
    18   11   25 1   
    19   12   16 1   
    20   12   26 1   
    21   12   27 1   
    22   13   18 1   
    23   13   19 1   
    24   13   28 1   
    25   13   29 1   
    26   14   20 1   
    27   15   17 1   
    28   15   18 1   
    29   16   17 2   
@<TRIPOS>SUBSTRUCTURE
     1 HDX         1 TEMP              0 ****  ****    0 ROOT
