@<TRIPOS>MOLECULE
HDY
   59    62     1     0     0
SMALL
bcc


@<TRIPOS>ATOM
      1 C10         1.1870   -2.7260   -0.8900 c3        1 HDY     -0.038900
      2 C9          2.2910   -1.7470   -0.8750 cc        1 HDY      0.187400
      3 N8          3.4740   -1.9530   -0.2200 nc        1 HDY     -0.274600
      4 C5          4.2370   -0.8200   -0.4310 cd        1 HDY      0.021700
      5 C4          5.5600   -0.5160    0.0110 cd        1 HDY     -0.089000
      6 C3          6.1300    0.6770   -0.3640 cc        1 HDY     -0.088000
      7 C2          5.4200    1.5850   -1.1910 cc        1 HDY     -0.136000
      8 N6          3.5260    0.1340   -1.2210 na        1 HDY      0.052700
      9 C1          4.1360    1.2980   -1.6160 cd        1 HDY     -0.092300
     10 C7          2.2710   -0.4440   -1.5100 cd        1 HDY     -0.364900
     11 C11         1.1970    0.1810   -2.2230 ca        1 HDY      0.617100
     12 C12         1.0120    1.5950   -2.2220 ca        1 HDY     -0.348600
     13 C13        -0.0680    2.1280   -2.9350 ca        1 HDY      0.467200
     14 N14        -0.9560    1.3600   -3.6090 nb        1 HDY     -0.702000
     15 N16         0.3110   -0.6270   -2.8910 nb        1 HDY     -0.706000
     16 C15        -0.7130    0.0150   -3.5230 ca        1 HDY      0.720900
     17 N17        -1.7050   -0.8770   -4.2190 n4        1 HDY     -0.606100
     18 C18        -1.4670   -0.9360   -5.6630 ca        1 HDY     -0.073400
     19 C19        -1.9520    0.0990   -6.4900 ca        1 HDY     -0.049000
     20 C20        -1.7630    0.0230   -7.8620 ca        1 HDY     -0.161000
     21 C23        -0.7680   -2.0240   -6.2110 ca        1 HDY     -0.049000
     22 C22        -0.5810   -2.1000   -7.5890 ca        1 HDY     -0.161000
     23 C21        -1.0810   -1.0820   -8.4120 ca        1 HDY      0.169100
     24 O24        -0.9590   -1.0470   -9.7840 os        1 HDY     -0.329900
     25 C25        -0.3460   -2.1820  -10.4090 c3        1 HDY      0.091400
     26 C26        -0.4280   -1.8670  -11.9090 c3        1 HDY      0.126100
     27 O31         0.4160   -0.7830  -12.2530 oh        1 HDY     -0.621800
     28 C27         0.0800   -3.0840  -12.7060 c3        1 HDY      0.104800
     29 N28         0.2590   -2.7930  -14.1660 n4        1 HDY     -0.675400
     30 C30         1.1750   -3.7870  -14.7890 c3        1 HDY      0.082100
     31 C29        -1.0430   -2.7590  -14.8810 c3        1 HDY      0.082100
     32 H101        0.2280   -2.2240   -0.6110 hc        1 HDY      0.064033
     33 H102        1.3730   -3.5620   -0.1680 hc        1 HDY      0.064033
     34 H103        1.0860   -3.1610   -1.9160 hc        1 HDY      0.064033
     35 H4          6.0810   -1.2570    0.6380 ha        1 HDY      0.190000
     36 H3          7.1480    0.9400   -0.0320 ha        1 HDY      0.171000
     37 H2          5.8940    2.5280   -1.5030 ha        1 HDY      0.172000
     38 H1          3.5740    1.9690   -2.2870 h4        1 HDY      0.166000
     39 H12         1.6660    2.2530   -1.6330 ha        1 HDY      0.187000
     40 H13        -0.2640    3.2190   -2.9740 h4        1 HDY      0.067100
     41 H17        -2.6500   -0.5020   -4.0490 hn        1 HDY      0.477800
     42 H19        -2.4760    0.9730   -6.0630 ha        1 HDY      0.175500
     43 H20        -2.1410    0.8190   -8.5250 ha        1 HDY      0.173500
     44 H23        -0.3600   -2.8260   -5.5720 ha        1 HDY      0.175500
     45 H22        -0.0360   -2.9590   -8.0080 ha        1 HDY      0.173500
     46 H251       -0.9160   -3.1140  -10.1620 h1        1 HDY      0.073700
     47 H252        0.7220   -2.2640  -10.0740 h1        1 HDY      0.073700
     48 H26        -1.4940   -1.6190  -12.1830 h1        1 HDY      0.081700
     49 H31         0.1800   -0.0330  -11.6870 ho        1 HDY      0.463000
     50 H271       -0.6490   -3.9350  -12.5930 hx        1 HDY      0.111700
     51 H272        1.0840   -3.3940  -12.2950 hx        1 HDY      0.111700
     52 H301        0.7550   -4.8200  -14.6610 hx        1 HDY      0.109367
     53 H302        1.2740   -3.5570  -15.8850 hx        1 HDY      0.109367
     54 H303        2.1850   -3.7230  -14.3020 hx        1 HDY      0.109367
     55 H291       -1.5260   -3.7720  -14.8400 hx        1 HDY      0.109367
     56 H292       -1.7120   -1.9980  -14.3980 hx        1 HDY      0.109367
     57 H293       -0.8670   -2.4730  -15.9540 hx        1 HDY      0.109367
     58 H172       -1.6380   -1.8250   -3.8210 hn        1 HDY      0.477800
     59 H281        0.6930   -1.8560  -14.2380 hn        1 HDY      0.477800
@<TRIPOS>BOND
     1    1    2 1   
     2    1   32 1   
     3    1   33 1   
     4    1   34 1   
     5    2    3 1   
     6    2   10 2   
     7    3    4 2   
     8    4    5 1   
     9    4    8 1   
    10    5    6 2   
    11    5   35 1   
    12    6    7 1   
    13    6   36 1   
    14    7    9 2   
    15    7   37 1   
    16    8    9 1   
    17    8   10 1   
    18    9   38 1   
    19   10   11 1   
    20   11   12 ar  
    21   11   15 ar  
    22   12   13 ar  
    23   12   39 1   
    24   13   14 ar  
    25   13   40 1   
    26   14   16 ar  
    27   15   16 ar  
    28   16   17 1   
    29   17   18 1   
    30   17   41 1   
    31   17   58 1   
    32   18   19 ar  
    33   18   21 ar  
    34   19   20 ar  
    35   19   42 1   
    36   20   23 ar  
    37   20   43 1   
    38   21   22 ar  
    39   21   44 1   
    40   22   23 ar  
    41   22   45 1   
    42   23   24 1   
    43   24   25 1   
    44   25   26 1   
    45   25   46 1   
    46   25   47 1   
    47   26   27 1   
    48   26   28 1   
    49   26   48 1   
    50   27   49 1   
    51   28   29 1   
    52   28   50 1   
    53   28   51 1   
    54   29   30 1   
    55   29   31 1   
    56   29   59 1   
    57   30   52 1   
    58   30   53 1   
    59   30   54 1   
    60   31   55 1   
    61   31   56 1   
    62   31   57 1   
@<TRIPOS>SUBSTRUCTURE
     1 HDY         1 TEMP              0 ****  ****    0 ROOT
