@<TRIPOS>MOLECULE
HDY
   57    60     1     0     0
SMALL
bcc


@<TRIPOS>ATOM
      1 C10        -2.6710    1.2340   -4.5870 c3        1 HDY     -0.028900
      2 C9         -1.6630    0.7280   -5.5380 cc        1 HDY      0.136400
      3 N8         -1.7750    0.8390   -6.9140 nc        1 HDY     -0.292600
      4 C5         -0.6430    0.2690   -7.4320 cd        1 HDY     -0.015300
      5 C4         -0.2140    0.1190   -8.7910 cd        1 HDY     -0.096000
      6 C3          0.9930   -0.4720   -9.0490 cc        1 HDY     -0.116000
      7 C2          1.8220   -0.9280   -7.9860 cc        1 HDY     -0.169000
      8 N6          0.2020   -0.2280   -6.3850 na        1 HDY      0.035700
      9 C1          1.4200   -0.7960   -6.6750 cd        1 HDY     -0.072300
     10 C7         -0.4510    0.0600   -5.1780 cd        1 HDY     -0.286900
     11 C11         0.0430   -0.2960   -3.8550 ca        1 HDY      0.580100
     12 C12         0.6620   -1.5510   -3.6430 ca        1 HDY     -0.426600
     13 C13         1.0850   -1.8360   -2.3350 ca        1 HDY      0.463200
     14 N14         0.9390   -0.9920   -1.3040 nb        1 HDY     -0.732000
     15 N16        -0.1440    0.5920   -2.8490 nb        1 HDY     -0.744000
     16 C15         0.3260    0.2220   -1.5940 ca        1 HDY      0.867900
     17 N17         0.2240    1.2030   -0.5830 nh        1 HDY     -0.696300
     18 C18         0.2170    0.8410    0.7870 ca        1 HDY      0.085600
     19 C19        -0.9110    1.1370    1.5890 ca        1 HDY     -0.097500
     20 C20        -0.9040    0.8670    2.9490 ca        1 HDY     -0.170000
     21 C23         1.3490    0.2640    1.3920 ca        1 HDY     -0.097500
     22 C22         1.3560   -0.0180    2.7570 ca        1 HDY     -0.170000
     23 C21         0.2340    0.2820    3.5350 ca        1 HDY      0.121100
     24 O24         0.1330    0.0610    4.8950 os        1 HDY     -0.330900
     25 C25         1.2460   -0.6030    5.5000 c3        1 HDY      0.094400
     26 C26         0.8510   -0.8400    6.9670 c3        1 HDY      0.140100
     27 O31         1.7480   -1.7800    7.5230 oh        1 HDY     -0.588800
     28 C27         0.8090    0.5050    7.7070 c3        1 HDY      0.134800
     29 N28         0.6980    0.4090    9.1550 n3        1 HDY     -0.739600
     30 C30         0.5950    1.7140    9.7700 c3        1 HDY      0.152100
     31 C29        -0.3190   -0.5120    9.6070 c3        1 HDY      0.152100
     32 H101       -2.8590    0.4720   -3.7900 hc        1 HDY      0.058033
     33 H102       -2.2870    2.1670   -4.1010 hc        1 HDY      0.058033
     34 H103       -3.6370    1.4680   -5.0980 hc        1 HDY      0.058033
     35 H4         -0.8780    0.4930   -9.5830 ha        1 HDY      0.166000
     36 H3          1.3460   -0.5990  -10.0840 ha        1 HDY      0.145000
     37 H2          2.7940   -1.3870   -8.2110 ha        1 HDY      0.153000
     38 H1          2.0360   -1.1170   -5.8170 h4        1 HDY      0.171000
     39 H12         0.7710   -2.2850   -4.4480 ha        1 HDY      0.155000
     40 H13         1.5660   -2.8020   -2.0900 h4        1 HDY      0.028100
     41 H17        -0.4020    1.9540   -0.8030 hn        1 HDY      0.434800
     42 H19        -1.8090    1.5910    1.1410 ha        1 HDY      0.145500
     43 H20        -1.7770    1.0990    3.5750 ha        1 HDY      0.146000
     44 H23         2.2430    0.0250    0.7940 ha        1 HDY      0.145500
     45 H22         2.2510   -0.4740    3.2030 ha        1 HDY      0.146000
     46 H251        2.1590    0.0410    5.4230 h1        1 HDY      0.050200
     47 H252        1.4310   -1.5880    4.9970 h1        1 HDY      0.050200
     48 H26        -0.1570   -1.3440    7.0030 h1        1 HDY      0.086700
     49 H31         2.5090   -1.2960    7.8650 ho        1 HDY      0.412000
     50 H271       -0.0360    1.0990    7.2490 h1        1 HDY      0.045200
     51 H272        1.7690    1.0600    7.4960 h1        1 HDY      0.045200
     52 H301        0.6380    1.5910   10.8830 h1        1 HDY      0.034700
     53 H302        1.4650    2.3430    9.4440 h1        1 HDY      0.034700
     54 H303       -0.3540    2.2560    9.5050 h1        1 HDY      0.034700
     55 H291       -0.0310   -1.5470    9.2810 h1        1 HDY      0.034700
     56 H292       -0.3630   -0.4900   10.7280 h1        1 HDY      0.034700
     57 H293       -1.3430   -0.2760    9.2070 h1        1 HDY      0.034700
@<TRIPOS>BOND
     1    1    2 1   
     2    1   32 1   
     3    1   33 1   
     4    1   34 1   
     5    2    3 1   
     6    2   10 2   
     7    3    4 2   
     8    4    5 1   
     9    4    8 1   
    10    5    6 2   
    11    5   35 1   
    12    6    7 1   
    13    6   36 1   
    14    7    9 2   
    15    7   37 1   
    16    8    9 1   
    17    8   10 1   
    18    9   38 1   
    19   10   11 1   
    20   11   12 ar  
    21   11   15 ar  
    22   12   13 ar  
    23   12   39 1   
    24   13   14 ar  
    25   13   40 1   
    26   14   16 ar  
    27   15   16 ar  
    28   16   17 1   
    29   17   18 1   
    30   17   41 1   
    31   18   19 ar  
    32   18   21 ar  
    33   19   20 ar  
    34   19   42 1   
    35   20   23 ar  
    36   20   43 1   
    37   21   22 ar  
    38   21   44 1   
    39   22   23 ar  
    40   22   45 1   
    41   23   24 1   
    42   24   25 1   
    43   25   26 1   
    44   25   46 1   
    45   25   47 1   
    46   26   27 1   
    47   26   28 1   
    48   26   48 1   
    49   27   49 1   
    50   28   29 1   
    51   28   50 1   
    52   28   51 1   
    53   29   30 1   
    54   29   31 1   
    55   30   52 1   
    56   30   53 1   
    57   30   54 1   
    58   31   55 1   
    59   31   56 1   
    60   31   57 1   
@<TRIPOS>SUBSTRUCTURE
     1 HDY         1 TEMP              0 ****  ****    0 ROOT
