@<TRIPOS>MOLECULE
HDY
   58    61     1     0     0
SMALL
bcc


@<TRIPOS>ATOM
      1 C10        -0.2640   -0.4430   -0.2570 c3        1 HDY     -0.029900
      2 C9          1.1300   -0.2040    0.1640 cc        1 HDY      0.145400
      3 N8          1.5300   -0.1080    1.4840 nc        1 HDY     -0.289600
      4 C5          2.8840    0.1000    1.4570 cd        1 HDY     -0.008300
      5 C4          3.8220    0.2520    2.5280 cd        1 HDY     -0.094000
      6 C3          5.1490    0.4200    2.2350 cc        1 HDY     -0.112000
      7 C2          5.5980    0.4370    0.8850 cc        1 HDY     -0.161000
      8 N6          3.3630    0.1550    0.1060 na        1 HDY      0.038700
      9 C1          4.7050    0.2980   -0.1550 cd        1 HDY     -0.079300
     10 C7          2.2450   -0.0340   -0.7190 cd        1 HDY     -0.303900
     11 C11         2.2640   -0.0210   -2.1720 ca        1 HDY      0.590100
     12 C12         3.0930    0.8930   -2.8700 ca        1 HDY     -0.413600
     13 C13         3.0310    0.8680   -4.2700 ca        1 HDY      0.462200
     14 N14         2.2420    0.0330   -4.9660 nb        1 HDY     -0.745000
     15 N16         1.4390   -0.8770   -2.8250 nb        1 HDY     -0.737000
     16 C15         1.4640   -0.8310   -4.2120 ca        1 HDY      0.864900
     17 N17         0.6610   -1.7990   -4.8670 nh        1 HDY     -0.707300
     18 C18         0.2340   -1.6320   -6.2010 ca        1 HDY      0.137600
     19 C19        -1.1470   -1.6870   -6.5060 ca        1 HDY     -0.112000
     20 C20        -1.5900   -1.6260   -7.8200 ca        1 HDY     -0.145000
     21 C23         1.1590   -1.5080   -7.2600 ca        1 HDY     -0.112000
     22 C22         0.7170   -1.4250   -8.5770 ca        1 HDY     -0.145000
     23 C21        -0.6510   -1.4860   -8.8510 ca        1 HDY      0.071100
     24 O24        -1.1850   -1.3510  -10.1320 os        1 HDY     -0.349900
     25 C25        -0.3370   -1.8060  -11.1850 c3        1 HDY      0.098400
     26 C26        -1.2860   -2.0210  -12.3710 c3        1 HDY      0.124100
     27 O31        -1.9380   -0.8210  -12.7520 oh        1 HDY     -0.637800
     28 C27        -0.4640   -2.4840  -13.5880 c3        1 HDY      0.100800
     29 N28        -1.2580   -2.4800  -14.8600 n4        1 HDY     -0.675400
     30 C30        -0.3590   -2.4850  -16.0420 c3        1 HDY      0.082600
     31 C29        -2.2070   -3.6220  -14.9130 c3        1 HDY      0.082600
     32 H101       -0.3660   -1.4970   -0.6200 hc        1 HDY      0.058367
     33 H102       -0.5330    0.2500   -1.0930 hc        1 HDY      0.058367
     34 H103       -0.9800   -0.2850    0.5870 hc        1 HDY      0.058367
     35 H4          3.4360    0.2210    3.5580 ha        1 HDY      0.171000
     36 H3          5.8910    0.5390    3.0400 ha        1 HDY      0.151000
     37 H2          6.6690    0.5570    0.6680 ha        1 HDY      0.156000
     38 H1          5.0120    0.2840   -1.2150 h4        1 HDY      0.168000
     39 H12         3.7230    1.6170   -2.3420 ha        1 HDY      0.161000
     40 H13         3.6420    1.5600   -4.8810 h4        1 HDY      0.030100
     41 H17        -0.0210   -2.2320   -4.2720 hn        1 HDY      0.441800
     42 H19        -1.8920   -1.7860   -5.6990 ha        1 HDY      0.158000
     43 H20        -2.6640   -1.6670   -8.0540 ha        1 HDY      0.142000
     44 H23         2.2420   -1.4730   -7.0590 ha        1 HDY      0.158000
     45 H22         1.4510   -1.3100   -9.3870 ha        1 HDY      0.142000
     46 H251        0.4150   -1.0070  -11.4180 h1        1 HDY      0.064700
     47 H252        0.1800   -2.7610  -10.9090 h1        1 HDY      0.064700
     48 H26        -2.0660   -2.7870  -12.0960 h1        1 HDY      0.074700
     49 H31        -2.1990   -0.3530  -11.9420 ho        1 HDY      0.472000
     50 H271        0.4070   -1.7800  -13.7290 hx        1 HDY      0.108700
     51 H272       -0.0760   -3.5240  -13.4040 hx        1 HDY      0.108700
     52 H301       -0.9790   -2.4990  -16.9780 hx        1 HDY      0.105367
     53 H302        0.2960   -3.3960  -16.0120 hx        1 HDY      0.105367
     54 H303        0.2800   -1.5610  -16.0300 hx        1 HDY      0.105367
     55 H291       -2.8200   -3.5500  -15.8510 hx        1 HDY      0.105367
     56 H292       -2.8860   -3.5780  -14.0180 hx        1 HDY      0.105367
     57 H293       -1.6370   -4.5880  -14.9100 hx        1 HDY      0.105367
     58 H281       -1.8090   -1.6020  -14.8670 hn        1 HDY      0.477800
@<TRIPOS>BOND
     1    1    2 1   
     2    1   32 1   
     3    1   33 1   
     4    1   34 1   
     5    2    3 1   
     6    2   10 2   
     7    3    4 2   
     8    4    5 1   
     9    4    8 1   
    10    5    6 2   
    11    5   35 1   
    12    6    7 1   
    13    6   36 1   
    14    7    9 2   
    15    7   37 1   
    16    8    9 1   
    17    8   10 1   
    18    9   38 1   
    19   10   11 1   
    20   11   12 ar  
    21   11   15 ar  
    22   12   13 ar  
    23   12   39 1   
    24   13   14 ar  
    25   13   40 1   
    26   14   16 ar  
    27   15   16 ar  
    28   16   17 1   
    29   17   18 1   
    30   17   41 1   
    31   18   19 ar  
    32   18   21 ar  
    33   19   20 ar  
    34   19   42 1   
    35   20   23 ar  
    36   20   43 1   
    37   21   22 ar  
    38   21   44 1   
    39   22   23 ar  
    40   22   45 1   
    41   23   24 1   
    42   24   25 1   
    43   25   26 1   
    44   25   46 1   
    45   25   47 1   
    46   26   27 1   
    47   26   28 1   
    48   26   48 1   
    49   27   49 1   
    50   28   29 1   
    51   28   50 1   
    52   28   51 1   
    53   29   30 1   
    54   29   31 1   
    55   29   58 1   
    56   30   52 1   
    57   30   53 1   
    58   30   54 1   
    59   31   55 1   
    60   31   56 1   
    61   31   57 1   
@<TRIPOS>SUBSTRUCTURE
     1 HDY         1 TEMP              0 ****  ****    0 ROOT
