@<TRIPOS>MOLECULE
HDY
   58    61     1     0     0
SMALL
bcc


@<TRIPOS>ATOM
      1 C10        -0.2530   -0.4190   -0.2600 c3        1 HDY     -0.029900
      2 C9          1.1440   -0.1940    0.1600 cc        1 HDY      0.145400
      3 N8          1.5440   -0.1000    1.4800 nc        1 HDY     -0.289600
      4 C5          2.9010    0.0950    1.4520 cd        1 HDY     -0.008300
      5 C4          3.8400    0.2380    2.5230 cd        1 HDY     -0.094000
      6 C3          5.1690    0.3930    2.2300 cc        1 HDY     -0.112000
      7 C2          5.6180    0.4030    0.8800 cc        1 HDY     -0.161000
      8 N6          3.3800    0.1420    0.1020 na        1 HDY      0.038700
      9 C1          4.7230    0.2710   -0.1600 cd        1 HDY     -0.079300
     10 C7          2.2600   -0.0370   -0.7230 cd        1 HDY     -0.303900
     11 C11         2.2780   -0.0270   -2.1760 ca        1 HDY      0.590100
     12 C12         3.1170    0.8760   -2.8760 ca        1 HDY     -0.413600
     13 C13         3.0550    0.8490   -4.2760 ca        1 HDY      0.463200
     14 N14         2.2580    0.0210   -4.9710 nb        1 HDY     -0.745000
     15 N16         1.4450   -0.8760   -2.8270 nb        1 HDY     -0.737000
     16 C15         1.4700   -0.8330   -4.2140 ca        1 HDY      0.864900
     17 N17         0.6560   -1.7940   -4.8670 nu        1 HDY     -0.707300
     18 C18         0.2310   -1.6240   -6.2010 ca        1 HDY      0.137600
     19 C19        -1.1510   -1.6640   -6.5060 ca        1 HDY     -0.112000
     20 C20        -1.5930   -1.6010   -7.8200 ca        1 HDY     -0.145000
     21 C23         1.1570   -1.5130   -7.2610 ca        1 HDY     -0.112000
     22 C22         0.7160   -1.4280   -8.5780 ca        1 HDY     -0.145000
     23 C21        -0.6530   -1.4740   -8.8510 ca        1 HDY      0.071100
     24 O24        -1.1840   -1.3350  -10.1330 os        1 HDY     -0.349900
     25 C25        -0.3440   -1.8080  -11.1840 c3        1 HDY      0.098400
     26 C26        -1.2980   -2.0180  -12.3670 c3        1 HDY      0.124100
     27 O31        -1.9340   -0.8120  -12.7550 oh        1 HDY     -0.637800
     28 C27        -0.4830   -2.5000  -13.5820 c3        1 HDY      0.100800
     29 N28        -1.2800   -2.4940  -14.8540 nx        1 HDY     -0.675400
     30 C30        -0.3820   -2.5190  -16.0370 c3        1 HDY      0.082600
     31 C29        -2.2440   -3.6230  -14.8970 c3        1 HDY      0.082600
     32 H101       -0.3650   -1.4730   -0.6220 hc        1 HDY      0.058367
     33 H102       -0.5160    0.2740   -1.0970 hc        1 HDY      0.058367
     34 H103       -0.9670   -0.2530    0.5840 hc        1 HDY      0.058367
     35 H4          3.4540    0.2140    3.5530 ha        1 HDY      0.171000
     36 H3          5.9120    0.5060    3.0340 ha        1 HDY      0.151000
     37 H2          6.6900    0.5110    0.6630 ha        1 HDY      0.156000
     38 H1          5.0300    0.2510   -1.2200 h4        1 HDY      0.168000
     39 H12         3.7550    1.5950   -2.3500 ha        1 HDY      0.161000
     40 H13         3.6730    1.5330   -4.8880 h4        1 HDY      0.030100
     41 H17        -0.0300   -2.2170   -4.2710 hn        1 HDY      0.441800
     42 H19        -1.8970   -1.7530   -5.6990 ha        1 HDY      0.158000
     43 H20        -2.6670   -1.6290   -8.0540 ha        1 HDY      0.142000
     44 H23         2.2410   -1.4900   -7.0590 ha        1 HDY      0.158000
     45 H22         1.4510   -1.3240   -9.3880 ha        1 HDY      0.142000
     46 H251        0.4180   -1.0200  -11.4230 h1        1 HDY      0.064700
     47 H252        0.1610   -2.7670  -10.9030 h1        1 HDY      0.064700
     48 H26        -2.0870   -2.7720  -12.0870 h1        1 HDY      0.074700
     49 H31        -2.1870   -0.3360  -11.9480 ho        1 HDY      0.472000
     50 H271       -0.1100   -3.5440  -13.3920 hx        1 HDY      0.108700
     51 H272        0.3960   -1.8080  -13.7300 hx        1 HDY      0.108700
     52 H301        0.2690   -1.6030  -16.0320 hx        1 HDY      0.105367
     53 H302        0.2610   -3.4390  -16.0020 hx        1 HDY      0.105367
     54 H303       -1.0040   -2.5310  -16.9720 hx        1 HDY      0.105367
     55 H291       -2.8570   -3.5500  -15.8360 hx        1 HDY      0.105367
     56 H292       -1.6870   -4.5970  -14.8890 hx        1 HDY      0.105367
     57 H293       -2.9210   -3.5640  -14.0020 hx        1 HDY      0.105367
     58 H281       -1.8190   -1.6090  -14.8650 hn        1 HDY      0.477800
@<TRIPOS>BOND
     1    1    2 1   
     2    1   32 1   
     3    1   33 1   
     4    1   34 1   
     5    2    3 1   
     6    2   10 2   
     7    3    4 2   
     8    4    5 1   
     9    4    8 1   
    10    5    6 2   
    11    5   35 1   
    12    6    7 1   
    13    6   36 1   
    14    7    9 2   
    15    7   37 1   
    16    8    9 1   
    17    8   10 1   
    18    9   38 1   
    19   10   11 1   
    20   11   12 ar  
    21   11   15 ar  
    22   12   13 ar  
    23   12   39 1   
    24   13   14 ar  
    25   13   40 1   
    26   14   16 ar  
    27   15   16 ar  
    28   16   17 1   
    29   17   18 1   
    30   17   41 1   
    31   18   19 ar  
    32   18   21 ar  
    33   19   20 ar  
    34   19   42 1   
    35   20   23 ar  
    36   20   43 1   
    37   21   22 ar  
    38   21   44 1   
    39   22   23 ar  
    40   22   45 1   
    41   23   24 1   
    42   24   25 1   
    43   25   26 1   
    44   25   46 1   
    45   25   47 1   
    46   26   27 1   
    47   26   28 1   
    48   26   48 1   
    49   27   49 1   
    50   28   29 1   
    51   28   50 1   
    52   28   51 1   
    53   29   30 1   
    54   29   31 1   
    55   29   58 1   
    56   30   52 1   
    57   30   53 1   
    58   30   54 1   
    59   31   55 1   
    60   31   56 1   
    61   31   57 1   
@<TRIPOS>SUBSTRUCTURE
     1 HDY         1 TEMP              0 ****  ****    0 ROOT
