@<TRIPOS>MOLECULE
HDY
   57    51     1     0     0
SMALL
bcc


@<TRIPOS>ATOM
      1 C10         3.8720    3.0970    5.1670 c3        1 HDY     -0.157000
      2 C9          2.5950    2.5960    5.8240 c2        1 HDY     -0.021000
      3 N8          2.8550    2.5610    7.1180 n2        1 HDY     -0.152000
      4 C5          1.7490    2.0520    7.7610 c1        1 HDY      0.008000
      5 C4          1.4640    1.8160    9.1490 c1        1 HDY     -0.116500
      6 C3          0.2490    1.3190    9.5200 c1        1 HDY     -0.116500
      7 C2         -0.7080    1.0420    8.5560 c1        1 HDY     -0.116500
      8 N6          0.8120    1.7790    6.8250 n1        1 HDY     -0.027000
      9 C1         -0.4260    1.2730    7.2030 c1        1 HDY     -0.116500
     10 C7          1.3130    2.1060    5.6320 c1        1 HDY     -0.145000
     11 C11         0.7230    1.9740    4.3200 c1        1 HDY      0.140000
     12 C12         0.0560    3.0140    3.7730 c1        1 HDY     -0.116500
     13 C13        -0.4590    2.9100    2.4930 c1        1 HDY     -0.116500
     14 N14        -0.3000    1.7930    1.8020 n1        1 HDY     -0.204000
     15 N16         0.8860    0.8300    3.6120 n1        1 HDY     -0.244000
     16 C15         0.3750    0.7340    2.3500 c1        1 HDY      0.147000
     17 N17         0.4400   -0.4960    1.6490 n3        1 HDY     -0.216000
     18 C18         0.2530   -0.5150    0.2140 c2        1 HDY      0.004000
     19 C19        -1.0460   -0.4990   -0.3290 c2        1 HDY     -0.068000
     20 C20        -1.2200   -0.4810   -1.7270 c1        1 HDY     -0.150000
     21 C23         1.3790   -0.5140   -0.6460 c1        1 HDY     -0.127000
     22 C22         1.2010   -0.4960   -2.0310 c1        1 HDY     -0.191000
     23 C21        -0.0920   -0.4790   -2.5770 c1        1 HDY      0.078000
     24 O24        -0.2640   -0.3920   -3.9960 os        1 HDY     -0.224000
     25 C25        -0.5440   -1.6750   -4.6380 c3        1 HDY     -0.065000
     26 C26        -0.9180   -1.4470   -6.0770 c3        1 HDY      0.031000
     27 O31         0.2230   -1.0180   -6.8030 oh        1 HDY     -0.329000
     28 C27        -1.4360   -2.7320   -6.6740 c3        1 HDY     -0.066000
     29 N28        -1.6370   -2.5520   -8.0960 n3        1 HDY     -0.267000
     30 C30        -1.1310   -3.5830   -8.7450 c3        1 HDY     -0.119000
     31 C29        -3.1280   -2.4470   -8.3920 c3        1 HDY     -0.119000
     32 H101        4.1270    2.4730    4.3990 hc        1 HDY      0.096000
     33 H102        4.6160    3.1140    5.8480 hc        1 HDY      0.096000
     34 H103        3.7280    3.9900    4.8220 hc        1 HDY      0.096000
     35 H4          2.1300    2.0080    9.8180 ha        1 HDY      0.162667
     36 H3          0.0470    1.1570   10.4910 ha        1 HDY      0.162667
     37 H2         -1.6220    0.6650    8.8320 ha        1 HDY      0.162667
     38 H1         -1.0960    1.0800    6.5300 ha        1 HDY      0.162667
     39 H12        -0.0630    3.8430    4.2840 ha        1 HDY      0.162667
     40 H13        -0.9410    3.6620    2.0990 ha        1 HDY      0.162667
     41 H17         0.5040   -1.2340    2.0820 hn        1 HDY      0.225000
     42 H19        -1.8400   -0.4980    0.2750 ha        1 HDY      0.157000
     43 H20        -2.1360   -0.4690   -2.1160 ha        1 HDY      0.152000
     44 H23         2.2810   -0.5240   -0.2700 ha        1 HDY      0.134000
     45 H22         1.9900   -0.4950   -2.6300 ha        1 HDY      0.139000
     46 H251       -1.2600   -2.1010   -4.1890 h1        1 HDY      0.091000
     47 H252        0.2400   -2.2330   -4.5940 h1        1 HDY      0.091000
     48 H26        -1.6030   -0.7710   -6.1290 h1        1 HDY      0.109000
     49 H31         0.1890   -0.1240   -6.9170 ho        1 HDY      0.215000
     50 H271       -2.2690   -2.9670   -6.2590 h1        1 HDY      0.088500
     51 H272       -0.7910   -3.4380   -6.5240 h1        1 HDY      0.088500
     52 H301       -1.6040   -4.3710   -8.5060 h1        1 HDY      0.071500
     53 H302       -0.1950   -3.6850   -8.5090 h1        1 HDY      0.071500
     54 H303       -1.2090   -3.4370   -9.6820 h1        1 HDY      0.071500
     55 H291       -3.2900   -2.6130   -9.3750 h1        1 HDY      0.071500
     56 H292       -3.6030   -3.1020   -7.8740 h1        1 HDY      0.071500
     57 H293       -3.4650   -1.5030   -8.1440 h1        1 HDY      0.071500
@<TRIPOS>BOND
     1    1    2 1   
     2    1   32 1   
     3    1   33 1   
     4    1   34 1   
     5    2    3 1   
     6    2   10 1   
     7    3    4 1   
     8    4    8 1   
     9    5    6 1   
    10    5   35 1   
    11    6   36 1   
    12    7    9 1   
    13    7   37 1   
    14    9   38 1   
    15   10   11 1   
    16   11   15 1   
    17   12   13 1   
    18   12   39 1   
    19   13   40 1   
    20   14   16 1   
    21   16   17 1   
    22   17   18 1   
    23   17   41 1   
    24   18   19 1   
    25   18   21 1   
    26   19   20 1   
    27   19   42 1   
    28   20   43 1   
    29   21   44 1   
    30   22   23 1   
    31   22   45 1   
    32   23   24 1   
    33   24   25 1   
    34   25   26 1   
    35   25   46 1   
    36   25   47 1   
    37   26   27 1   
    38   26   28 1   
    39   26   48 1   
    40   27   49 1   
    41   28   29 1   
    42   28   50 1   
    43   28   51 1   
    44   29   30 1   
    45   29   31 1   
    46   30   52 1   
    47   30   53 1   
    48   30   54 1   
    49   31   55 1   
    50   31   56 1   
    51   31   57 1   
@<TRIPOS>SUBSTRUCTURE
     1 HDY         1 TEMP              0 ****  ****    0 ROOT
