@<TRIPOS>MOLECULE
HE0
   58    58     1     0     0
SMALL
bcc


@<TRIPOS>ATOM
      1 S1         -2.8900    1.3640    1.2500 ss        1 HE0     -0.334200
      2 C2         -2.1680    0.9370   -0.3730 c3        1 HE0      0.100100
      3 C3         -1.8880   -0.5790   -0.2920 c3        1 HE0      0.062500
      4 N4         -1.6940   -0.9930    1.1070 n3        1 HE0     -0.801200
      5 C5         -2.5860   -0.2460    1.9840 c3        1 HE0      0.222600
      6 C6         -1.9650    0.0060    3.3810 c3        1 HE0      0.000500
      7 C7         -2.9650    0.8320    4.1930 c         1 HE0      0.559900
      8 N8         -1.5090   -1.2500    4.0660 n4        1 HE0     -0.671800
      9 C9         -2.5970   -2.1290    4.6700 c         1 HE0      0.553100
     10 O10        -2.5780   -2.1800    5.8880 o         1 HE0     -0.395100
     11 C11        -3.5000   -2.8780    3.7350 c3        1 HE0     -0.150400
     12 C12        -4.9240   -2.3510    3.8320 c3        1 HE0     -0.077400
     13 C13        -5.7360   -2.8270    2.6430 c3        1 HE0     -0.094400
     14 C14        -7.1330   -2.2490    2.6930 c3        1 HE0     -0.097400
     15 C15        -7.9810   -2.6790    1.4800 c3        1 HE0      0.016700
     16 C16        -9.3980   -2.1540    1.7260 c         1 HE0      0.609100
     17 O17       -10.2620   -2.9090    2.4540 oh        1 HE0     -0.552100
     18 O18        -9.8470   -1.0750    1.3460 o         1 HE0     -0.471000
     19 N19        -7.4730   -2.1930    0.2190 n         1 HE0     -0.537900
     20 C20        -6.8430   -3.0150   -0.6770 c         1 HE0      0.666100
     21 O21        -6.7660   -4.2520   -0.5330 o         1 HE0     -0.608100
     22 C22        -6.2090   -2.3400   -1.9040 c3        1 HE0      0.041800
     23 N23        -5.0990   -3.1620   -2.4370 n4        1 HE0     -0.839600
     24 C24        -3.1680    1.3130   -1.4350 c3        1 HE0     -0.091100
     25 C25        -0.8840    1.7130   -0.5490 c3        1 HE0     -0.091100
     26 C26        -2.9740   -1.4230   -0.9950 c         1 HE0      0.895600
     27 O27        -3.7300   -2.1740   -0.2880 o         1 HE0     -0.860300
     28 O28        -3.0830   -1.4110   -2.2530 o         1 HE0     -0.860300
     29 O29        -3.5390    0.3820    5.1780 o         1 HE0     -0.481100
     30 H3         -0.9120   -0.7970   -0.8220 h1        1 HE0      0.114700
     31 HN4        -1.9120   -1.9790    1.1640 hn        1 HE0      0.375800
     32 H5         -3.5850   -0.7550    2.1200 h2        1 HE0      0.087700
     33 H6         -1.0300    0.6390    3.2420 hx        1 HE0      0.140700
     34 H7         -3.1150    1.8560    3.7820 h4        1 HE0      0.088200
     35 HN8        -0.8820   -0.9690    4.8340 hn        1 HE0      0.462300
     36 H11        -3.4750   -3.9580    4.0590 hc        1 HE0      0.106700
     37 H11A       -3.1440   -2.8400    2.6710 hc        1 HE0      0.106700
     38 H12        -4.9180   -1.2280    3.8640 hc        1 HE0      0.067700
     39 H12A       -5.3900   -2.7040    4.7900 hc        1 HE0      0.067700
     40 H13        -5.2210   -2.5210    1.6900 hc        1 HE0      0.071200
     41 H13A       -5.7880   -3.9480    2.6450 hc        1 HE0      0.071200
     42 H14        -7.6620   -2.6040    3.6170 hc        1 HE0      0.067200
     43 H14A       -7.0850   -1.1290    2.7410 hc        1 HE0      0.067200
     44 H15        -8.0050   -3.8120    1.4350 h1        1 HE0      0.107700
     45 HN19       -7.5440   -1.2150    0.0520 hn        1 HE0      0.343500
     46 H22        -6.9940   -2.1950   -2.6970 hx        1 HE0      0.125200
     47 H22A       -5.7550   -1.3420   -1.6170 hx        1 HE0      0.125200
     48 HN23       -5.4450   -4.0100   -2.8800 hn        1 HE0      0.479800
     49 HN2A       -4.4720   -3.4020   -1.6330 hn        1 HE0      0.479800
     50 H24        -2.8030    0.9660   -2.4360 hc        1 HE0      0.059033
     51 H24A       -3.3060    2.4210   -1.4620 hc        1 HE0      0.059033
     52 H24B       -4.1560    0.8280   -1.2420 hc        1 HE0      0.059033
     53 H25        -0.4630    1.5230   -1.5690 hc        1 HE0      0.059033
     54 H25A       -0.1250    1.4090    0.2110 hc        1 HE0      0.059033
     55 H25B       -1.0750    2.8100   -0.4480 hc        1 HE0      0.059033
     56 H82        -0.9700   -1.8090    3.3950 hn        1 HE0      0.462300
     57 H192       -9.8550   -3.7540    2.6950 ho        1 HE0      0.433000
     58 H233       -4.5240   -2.5850   -3.0800 hn        1 HE0      0.479800
@<TRIPOS>BOND
     1    1    2 1   
     2    1    5 1   
     3    2    3 1   
     4    2   24 1   
     5    2   25 1   
     6    3    4 1   
     7    3   26 1   
     8    3   30 1   
     9    4    5 1   
    10    4   31 1   
    11    5    6 1   
    12    5   32 1   
    13    6    7 1   
    14    6    8 1   
    15    6   33 1   
    16    7   29 2   
    17    7   34 1   
    18    8    9 1   
    19    8   35 1   
    20    8   56 1   
    21    9   10 2   
    22    9   11 1   
    23   11   12 1   
    24   11   36 1   
    25   11   37 1   
    26   12   13 1   
    27   12   38 1   
    28   12   39 1   
    29   13   14 1   
    30   13   40 1   
    31   13   41 1   
    32   14   15 1   
    33   14   42 1   
    34   14   43 1   
    35   15   16 1   
    36   15   19 1   
    37   15   44 1   
    38   16   17 1   
    39   16   18 2   
    40   17   57 1   
    41   19   20 1   
    42   19   45 1   
    43   20   21 2   
    44   20   22 1   
    45   22   23 1   
    46   22   46 1   
    47   22   47 1   
    48   23   48 1   
    49   23   49 1   
    50   23   58 1   
    51   24   50 1   
    52   24   51 1   
    53   24   52 1   
    54   25   53 1   
    55   25   54 1   
    56   25   55 1   
    57   26   27 1   
    58   26   28 1   
@<TRIPOS>SUBSTRUCTURE
     1 HE0         1 TEMP              0 ****  ****    0 ROOT
