@<TRIPOS>MOLECULE
HE0
   55    55     1     0     0
SMALL
bcc


@<TRIPOS>ATOM
      1 S1         -3.9470   -0.9290   -1.1010 ss        1 HE0     -0.487200
      2 C2         -5.7250   -1.1020   -0.7540 c3        1 HE0      0.085100
      3 C3         -6.0280   -0.0520    0.3440 c3        1 HE0      0.024500
      4 N4         -5.0620    1.0360    0.3540 n3        1 HE0     -0.803200
      5 C5         -3.7880    0.6580   -0.2120 c3        1 HE0      0.300600
      6 C6         -2.6520    0.5540    0.8530 c3        1 HE0     -0.008300
      7 C7         -3.0700   -0.3700    1.9890 c         1 HE0      0.567900
      8 N8         -1.4000    0.2010    0.2320 n         1 HE0     -0.558900
      9 C9         -0.2290    0.9050    0.4590 c         1 HE0      0.660100
     10 O10        -0.2420    1.9890    1.0770 o         1 HE0     -0.626100
     11 C11         1.0400    0.3060   -0.1200 c3        1 HE0     -0.147400
     12 C12         2.2440    1.1910    0.1260 c3        1 HE0     -0.070400
     13 C13         3.5060    0.5420   -0.4020 c3        1 HE0     -0.083400
     14 C14         4.7180    1.4220   -0.1820 c3        1 HE0     -0.069400
     15 C15         6.0260    0.7120   -0.5510 c3        1 HE0     -0.047300
     16 C16         7.1420    1.8070   -0.7340 c         1 HE0      0.909600
     17 O17         8.0890    1.8530    0.1040 o         1 HE0     -0.834800
     18 O18         7.0200    2.5700   -1.7270 o         1 HE0     -0.834800
     19 N19         6.4250   -0.2860    0.4230 n         1 HE0     -0.507900
     20 C20         6.2680   -1.6290    0.2430 c         1 HE0      0.600100
     21 O21         5.5270   -2.1360   -0.6360 o         1 HE0     -0.669100
     22 C22         7.0070   -2.5530    1.2340 c3        1 HE0      0.066800
     23 N23         6.7220   -3.9580    1.0970 n3        1 HE0     -0.888800
     24 C24        -6.4860   -0.8230   -2.0270 c3        1 HE0     -0.081600
     25 C25        -6.0130   -2.4940   -0.2490 c3        1 HE0     -0.081600
     26 C26        -7.5140    0.4410    0.1960 c         1 HE0      0.926600
     27 O27        -8.3980   -0.3190    0.6740 o         1 HE0     -0.826800
     28 O28        -7.7250    1.5360   -0.3920 o         1 HE0     -0.826800
     29 O29        -2.3930   -1.3120    2.4030 o         1 HE0     -0.556100
     30 H3         -5.9510   -0.5660    1.3470 h1        1 HE0      0.057700
     31 HN4        -5.4520    1.8320   -0.1280 hn        1 HE0      0.399800
     32 H5         -3.4470    1.4140   -0.9730 h2        1 HE0      0.070700
     33 H6         -2.5340    1.5860    1.3180 h1        1 HE0      0.110700
     34 H7         -4.0460   -0.1060    2.4550 h4        1 HE0      0.027200
     35 HN8        -1.3470   -0.7210   -0.1370 hn        1 HE0      0.320500
     36 H11         1.2100   -0.7000    0.3480 hc        1 HE0      0.063200
     37 H11A        0.9060    0.1500   -1.2230 hc        1 HE0      0.063200
     38 H12         2.0850    2.1850   -0.3680 hc        1 HE0      0.050200
     39 H12A        2.3420    1.3880    1.2260 hc        1 HE0      0.050200
     40 H13         3.6600   -0.4510    0.0990 hc        1 HE0      0.040700
     41 H13A        3.3930    0.3350   -1.4990 hc        1 HE0      0.040700
     42 H14         4.6480    2.3340   -0.8340 hc        1 HE0      0.049700
     43 H14A        4.7500    1.7690    0.8830 hc        1 HE0      0.049700
     44 H15         5.8820    0.2060   -1.5490 h1        1 HE0      0.062700
     45 HN19        7.1590    0.0280    1.0290 hn        1 HE0      0.324500
     46 H22         8.1140   -2.4020    1.0880 h1        1 HE0      0.062700
     47 H22A        6.7450   -2.2410    2.2840 h1        1 HE0      0.062700
     48 HN23        5.7420   -4.1190    1.2490 hn        1 HE0      0.346300
     49 HN2A        6.9260   -4.2520    0.1580 hn        1 HE0      0.346300
     50 H24        -6.1200   -1.4750   -2.8560 hc        1 HE0      0.044367
     51 H24A       -7.5760   -1.0180   -1.8610 hc        1 HE0      0.044367
     52 H24B       -6.3720    0.2490   -2.3200 hc        1 HE0      0.044367
     53 H25        -5.3170   -2.7700    0.5790 hc        1 HE0      0.044367
     54 H25A       -7.0640   -2.5220    0.1390 hc        1 HE0      0.044367
     55 H25B       -5.9070   -3.2420   -1.0710 hc        1 HE0      0.044367
@<TRIPOS>BOND
     1    1    2 1   
     2    1    5 1   
     3    2    3 1   
     4    2   24 1   
     5    2   25 1   
     6    3    4 1   
     7    3   26 1   
     8    3   30 1   
     9    4    5 1   
    10    4   31 1   
    11    5    6 1   
    12    5   32 1   
    13    6    7 1   
    14    6    8 1   
    15    6   33 1   
    16    7   29 2   
    17    7   34 1   
    18    8    9 1   
    19    8   35 1   
    20    9   10 2   
    21    9   11 1   
    22   11   12 1   
    23   11   36 1   
    24   11   37 1   
    25   12   13 1   
    26   12   38 1   
    27   12   39 1   
    28   13   14 1   
    29   13   40 1   
    30   13   41 1   
    31   14   15 1   
    32   14   42 1   
    33   14   43 1   
    34   15   16 1   
    35   15   19 1   
    36   15   44 1   
    37   16   17 1   
    38   16   18 1   
    39   19   20 1   
    40   19   45 1   
    41   20   21 2   
    42   20   22 1   
    43   22   23 1   
    44   22   46 1   
    45   22   47 1   
    46   23   48 1   
    47   23   49 1   
    48   24   50 1   
    49   24   51 1   
    50   24   52 1   
    51   25   53 1   
    52   25   54 1   
    53   25   55 1   
    54   26   27 1   
    55   26   28 1   
@<TRIPOS>SUBSTRUCTURE
     1 HE0         1 TEMP              0 ****  ****    0 ROOT
